MODEL 1
REMARK VINA RESULT:     -10.2      0.000      0.000
REMARK  5 active torsions:
REMARK  status: ('A' for Active; 'I' for Inactive)
REMARK    1  A    between atoms: C_2  and  C_3 
REMARK    2  A    between atoms: C_3  and  C_4 
REMARK       I    between atoms: C_4  and  N_5 
REMARK    3  A    between atoms: N_5  and  C_6 
REMARK    4  A    between atoms: C_13  and  C_14 
REMARK       I    between atoms: C_14  and  N_15 
REMARK    5  A    between atoms: C_22  and  C_23 
ROOT
HETATM    1  C   UNL     1       8.723  28.697  56.926  1.00  0.00     0.035 A 
HETATM    2  C   UNL     1       7.977  29.522  57.781  1.00  0.00     0.046 A 
HETATM    3  C   UNL     1       8.600  30.625  58.402  1.00  0.00     0.030 A 
HETATM    4  C   UNL     1       9.933  30.891  58.115  1.00  0.00     0.063 A 
HETATM    5  N   UNL     1      10.248  31.995  58.858  1.00  0.00    -0.277 N 
HETATM    6  H   UNL     1      11.141  32.474  58.898  1.00  0.00     0.189 HD
HETATM    7  N   UNL     1       9.247  32.453  59.628  1.00  0.00    -0.168 NA
HETATM    8  C   UNL     1       8.220  31.614  59.358  1.00  0.00     0.156 A 
HETATM    9  C   UNL     1      10.695  30.111  57.241  1.00  0.00     0.034 A 
HETATM   10  C   UNL     1      10.065  28.999  56.666  1.00  0.00     0.032 A 
ENDROOT
BRANCH   1  11
HETATM   11  N   UNL     1       8.209  27.494  56.397  1.00  0.00    -0.327 N 
HETATM   12  C   UNL     1       7.552  27.352  55.187  1.00  0.00     0.226 C 
HETATM   13  O   UNL     1       7.694  28.078  54.208  1.00  0.00    -0.273 OA
HETATM   14  H   UNL     1       8.310  26.663  56.967  1.00  0.00     0.169 HD
BRANCH  12  15
HETATM   15  C   UNL     1       6.556  26.205  55.184  1.00  0.00     0.141 C 
BRANCH  15  16
HETATM   16  C   UNL     1       7.077  24.856  54.757  1.00  0.00    -0.049 A 
HETATM   17  C   UNL     1       7.200  23.841  55.718  1.00  0.00     0.008 A 
HETATM   18  C   UNL     1       7.550  22.541  55.346  1.00  0.00     0.017 A 
HETATM   19  C   UNL     1       7.783  22.223  54.002  1.00  0.00     0.047 A 
HETATM   20  C   UNL     1       7.662  23.237  53.040  1.00  0.00     0.017 A 
HETATM   21  C   UNL     1       7.310  24.539  53.413  1.00  0.00     0.008 A 
BRANCH  19  22
HETATM   22  C   UNL     1       8.087  20.802  53.599  1.00  0.00     0.417 C 
HETATM   23  F   UNL     1       9.302  20.656  53.002  1.00  0.00    -0.166 F 
HETATM   24  F   UNL     1       8.087  19.938  54.654  1.00  0.00    -0.166 F 
HETATM   25  F   UNL     1       7.174  20.308  52.716  1.00  0.00    -0.166 F 
ENDBRANCH  19  22
ENDBRANCH  15  16
ENDBRANCH  12  15
ENDBRANCH   1  11
BRANCH   8  26
HETATM   26  C   UNL     1       6.922  31.752  60.033  1.00  0.00     0.270 C 
HETATM   27  N   UNL     1       6.903  31.268  61.313  1.00  0.00    -0.365 N 
HETATM   28  H   UNL     1       7.744  30.845  61.685  1.00  0.00     0.159 HD
HETATM   29  H   UNL     1       6.043  31.289  61.840  1.00  0.00     0.159 HD
HETATM   30  O   UNL     1       5.915  32.232  59.523  1.00  0.00    -0.266 OA
ENDBRANCH   8  26
TORSDOF 5
ENDMDL
MODEL 2
REMARK VINA RESULT:      -9.8      6.259      8.760
REMARK  5 active torsions:
REMARK  status: ('A' for Active; 'I' for Inactive)
REMARK    1  A    between atoms: C_2  and  C_3 
REMARK    2  A    between atoms: C_3  and  C_4 
REMARK       I    between atoms: C_4  and  N_5 
REMARK    3  A    between atoms: N_5  and  C_6 
REMARK    4  A    between atoms: C_13  and  C_14 
REMARK       I    between atoms: C_14  and  N_15 
REMARK    5  A    between atoms: C_22  and  C_23 
ROOT
HETATM    1  C   UNL     1       5.133  26.977  50.393  1.00  0.00     0.035 A 
HETATM    2  C   UNL     1       4.353  26.756  49.248  1.00  0.00     0.046 A 
HETATM    3  C   UNL     1       3.228  27.572  49.004  1.00  0.00     0.030 A 
HETATM    4  C   UNL     1       2.946  28.607  49.888  1.00  0.00     0.063 A 
HETATM    5  N   UNL     1       1.817  29.202  49.398  1.00  0.00    -0.277 N 
HETATM    6  H   UNL     1       1.323  29.997  49.787  1.00  0.00     0.189 HD
HETATM    7  N   UNL     1       1.320  28.627  48.290  1.00  0.00    -0.168 NA
HETATM    8  C   UNL     1       2.181  27.615  48.035  1.00  0.00     0.156 A 
HETATM    9  C   UNL     1       3.723  28.877  51.018  1.00  0.00     0.034 A 
HETATM   10  C   UNL     1       4.813  28.028  51.259  1.00  0.00     0.032 A 
ENDROOT
BRANCH   1  11
HETATM   11  N   UNL     1       6.174  26.105  50.778  1.00  0.00    -0.327 N 
HETATM   12  C   UNL     1       6.155  25.244  51.863  1.00  0.00     0.226 C 
HETATM   13  O   UNL     1       5.149  24.761  52.373  1.00  0.00    -0.273 OA
HETATM   14  H   UNL     1       7.020  26.129  50.223  1.00  0.00     0.169 HD
BRANCH  12  15
HETATM   15  C   UNL     1       7.538  24.973  52.428  1.00  0.00     0.141 C 
BRANCH  15  16
HETATM   16  C   UNL     1       7.643  23.894  53.476  1.00  0.00    -0.049 A 
HETATM   17  C   UNL     1       7.887  22.573  53.069  1.00  0.00     0.008 A 
HETATM   18  C   UNL     1       8.124  21.567  54.007  1.00  0.00     0.017 A 
HETATM   19  C   UNL     1       8.127  21.857  55.378  1.00  0.00     0.047 A 
HETATM   20  C   UNL     1       7.882  23.176  55.787  1.00  0.00     0.017 A 
HETATM   21  C   UNL     1       7.646  24.185  54.846  1.00  0.00     0.008 A 
BRANCH  19  22
HETATM   22  C   UNL     1       8.458  20.781  56.381  1.00  0.00     0.417 C 
HETATM   23  F   UNL     1       7.646  19.691  56.295  1.00  0.00    -0.166 F 
HETATM   24  F   UNL     1       9.730  20.307  56.252  1.00  0.00    -0.166 F 
HETATM   25  F   UNL     1       8.356  21.223  57.666  1.00  0.00    -0.166 F 
ENDBRANCH  19  22
ENDBRANCH  15  16
ENDBRANCH  12  15
ENDBRANCH   1  11
BRANCH   8  26
HETATM   26  C   UNL     1       1.974  26.701  46.903  1.00  0.00     0.270 C 
HETATM   27  N   UNL     1       0.830  26.940  46.192  1.00  0.00    -0.365 N 
HETATM   28  H   UNL     1       0.217  27.687  46.496  1.00  0.00     0.159 HD
HETATM   29  H   UNL     1       0.589  26.339  45.420  1.00  0.00     0.159 HD
HETATM   30  O   UNL     1       2.725  25.779  46.602  1.00  0.00    -0.266 OA
ENDBRANCH   8  26
TORSDOF 5
ENDMDL
MODEL 3
REMARK VINA RESULT:      -9.6      2.612      3.841
REMARK  5 active torsions:
REMARK  status: ('A' for Active; 'I' for Inactive)
REMARK    1  A    between atoms: C_2  and  C_3 
REMARK    2  A    between atoms: C_3  and  C_4 
REMARK       I    between atoms: C_4  and  N_5 
REMARK    3  A    between atoms: N_5  and  C_6 
REMARK    4  A    between atoms: C_13  and  C_14 
REMARK       I    between atoms: C_14  and  N_15 
REMARK    5  A    between atoms: C_22  and  C_23 
ROOT
HETATM    1  C   UNL     1       6.257  27.791  53.814  1.00  0.00     0.035 A 
HETATM    2  C   UNL     1       6.731  27.948  55.124  1.00  0.00     0.046 A 
HETATM    3  C   UNL     1       6.216  28.985  55.931  1.00  0.00     0.030 A 
HETATM    4  C   UNL     1       5.217  29.801  55.416  1.00  0.00     0.063 A 
HETATM    5  N   UNL     1       4.935  30.696  56.410  1.00  0.00    -0.277 N 
HETATM    6  H   UNL     1       4.251  31.444  56.388  1.00  0.00     0.189 HD
HETATM    7  N   UNL     1       5.685  30.556  57.516  1.00  0.00    -0.168 NA
HETATM    8  C   UNL     1       6.485  29.501  57.234  1.00  0.00     0.156 A 
HETATM    9  C   UNL     1       4.696  29.649  54.128  1.00  0.00     0.034 A 
HETATM   10  C   UNL     1       5.250  28.636  53.333  1.00  0.00     0.032 A 
ENDROOT
BRANCH   1  11
HETATM   11  N   UNL     1       6.835  26.878  52.904  1.00  0.00    -0.327 N 
HETATM   12  C   UNL     1       6.332  25.632  52.572  1.00  0.00     0.226 C 
HETATM   13  O   UNL     1       5.152  25.300  52.627  1.00  0.00    -0.273 OA
HETATM   14  H   UNL     1       7.709  27.153  52.474  1.00  0.00     0.169 HD
BRANCH  12  15
HETATM   15  C   UNL     1       7.414  24.647  52.165  1.00  0.00     0.141 C 
BRANCH  15  16
HETATM   16  C   UNL     1       7.835  23.635  53.201  1.00  0.00    -0.049 A 
HETATM   17  C   UNL     1       8.002  24.053  54.531  1.00  0.00     0.008 A 
HETATM   18  C   UNL     1       8.260  23.129  55.546  1.00  0.00     0.017 A 
HETATM   19  C   UNL     1       8.354  21.762  55.257  1.00  0.00     0.047 A 
HETATM   20  C   UNL     1       8.189  21.342  53.929  1.00  0.00     0.017 A 
HETATM   21  C   UNL     1       7.929  22.268  52.912  1.00  0.00     0.008 A 
BRANCH  19  22
HETATM   22  C   UNL     1       8.558  20.763  56.368  1.00  0.00     0.417 C 
HETATM   23  F   UNL     1       9.809  20.225  56.390  1.00  0.00    -0.166 F 
HETATM   24  F   UNL     1       8.362  21.298  57.606  1.00  0.00    -0.166 F 
HETATM   25  F   UNL     1       7.699  19.709  56.279  1.00  0.00    -0.166 F 
ENDBRANCH  19  22
ENDBRANCH  15  16
ENDBRANCH  12  15
ENDBRANCH   1  11
BRANCH   8  26
HETATM   26  C   UNL     1       7.499  29.033  58.189  1.00  0.00     0.270 C 
HETATM   27  N   UNL     1       7.801  29.935  59.172  1.00  0.00    -0.365 N 
HETATM   28  H   UNL     1       7.341  30.837  59.161  1.00  0.00     0.159 HD
HETATM   29  H   UNL     1       8.512  29.712  59.851  1.00  0.00     0.159 HD
HETATM   30  O   UNL     1       8.062  27.945  58.133  1.00  0.00    -0.266 OA
ENDBRANCH   8  26
TORSDOF 5
ENDMDL
MODEL 4
REMARK VINA RESULT:      -9.5      1.807      2.835
REMARK  5 active torsions:
REMARK  status: ('A' for Active; 'I' for Inactive)
REMARK    1  A    between atoms: C_2  and  C_3 
REMARK    2  A    between atoms: C_3  and  C_4 
REMARK       I    between atoms: C_4  and  N_5 
REMARK    3  A    between atoms: N_5  and  C_6 
REMARK    4  A    between atoms: C_13  and  C_14 
REMARK       I    between atoms: C_14  and  N_15 
REMARK    5  A    between atoms: C_22  and  C_23 
ROOT
HETATM    1  C   UNL     1       7.427  27.732  55.742  1.00  0.00     0.035 A 
HETATM    2  C   UNL     1       8.448  28.531  56.277  1.00  0.00     0.046 A 
HETATM    3  C   UNL     1       8.149  29.440  57.313  1.00  0.00     0.030 A 
HETATM    4  C   UNL     1       6.852  29.488  57.809  1.00  0.00     0.063 A 
HETATM    5  N   UNL     1       6.874  30.449  58.782  1.00  0.00    -0.277 N 
HETATM    6  H   UNL     1       6.100  30.755  59.361  1.00  0.00     0.189 HD
HETATM    7  N   UNL     1       8.063  31.054  58.942  1.00  0.00    -0.168 NA
HETATM    8  C   UNL     1       8.863  30.441  58.038  1.00  0.00     0.156 A 
HETATM    9  C   UNL     1       5.820  28.681  57.324  1.00  0.00     0.034 A 
HETATM   10  C   UNL     1       6.133  27.813  56.268  1.00  0.00     0.032 A 
ENDROOT
BRANCH   1  11
HETATM   11  N   UNL     1       7.621  26.918  54.604  1.00  0.00    -0.327 N 
HETATM   12  C   UNL     1       6.962  27.042  53.393  1.00  0.00     0.226 C 
HETATM   13  O   UNL     1       6.477  28.078  52.947  1.00  0.00    -0.273 OA
HETATM   14  H   UNL     1       8.286  26.160  54.692  1.00  0.00     0.169 HD
BRANCH  12  15
HETATM   15  C   UNL     1       6.837  25.724  52.649  1.00  0.00     0.141 C 
BRANCH  15  16
HETATM   16  C   UNL     1       7.311  24.489  53.373  1.00  0.00    -0.049 A 
HETATM   17  C   UNL     1       6.770  24.190  54.633  1.00  0.00     0.008 A 
HETATM   18  C   UNL     1       7.079  22.992  55.279  1.00  0.00     0.017 A 
HETATM   19  C   UNL     1       7.934  22.059  54.680  1.00  0.00     0.047 A 
HETATM   20  C   UNL     1       8.477  22.356  53.420  1.00  0.00     0.017 A 
HETATM   21  C   UNL     1       8.166  23.557  52.772  1.00  0.00     0.008 A 
BRANCH  19  22
HETATM   22  C   UNL     1       8.204  20.735  55.348  1.00  0.00     0.417 C 
HETATM   23  F   UNL     1       9.309  20.744  56.143  1.00  0.00    -0.166 F 
HETATM   24  F   UNL     1       7.177  20.324  56.146  1.00  0.00    -0.166 F 
HETATM   25  F   UNL     1       8.398  19.731  54.448  1.00  0.00    -0.166 F 
ENDBRANCH  19  22
ENDBRANCH  15  16
ENDBRANCH  12  15
ENDBRANCH   1  11
BRANCH   8  26
HETATM   26  C   UNL     1      10.266  30.840  57.864  1.00  0.00     0.270 C 
HETATM   27  N   UNL     1      11.080  29.839  57.408  1.00  0.00    -0.365 N 
HETATM   28  H   UNL     1      10.680  28.922  57.250  1.00  0.00     0.159 HD
HETATM   29  H   UNL     1      12.066  30.013  57.294  1.00  0.00     0.159 HD
HETATM   30  O   UNL     1      10.713  31.955  58.114  1.00  0.00    -0.266 OA
ENDBRANCH   8  26
TORSDOF 5
ENDMDL
MODEL 5
REMARK VINA RESULT:      -9.4      5.720      7.359
REMARK  5 active torsions:
REMARK  status: ('A' for Active; 'I' for Inactive)
REMARK    1  A    between atoms: C_2  and  C_3 
REMARK    2  A    between atoms: C_3  and  C_4 
REMARK       I    between atoms: C_4  and  N_5 
REMARK    3  A    between atoms: N_5  and  C_6 
REMARK    4  A    between atoms: C_13  and  C_14 
REMARK       I    between atoms: C_14  and  N_15 
REMARK    5  A    between atoms: C_22  and  C_23 
ROOT
HETATM    1  C   UNL     1       4.854  26.789  50.274  1.00  0.00     0.035 A 
HETATM    2  C   UNL     1       4.468  27.963  50.936  1.00  0.00     0.046 A 
HETATM    3  C   UNL     1       3.461  28.779  50.378  1.00  0.00     0.030 A 
HETATM    4  C   UNL     1       2.845  28.371  49.201  1.00  0.00     0.063 A 
HETATM    5  N   UNL     1       1.936  29.351  48.913  1.00  0.00    -0.277 N 
HETATM    6  H   UNL     1       1.302  29.388  48.123  1.00  0.00     0.189 HD
HETATM    7  N   UNL     1       1.927  30.377  49.780  1.00  0.00    -0.168 NA
HETATM    8  C   UNL     1       2.868  30.038  50.693  1.00  0.00     0.156 A 
HETATM    9  C   UNL     1       3.179  27.190  48.535  1.00  0.00     0.034 A 
HETATM   10  C   UNL     1       4.209  26.416  49.089  1.00  0.00     0.032 A 
ENDROOT
BRANCH   1  11
HETATM   11  N   UNL     1       5.956  26.012  50.691  1.00  0.00    -0.327 N 
HETATM   12  C   UNL     1       6.052  25.308  51.880  1.00  0.00     0.226 C 
HETATM   13  O   UNL     1       5.107  24.868  52.527  1.00  0.00    -0.273 OA
HETATM   14  H   UNL     1       6.759  25.987  50.074  1.00  0.00     0.169 HD
BRANCH  12  15
HETATM   15  C   UNL     1       7.483  25.163  52.368  1.00  0.00     0.141 C 
BRANCH  15  16
HETATM   16  C   UNL     1       7.766  24.016  53.306  1.00  0.00    -0.049 A 
HETATM   17  C   UNL     1       7.775  24.256  54.689  1.00  0.00     0.008 A 
HETATM   18  C   UNL     1       7.900  23.203  55.598  1.00  0.00     0.017 A 
HETATM   19  C   UNL     1       8.015  21.883  55.146  1.00  0.00     0.047 A 
HETATM   20  C   UNL     1       8.007  21.640  53.765  1.00  0.00     0.017 A 
HETATM   21  C   UNL     1       7.881  22.696  52.854  1.00  0.00     0.008 A 
BRANCH  19  22
HETATM   22  C   UNL     1       8.074  20.744  56.134  1.00  0.00     0.417 C 
HETATM   23  F   UNL     1       8.449  21.131  57.385  1.00  0.00    -0.166 F 
HETATM   24  F   UNL     1       6.876  20.111  56.286  1.00  0.00    -0.166 F 
HETATM   25  F   UNL     1       8.959  19.779  55.759  1.00  0.00    -0.166 F 
ENDBRANCH  19  22
ENDBRANCH  15  16
ENDBRANCH  12  15
ENDBRANCH   1  11
BRANCH   8  26
HETATM   26  C   UNL     1       3.200  30.927  51.815  1.00  0.00     0.270 C 
HETATM   27  N   UNL     1       2.870  30.424  53.044  1.00  0.00    -0.365 N 
HETATM   28  H   UNL     1       2.415  29.520  53.092  1.00  0.00     0.159 HD
HETATM   29  H   UNL     1       3.029  30.981  53.869  1.00  0.00     0.159 HD
HETATM   30  O   UNL     1       3.710  32.036  51.702  1.00  0.00    -0.266 OA
ENDBRANCH   8  26
TORSDOF 5
ENDMDL
MODEL 6
REMARK VINA RESULT:      -9.4      7.157     10.635
REMARK  5 active torsions:
REMARK  status: ('A' for Active; 'I' for Inactive)
REMARK    1  A    between atoms: C_2  and  C_3 
REMARK    2  A    between atoms: C_3  and  C_4 
REMARK       I    between atoms: C_4  and  N_5 
REMARK    3  A    between atoms: N_5  and  C_6 
REMARK    4  A    between atoms: C_13  and  C_14 
REMARK       I    between atoms: C_14  and  N_15 
REMARK    5  A    between atoms: C_22  and  C_23 
ROOT
HETATM    1  C   UNL     1       7.970  29.910  58.562  1.00  0.00     0.035 A 
HETATM    2  C   UNL     1       6.862  29.455  57.832  1.00  0.00     0.046 A 
HETATM    3  C   UNL     1       7.033  29.038  56.495  1.00  0.00     0.030 A 
HETATM    4  C   UNL     1       8.310  29.049  55.948  1.00  0.00     0.063 A 
HETATM    5  N   UNL     1       8.155  28.605  54.664  1.00  0.00    -0.277 N 
HETATM    6  H   UNL     1       8.879  28.483  53.965  1.00  0.00     0.189 HD
HETATM    7  N   UNL     1       6.886  28.337  54.316  1.00  0.00    -0.168 NA
HETATM    8  C   UNL     1       6.178  28.601  55.439  1.00  0.00     0.156 A 
HETATM    9  C   UNL     1       9.440  29.461  56.658  1.00  0.00     0.034 A 
HETATM   10  C   UNL     1       9.239  29.907  57.972  1.00  0.00     0.032 A 
ENDROOT
BRANCH   1  11
HETATM   11  N   UNL     1       7.846  30.485  59.845  1.00  0.00    -0.327 N 
HETATM   12  C   UNL     1       8.402  31.685  60.257  1.00  0.00     0.226 C 
HETATM   13  O   UNL     1       8.682  32.630  59.526  1.00  0.00    -0.273 OA
HETATM   14  H   UNL     1       7.320  29.960  60.533  1.00  0.00     0.169 HD
BRANCH  12  15
HETATM   15  C   UNL     1       8.698  31.720  61.746  1.00  0.00     0.141 C 
BRANCH  15  16
HETATM   16  C   UNL     1       7.715  32.464  62.615  1.00  0.00    -0.049 A 
HETATM   17  C   UNL     1       6.398  32.632  62.161  1.00  0.00     0.008 A 
HETATM   18  C   UNL     1       5.422  33.195  62.986  1.00  0.00     0.017 A 
HETATM   19  C   UNL     1       5.738  33.600  64.288  1.00  0.00     0.047 A 
HETATM   20  C   UNL     1       7.055  33.434  64.745  1.00  0.00     0.017 A 
HETATM   21  C   UNL     1       8.032  32.869  63.918  1.00  0.00     0.008 A 
BRANCH  19  22
HETATM   22  C   UNL     1       4.663  34.137  65.200  1.00  0.00     0.417 C 
HETATM   23  F   UNL     1       4.831  35.450  65.521  1.00  0.00    -0.166 F 
HETATM   24  F   UNL     1       3.414  34.045  64.660  1.00  0.00    -0.166 F 
HETATM   25  F   UNL     1       4.606  33.466  66.384  1.00  0.00    -0.166 F 
ENDBRANCH  19  22
ENDBRANCH  15  16
ENDBRANCH  12  15
ENDBRANCH   1  11
BRANCH   8  26
HETATM   26  C   UNL     1       4.716  28.464  55.472  1.00  0.00     0.270 C 
HETATM   27  N   UNL     1       4.264  27.489  56.318  1.00  0.00    -0.365 N 
HETATM   28  H   UNL     1       4.942  26.934  56.826  1.00  0.00     0.159 HD
HETATM   29  H   UNL     1       3.275  27.301  56.378  1.00  0.00     0.159 HD
HETATM   30  O   UNL     1       3.935  29.132  54.801  1.00  0.00    -0.266 OA
ENDBRANCH   8  26
TORSDOF 5
ENDMDL
MODEL 7
REMARK VINA RESULT:      -9.2      3.422      4.155
REMARK  5 active torsions:
REMARK  status: ('A' for Active; 'I' for Inactive)
REMARK    1  A    between atoms: C_2  and  C_3 
REMARK    2  A    between atoms: C_3  and  C_4 
REMARK       I    between atoms: C_4  and  N_5 
REMARK    3  A    between atoms: N_5  and  C_6 
REMARK    4  A    between atoms: C_13  and  C_14 
REMARK       I    between atoms: C_14  and  N_15 
REMARK    5  A    between atoms: C_22  and  C_23 
ROOT
HETATM    1  C   UNL     1       5.980  28.244  54.980  1.00  0.00     0.035 A 
HETATM    2  C   UNL     1       5.063  29.300  54.869  1.00  0.00     0.046 A 
HETATM    3  C   UNL     1       4.484  29.844  56.035  1.00  0.00     0.030 A 
HETATM    4  C   UNL     1       4.872  29.345  57.272  1.00  0.00     0.063 A 
HETATM    5  N   UNL     1       4.148  30.054  58.190  1.00  0.00    -0.277 N 
HETATM    6  H   UNL     1       4.174  29.958  59.199  1.00  0.00     0.189 HD
HETATM    7  N   UNL     1       3.298  30.949  57.660  1.00  0.00    -0.168 NA
HETATM    8  C   UNL     1       3.493  30.830  56.326  1.00  0.00     0.156 A 
HETATM    9  C   UNL     1       5.809  28.319  57.420  1.00  0.00     0.034 A 
HETATM   10  C   UNL     1       6.342  27.769  56.245  1.00  0.00     0.032 A 
ENDROOT
BRANCH   1  11
HETATM   11  N   UNL     1       6.476  27.553  53.854  1.00  0.00    -0.327 N 
HETATM   12  C   UNL     1       5.929  26.411  53.294  1.00  0.00     0.226 C 
HETATM   13  O   UNL     1       4.750  26.078  53.359  1.00  0.00    -0.273 OA
HETATM   14  H   UNL     1       7.323  27.913  53.432  1.00  0.00     0.169 HD
BRANCH  12  15
HETATM   15  C   UNL     1       6.962  25.537  52.604  1.00  0.00     0.141 C 
BRANCH  15  16
HETATM   16  C   UNL     1       7.408  24.301  53.345  1.00  0.00    -0.049 A 
HETATM   17  C   UNL     1       7.318  24.279  54.745  1.00  0.00     0.008 A 
HETATM   18  C   UNL     1       7.593  23.113  55.463  1.00  0.00     0.017 A 
HETATM   19  C   UNL     1       7.963  21.938  54.796  1.00  0.00     0.047 A 
HETATM   20  C   UNL     1       8.054  21.958  53.397  1.00  0.00     0.017 A 
HETATM   21  C   UNL     1       7.777  23.126  52.678  1.00  0.00     0.008 A 
BRANCH  19  22
HETATM   22  C   UNL     1       8.185  20.663  55.571  1.00  0.00     0.417 C 
HETATM   23  F   UNL     1       9.106  20.788  56.566  1.00  0.00    -0.166 F 
HETATM   24  F   UNL     1       7.051  20.202  56.172  1.00  0.00    -0.166 F 
HETATM   25  F   UNL     1       8.624  19.646  54.778  1.00  0.00    -0.166 F 
ENDBRANCH  19  22
ENDBRANCH  15  16
ENDBRANCH  12  15
ENDBRANCH   1  11
BRANCH   8  26
HETATM   26  C   UNL     1       2.718  31.627  55.365  1.00  0.00     0.270 C 
HETATM   27  N   UNL     1       3.421  32.005  54.254  1.00  0.00    -0.365 N 
HETATM   28  H   UNL     1       4.396  31.739  54.183  1.00  0.00     0.159 HD
HETATM   29  H   UNL     1       2.979  32.584  53.558  1.00  0.00     0.159 HD
HETATM   30  O   UNL     1       1.548  31.963  55.518  1.00  0.00    -0.266 OA
ENDBRANCH   8  26
TORSDOF 5
ENDMDL
MODEL 8
REMARK VINA RESULT:      -9.2      1.599      2.022
REMARK  5 active torsions:
REMARK  status: ('A' for Active; 'I' for Inactive)
REMARK    1  A    between atoms: C_2  and  C_3 
REMARK    2  A    between atoms: C_3  and  C_4 
REMARK       I    between atoms: C_4  and  N_5 
REMARK    3  A    between atoms: N_5  and  C_6 
REMARK    4  A    between atoms: C_13  and  C_14 
REMARK       I    between atoms: C_14  and  N_15 
REMARK    5  A    between atoms: C_22  and  C_23 
ROOT
HETATM    1  C   UNL     1       7.527  28.605  56.652  1.00  0.00     0.035 A 
HETATM    2  C   UNL     1       6.423  29.405  56.984  1.00  0.00     0.046 A 
HETATM    3  C   UNL     1       6.574  30.440  57.931  1.00  0.00     0.030 A 
HETATM    4  C   UNL     1       7.830  30.669  58.480  1.00  0.00     0.063 A 
HETATM    5  N   UNL     1       7.658  31.711  59.349  1.00  0.00    -0.277 N 
HETATM    6  H   UNL     1       8.364  32.150  59.928  1.00  0.00     0.189 HD
HETATM    7  N   UNL     1       6.395  32.160  59.439  1.00  0.00    -0.168 NA
HETATM    8  C   UNL     1       5.711  31.382  58.568  1.00  0.00     0.156 A 
HETATM    9  C   UNL     1       8.957  29.916  58.144  1.00  0.00     0.034 A 
HETATM   10  C   UNL     1       8.774  28.868  57.230  1.00  0.00     0.032 A 
ENDROOT
BRANCH   1  11
HETATM   11  N   UNL     1       7.412  27.460  55.835  1.00  0.00    -0.327 N 
HETATM   12  C   UNL     1       7.443  27.441  54.451  1.00  0.00     0.226 C 
HETATM   13  O   UNL     1       8.003  28.268  53.738  1.00  0.00    -0.273 OA
HETATM   14  H   UNL     1       7.272  26.574  56.306  1.00  0.00     0.169 HD
BRANCH  12  15
HETATM   15  C   UNL     1       6.649  26.290  53.857  1.00  0.00     0.141 C 
BRANCH  15  16
HETATM   16  C   UNL     1       7.233  24.909  54.017  1.00  0.00    -0.049 A 
HETATM   17  C   UNL     1       7.063  24.237  55.238  1.00  0.00     0.008 A 
HETATM   18  C   UNL     1       7.468  22.909  55.387  1.00  0.00     0.017 A 
HETATM   19  C   UNL     1       8.051  22.218  54.318  1.00  0.00     0.047 A 
HETATM   20  C   UNL     1       8.224  22.888  53.098  1.00  0.00     0.017 A 
HETATM   21  C   UNL     1       7.816  24.218  52.948  1.00  0.00     0.008 A 
BRANCH  19  22
HETATM   22  C   UNL     1       8.418  20.763  54.463  1.00  0.00     0.417 C 
HETATM   23  F   UNL     1       7.416  20.002  54.987  1.00  0.00    -0.166 F 
HETATM   24  F   UNL     1       8.747  20.176  53.277  1.00  0.00    -0.166 F 
HETATM   25  F   UNL     1       9.493  20.578  55.279  1.00  0.00    -0.166 F 
ENDBRANCH  19  22
ENDBRANCH  15  16
ENDBRANCH  12  15
ENDBRANCH   1  11
BRANCH   8  26
HETATM   26  C   UNL     1       4.260  31.530  58.386  1.00  0.00     0.270 C 
HETATM   27  N   UNL     1       3.523  30.507  58.918  1.00  0.00    -0.365 N 
HETATM   28  H   UNL     1       4.009  29.738  59.363  1.00  0.00     0.159 HD
HETATM   29  H   UNL     1       2.521  30.508  58.810  1.00  0.00     0.159 HD
HETATM   30  O   UNL     1       3.720  32.461  57.798  1.00  0.00    -0.266 OA
ENDBRANCH   8  26
TORSDOF 5
ENDMDL
MODEL 9
REMARK VINA RESULT:      -9.2      3.608      4.483
REMARK  5 active torsions:
REMARK  status: ('A' for Active; 'I' for Inactive)
REMARK    1  A    between atoms: C_2  and  C_3 
REMARK    2  A    between atoms: C_3  and  C_4 
REMARK       I    between atoms: C_4  and  N_5 
REMARK    3  A    between atoms: N_5  and  C_6 
REMARK    4  A    between atoms: C_13  and  C_14 
REMARK       I    between atoms: C_14  and  N_15 
REMARK    5  A    between atoms: C_22  and  C_23 
ROOT
HETATM    1  C   UNL     1       4.807  27.762  53.971  1.00  0.00     0.035 A 
HETATM    2  C   UNL     1       4.738  28.423  55.206  1.00  0.00     0.046 A 
HETATM    3  C   UNL     1       4.019  29.633  55.309  1.00  0.00     0.030 A 
HETATM    4  C   UNL     1       3.359  30.118  54.187  1.00  0.00     0.063 A 
HETATM    5  N   UNL     1       2.771  31.284  54.591  1.00  0.00    -0.277 N 
HETATM    6  H   UNL     1       2.202  31.911  54.033  1.00  0.00     0.189 HD
HETATM    7  N   UNL     1       3.015  31.618  55.869  1.00  0.00    -0.168 NA
HETATM    8  C   UNL     1       3.789  30.607  56.327  1.00  0.00     0.156 A 
HETATM    9  C   UNL     1       3.377  29.466  52.951  1.00  0.00     0.034 A 
HETATM   10  C   UNL     1       4.129  28.286  52.864  1.00  0.00     0.032 A 
ENDROOT
BRANCH   1  11
HETATM   11  N   UNL     1       5.632  26.637  53.760  1.00  0.00    -0.327 N 
HETATM   12  C   UNL     1       6.977  26.664  53.431  1.00  0.00     0.226 C 
HETATM   13  O   UNL     1       7.760  27.569  53.701  1.00  0.00    -0.273 OA
HETATM   14  H   UNL     1       5.194  25.727  53.835  1.00  0.00     0.169 HD
BRANCH  12  15
HETATM   15  C   UNL     1       7.414  25.452  52.626  1.00  0.00     0.141 C 
BRANCH  15  16
HETATM   16  C   UNL     1       7.738  24.202  53.405  1.00  0.00    -0.049 A 
HETATM   17  C   UNL     1       7.696  24.245  54.807  1.00  0.00     0.008 A 
HETATM   18  C   UNL     1       7.857  23.083  55.565  1.00  0.00     0.017 A 
HETATM   19  C   UNL     1       8.060  21.847  54.938  1.00  0.00     0.047 A 
HETATM   20  C   UNL     1       8.103  21.802  53.537  1.00  0.00     0.017 A 
HETATM   21  C   UNL     1       7.940  22.966  52.778  1.00  0.00     0.008 A 
BRANCH  19  22
HETATM   22  C   UNL     1       8.157  20.586  55.759  1.00  0.00     0.417 C 
HETATM   23  F   UNL     1       8.983  20.703  56.836  1.00  0.00    -0.166 F 
HETATM   24  F   UNL     1       6.954  20.182  56.258  1.00  0.00    -0.166 F 
HETATM   25  F   UNL     1       8.632  19.533  55.037  1.00  0.00    -0.166 F 
ENDBRANCH  19  22
ENDBRANCH  15  16
ENDBRANCH  12  15
ENDBRANCH   1  11
BRANCH   8  26
HETATM   26  C   UNL     1       4.313  30.605  57.700  1.00  0.00     0.270 C 
HETATM   27  N   UNL     1       3.386  30.278  58.652  1.00  0.00    -0.365 N 
HETATM   28  H   UNL     1       2.435  30.090  58.360  1.00  0.00     0.159 HD
HETATM   29  H   UNL     1       3.649  30.286  59.625  1.00  0.00     0.159 HD
HETATM   30  O   UNL     1       5.466  30.885  58.009  1.00  0.00    -0.266 OA
ENDBRANCH   8  26
TORSDOF 5
ENDMDL
MODEL 10
REMARK VINA RESULT:      -8.9      9.917     13.491
REMARK  5 active torsions:
REMARK  status: ('A' for Active; 'I' for Inactive)
REMARK    1  A    between atoms: C_2  and  C_3 
REMARK    2  A    between atoms: C_3  and  C_4 
REMARK       I    between atoms: C_4  and  N_5 
REMARK    3  A    between atoms: N_5  and  C_6 
REMARK    4  A    between atoms: C_13  and  C_14 
REMARK       I    between atoms: C_14  and  N_15 
REMARK    5  A    between atoms: C_22  and  C_23 
ROOT
HETATM    1  C   UNL     1       6.515  35.286  68.957  1.00  0.00     0.035 A 
HETATM    2  C   UNL     1       6.502  34.024  69.568  1.00  0.00     0.046 A 
HETATM    3  C   UNL     1       7.287  33.798  70.718  1.00  0.00     0.030 A 
HETATM    4  C   UNL     1       8.025  34.853  71.243  1.00  0.00     0.063 A 
HETATM    5  N   UNL     1       8.673  34.333  72.329  1.00  0.00    -0.277 N 
HETATM    6  H   UNL     1       9.303  34.818  72.958  1.00  0.00     0.189 HD
HETATM    7  N   UNL     1       8.448  33.025  72.540  1.00  0.00    -0.168 NA
HETATM    8  C   UNL     1       7.593  32.679  71.550  1.00  0.00     0.156 A 
HETATM    9  C   UNL     1       8.033  36.131  70.680  1.00  0.00     0.034 A 
HETATM   10  C   UNL     1       7.275  36.320  69.516  1.00  0.00     0.032 A 
ENDROOT
BRANCH   1  11
HETATM   11  N   UNL     1       5.879  35.535  67.722  1.00  0.00    -0.327 N 
HETATM   12  C   UNL     1       4.939  34.722  67.112  1.00  0.00     0.226 C 
HETATM   13  O   UNL     1       4.187  33.943  67.690  1.00  0.00    -0.273 OA
HETATM   14  H   UNL     1       6.154  36.375  67.227  1.00  0.00     0.169 HD
BRANCH  12  15
HETATM   15  C   UNL     1       4.947  34.840  65.598  1.00  0.00     0.141 C 
BRANCH  15  16
HETATM   16  C   UNL     1       5.819  33.865  64.847  1.00  0.00    -0.049 A 
HETATM   17  C   UNL     1       5.229  33.024  63.890  1.00  0.00     0.008 A 
HETATM   18  C   UNL     1       6.013  32.203  63.078  1.00  0.00     0.017 A 
HETATM   19  C   UNL     1       7.408  32.202  63.201  1.00  0.00     0.047 A 
HETATM   20  C   UNL     1       8.000  33.041  64.158  1.00  0.00     0.017 A 
HETATM   21  C   UNL     1       7.214  33.865  64.970  1.00  0.00     0.008 A 
BRANCH  19  22
HETATM   22  C   UNL     1       8.253  31.369  62.270  1.00  0.00     0.417 C 
HETATM   23  F   UNL     1       9.360  32.019  61.816  1.00  0.00    -0.166 F 
HETATM   24  F   UNL     1       8.709  30.222  62.849  1.00  0.00    -0.166 F 
HETATM   25  F   UNL     1       7.568  30.977  61.160  1.00  0.00    -0.166 F 
ENDBRANCH  19  22
ENDBRANCH  15  16
ENDBRANCH  12  15
ENDBRANCH   1  11
BRANCH   8  26
HETATM   26  C   UNL     1       7.115  31.298  71.399  1.00  0.00     0.270 C 
HETATM   27  N   UNL     1       6.022  31.169  70.586  1.00  0.00    -0.365 N 
HETATM   28  H   UNL     1       5.620  32.004  70.178  1.00  0.00     0.159 HD
HETATM   29  H   UNL     1       5.605  30.261  70.454  1.00  0.00     0.159 HD
HETATM   30  O   UNL     1       7.611  30.322  71.953  1.00  0.00    -0.266 OA
ENDBRANCH   8  26
TORSDOF 5
ENDMDL
