MODEL 1
REMARK VINA RESULT:      -9.7      0.000      0.000
REMARK  5 active torsions:
REMARK  status: ('A' for Active; 'I' for Inactive)
REMARK    1  A    between atoms: C_2  and  O_3 
REMARK    2  A    between atoms: O_3  and  C_4 
REMARK    3  A    between atoms: C_5  and  C_6 
REMARK    4  A    between atoms: C_7  and  C_8 
REMARK       I    between atoms: C_8  and  N_9 
REMARK    5  A    between atoms: N_9  and  C_10 
ROOT
HETATM    1  C   UNL     1       7.498  28.704  58.102  1.00  0.00     0.041 C 
HETATM    2  C   UNL     1       8.496  29.612  58.075  1.00  0.00     0.099 C 
HETATM    3  C   UNL     1       9.686  29.466  57.140  1.00  0.00     0.025 C 
HETATM    4  N   UNL     1      10.674  29.344  56.366  1.00  0.00    -0.096 N 
ENDROOT
BRANCH   2   5
HETATM    5  C   UNL     1       8.390  30.818  58.970  1.00  0.00     0.265 C 
HETATM    6  N   UNL     1       7.555  30.670  60.065  1.00  0.00    -0.321 N 
HETATM    7  H   UNL     1       7.263  29.730  60.292  1.00  0.00     0.169 HD
HETATM    8  O   UNL     1       9.086  31.806  58.739  1.00  0.00    -0.267 OA
BRANCH   6   9
HETATM    9  C   UNL     1       7.360  31.611  61.115  1.00  0.00     0.047 A 
HETATM   10  C   UNL     1       6.440  32.681  61.062  1.00  0.00    -0.035 A 
HETATM   11  C   UNL     1       5.433  32.901  59.965  1.00  0.00     0.050 C 
HETATM   12  C   UNL     1       6.397  33.602  62.129  1.00  0.00     0.009 A 
HETATM   13  C   UNL     1       7.187  33.437  63.259  1.00  0.00     0.001 A 
HETATM   14  C   UNL     1       8.032  32.340  63.351  1.00  0.00     0.009 A 
HETATM   15  C   UNL     1       8.128  31.418  62.294  1.00  0.00    -0.035 A 
HETATM   16  C   UNL     1       9.092  30.270  62.457  1.00  0.00     0.050 C 
ENDBRANCH   6   9
ENDBRANCH   2   5
BRANCH   1  17
HETATM   17  C   UNL     1       7.289  27.519  57.231  1.00  0.00     0.002 A 
HETATM   18  C   UNL     1       6.815  27.719  55.900  1.00  0.00     0.079 A 
HETATM   19  C   UNL     1       6.614  26.633  55.034  1.00  0.00     0.047 A 
HETATM   20  C   UNL     1       6.949  25.371  55.480  1.00  0.00    -0.020 A 
HETATM   21  C   UNL     1       7.406  25.173  56.770  1.00  0.00     0.076 A 
HETATM   22  C   UNL     1       6.856  24.064  54.791  1.00  0.00     0.073 C 
HETATM   23  C   UNL     1       7.543  26.210  57.671  1.00  0.00     0.051 A 
HETATM   24  O   UNL     1       7.720  23.865  57.044  1.00  0.00    -0.345 OA
HETATM   25  C   UNL     1       7.731  23.228  55.738  1.00  0.00     0.129 C 
HETATM   26  C   UNL     1       9.178  23.113  55.253  1.00  0.00     0.040 C 
BRANCH  18  27
HETATM   27  O   UNL     1       6.555  29.019  55.537  1.00  0.00    -0.351 OA
BRANCH  27  28
HETATM   28  C   UNL     1       5.264  29.291  54.993  1.00  0.00     0.171 C 
HETATM   29  C   UNL     1       4.279  29.340  56.147  1.00  0.00     0.034 C 
ENDBRANCH  27  28
ENDBRANCH  18  27
ENDBRANCH   1  17
TORSDOF 5
ENDMDL
MODEL 2
REMARK VINA RESULT:      -9.3      2.121      8.612
REMARK  5 active torsions:
REMARK  status: ('A' for Active; 'I' for Inactive)
REMARK    1  A    between atoms: C_2  and  O_3 
REMARK    2  A    between atoms: O_3  and  C_4 
REMARK    3  A    between atoms: C_5  and  C_6 
REMARK    4  A    between atoms: C_7  and  C_8 
REMARK       I    between atoms: C_8  and  N_9 
REMARK    5  A    between atoms: N_9  and  C_10 
ROOT
HETATM    1  C   UNL     1       6.648  27.127  57.028  1.00  0.00     0.041 C 
HETATM    2  C   UNL     1       7.020  26.665  55.815  1.00  0.00     0.099 C 
HETATM    3  C   UNL     1       7.666  27.569  54.778  1.00  0.00     0.025 C 
HETATM    4  N   UNL     1       8.201  28.318  53.916  1.00  0.00    -0.096 N 
ENDROOT
BRANCH   2   5
HETATM    5  C   UNL     1       6.822  25.202  55.516  1.00  0.00     0.265 C 
HETATM    6  N   UNL     1       7.922  24.555  54.977  1.00  0.00    -0.321 N 
HETATM    7  H   UNL     1       8.807  25.041  55.028  1.00  0.00     0.169 HD
HETATM    8  O   UNL     1       5.764  24.659  55.829  1.00  0.00    -0.267 OA
BRANCH   6   9
HETATM    9  C   UNL     1       8.035  23.164  54.703  1.00  0.00     0.047 A 
HETATM   10  C   UNL     1       8.271  22.176  55.685  1.00  0.00    -0.035 A 
HETATM   11  C   UNL     1       8.290  22.424  57.170  1.00  0.00     0.050 C 
HETATM   12  C   UNL     1       8.452  20.838  55.284  1.00  0.00     0.009 A 
HETATM   13  C   UNL     1       8.332  20.459  53.952  1.00  0.00     0.001 A 
HETATM   14  C   UNL     1       8.017  21.413  52.994  1.00  0.00     0.009 A 
HETATM   15  C   UNL     1       7.862  22.764  53.351  1.00  0.00    -0.035 A 
HETATM   16  C   UNL     1       7.551  23.744  52.248  1.00  0.00     0.050 C 
ENDBRANCH   6   9
ENDBRANCH   2   5
BRANCH   1  17
HETATM   17  C   UNL     1       6.863  28.472  57.621  1.00  0.00     0.002 A 
HETATM   18  C   UNL     1       5.814  29.436  57.535  1.00  0.00     0.079 A 
HETATM   19  C   UNL     1       5.963  30.717  58.090  1.00  0.00     0.047 A 
HETATM   20  C   UNL     1       7.125  30.999  58.778  1.00  0.00    -0.020 A 
HETATM   21  C   UNL     1       8.144  30.068  58.861  1.00  0.00     0.076 A 
HETATM   22  C   UNL     1       7.544  32.242  59.466  1.00  0.00     0.073 C 
HETATM   23  C   UNL     1       8.060  28.828  58.262  1.00  0.00     0.051 A 
HETATM   24  O   UNL     1       9.216  30.496  59.604  1.00  0.00    -0.345 OA
HETATM   25  C   UNL     1       8.720  31.682  60.281  1.00  0.00     0.129 C 
HETATM   26  C   UNL     1       8.320  31.308  61.710  1.00  0.00     0.040 C 
BRANCH  18  27
HETATM   27  O   UNL     1       4.679  29.041  56.868  1.00  0.00    -0.351 OA
BRANCH  27  28
HETATM   28  C   UNL     1       4.311  29.797  55.715  1.00  0.00     0.171 C 
HETATM   29  C   UNL     1       4.178  28.831  54.553  1.00  0.00     0.034 C 
ENDBRANCH  27  28
ENDBRANCH  18  27
ENDBRANCH   1  17
TORSDOF 5
ENDMDL
MODEL 3
REMARK VINA RESULT:      -9.3      1.149      2.122
REMARK  5 active torsions:
REMARK  status: ('A' for Active; 'I' for Inactive)
REMARK    1  A    between atoms: C_2  and  O_3 
REMARK    2  A    between atoms: O_3  and  C_4 
REMARK    3  A    between atoms: C_5  and  C_6 
REMARK    4  A    between atoms: C_7  and  C_8 
REMARK       I    between atoms: C_8  and  N_9 
REMARK    5  A    between atoms: N_9  and  C_10 
ROOT
HETATM    1  C   UNL     1       7.187  28.901  57.670  1.00  0.00     0.041 C 
HETATM    2  C   UNL     1       8.236  29.748  57.616  1.00  0.00     0.099 C 
HETATM    3  C   UNL     1       9.273  29.670  56.506  1.00  0.00     0.025 C 
HETATM    4  N   UNL     1      10.133  29.604  55.587  1.00  0.00    -0.096 N 
ENDROOT
BRANCH   2   5
HETATM    5  C   UNL     1       8.344  30.821  58.667  1.00  0.00     0.265 C 
HETATM    6  N   UNL     1       7.504  30.667  59.757  1.00  0.00    -0.321 N 
HETATM    7  H   UNL     1       7.058  29.766  59.866  1.00  0.00     0.169 HD
HETATM    8  O   UNL     1       9.196  31.700  58.549  1.00  0.00    -0.267 OA
BRANCH   6   9
HETATM    9  C   UNL     1       7.480  31.473  60.929  1.00  0.00     0.047 A 
HETATM   10  C   UNL     1       8.340  31.294  62.035  1.00  0.00    -0.035 A 
HETATM   11  C   UNL     1       9.497  30.332  62.082  1.00  0.00     0.050 C 
HETATM   12  C   UNL     1       8.165  32.100  63.179  1.00  0.00     0.009 A 
HETATM   13  C   UNL     1       7.214  33.112  63.212  1.00  0.00     0.001 A 
HETATM   14  C   UNL     1       6.423  33.346  62.095  1.00  0.00     0.009 A 
HETATM   15  C   UNL     1       6.545  32.542  60.949  1.00  0.00    -0.035 A 
HETATM   16  C   UNL     1       5.628  32.840  59.789  1.00  0.00     0.050 C 
ENDBRANCH   6   9
ENDBRANCH   2   5
BRANCH   1  17
HETATM   17  C   UNL     1       6.774  27.863  56.691  1.00  0.00     0.002 A 
HETATM   18  C   UNL     1       5.532  28.019  56.006  1.00  0.00     0.079 A 
HETATM   19  C   UNL     1       5.102  27.073  55.063  1.00  0.00     0.047 A 
HETATM   20  C   UNL     1       5.943  26.019  54.766  1.00  0.00    -0.020 A 
HETATM   21  C   UNL     1       7.146  25.863  55.430  1.00  0.00     0.076 A 
HETATM   22  C   UNL     1       5.760  24.895  53.819  1.00  0.00     0.073 C 
HETATM   23  C   UNL     1       7.562  26.735  56.416  1.00  0.00     0.051 A 
HETATM   24  O   UNL     1       7.873  24.782  54.996  1.00  0.00    -0.345 OA
HETATM   25  C   UNL     1       7.209  24.385  53.767  1.00  0.00     0.129 C 
HETATM   26  C   UNL     1       7.987  24.950  52.576  1.00  0.00     0.040 C 
BRANCH  18  27
HETATM   27  O   UNL     1       4.789  29.127  56.340  1.00  0.00    -0.351 OA
BRANCH  27  28
HETATM   28  C   UNL     1       4.622  30.121  55.330  1.00  0.00     0.171 C 
HETATM   29  C   UNL     1       4.997  31.461  55.935  1.00  0.00     0.034 C 
ENDBRANCH  27  28
ENDBRANCH  18  27
ENDBRANCH   1  17
TORSDOF 5
ENDMDL
MODEL 4
REMARK VINA RESULT:      -9.2      1.967      8.244
REMARK  5 active torsions:
REMARK  status: ('A' for Active; 'I' for Inactive)
REMARK    1  A    between atoms: C_2  and  O_3 
REMARK    2  A    between atoms: O_3  and  C_4 
REMARK    3  A    between atoms: C_5  and  C_6 
REMARK    4  A    between atoms: C_7  and  C_8 
REMARK       I    between atoms: C_8  and  N_9 
REMARK    5  A    between atoms: N_9  and  C_10 
ROOT
HETATM    1  C   UNL     1       6.736  28.184  57.045  1.00  0.00     0.041 C 
HETATM    2  C   UNL     1       7.387  27.766  55.938  1.00  0.00     0.099 C 
HETATM    3  C   UNL     1       8.507  28.582  55.312  1.00  0.00     0.025 C 
HETATM    4  N   UNL     1       9.436  29.259  54.793  1.00  0.00    -0.096 N 
ENDROOT
BRANCH   2   5
HETATM    5  C   UNL     1       7.010  26.434  55.347  1.00  0.00     0.265 C 
HETATM    6  N   UNL     1       8.074  25.602  55.040  1.00  0.00    -0.321 N 
HETATM    7  H   UNL     1       8.975  25.852  55.423  1.00  0.00     0.169 HD
HETATM    8  O   UNL     1       5.823  26.130  55.247  1.00  0.00    -0.267 OA
BRANCH   6   9
HETATM    9  C   UNL     1       7.993  24.260  54.573  1.00  0.00     0.047 A 
HETATM   10  C   UNL     1       7.812  23.899  53.219  1.00  0.00    -0.035 A 
HETATM   11  C   UNL     1       7.826  24.860  52.060  1.00  0.00     0.050 C 
HETATM   12  C   UNL     1       7.658  22.538  52.886  1.00  0.00     0.009 A 
HETATM   13  C   UNL     1       7.753  21.542  53.850  1.00  0.00     0.001 A 
HETATM   14  C   UNL     1       8.014  21.888  55.169  1.00  0.00     0.009 A 
HETATM   15  C   UNL     1       8.140  23.236  55.545  1.00  0.00    -0.035 A 
HETATM   16  C   UNL     1       8.393  23.531  57.003  1.00  0.00     0.050 C 
ENDBRANCH   6   9
ENDBRANCH   2   5
BRANCH   1  17
HETATM   17  C   UNL     1       7.008  29.370  57.896  1.00  0.00     0.002 A 
HETATM   18  C   UNL     1       6.072  30.448  57.892  1.00  0.00     0.079 A 
HETATM   19  C   UNL     1       6.276  31.586  58.688  1.00  0.00     0.047 A 
HETATM   20  C   UNL     1       7.374  31.608  59.525  1.00  0.00    -0.020 A 
HETATM   21  C   UNL     1       8.284  30.567  59.529  1.00  0.00     0.076 A 
HETATM   22  C   UNL     1       7.826  32.655  60.470  1.00  0.00     0.073 C 
HETATM   23  C   UNL     1       8.151  29.469  58.704  1.00  0.00     0.051 A 
HETATM   24  O   UNL     1       9.299  30.733  60.438  1.00  0.00    -0.345 OA
HETATM   25  C   UNL     1       8.843  31.830  61.274  1.00  0.00     0.129 C 
HETATM   26  C   UNL     1       8.248  31.259  62.564  1.00  0.00     0.040 C 
BRANCH  18  27
HETATM   27  O   UNL     1       4.988  30.308  57.057  1.00  0.00    -0.351 OA
BRANCH  27  28
HETATM   28  C   UNL     1       4.973  31.112  55.879  1.00  0.00     0.171 C 
HETATM   29  C   UNL     1       4.552  30.226  54.721  1.00  0.00     0.034 C 
ENDBRANCH  27  28
ENDBRANCH  18  27
ENDBRANCH   1  17
TORSDOF 5
ENDMDL
MODEL 5
REMARK VINA RESULT:      -9.0      2.054      2.938
REMARK  5 active torsions:
REMARK  status: ('A' for Active; 'I' for Inactive)
REMARK    1  A    between atoms: C_2  and  O_3 
REMARK    2  A    between atoms: O_3  and  C_4 
REMARK    3  A    between atoms: C_5  and  C_6 
REMARK    4  A    between atoms: C_7  and  C_8 
REMARK       I    between atoms: C_8  and  N_9 
REMARK    5  A    between atoms: N_9  and  C_10 
ROOT
HETATM    1  C   UNL     1       6.944  30.036  57.962  1.00  0.00     0.041 C 
HETATM    2  C   UNL     1       6.240  31.187  57.952  1.00  0.00     0.099 C 
HETATM    3  C   UNL     1       5.438  31.625  56.737  1.00  0.00     0.025 C 
HETATM    4  N   UNL     1       4.773  31.989  55.729  1.00  0.00    -0.096 N 
ENDROOT
BRANCH   2   5
HETATM    5  C   UNL     1       6.225  32.027  59.202  1.00  0.00     0.265 C 
HETATM    6  N   UNL     1       6.579  31.363  60.365  1.00  0.00    -0.321 N 
HETATM    7  H   UNL     1       7.014  30.457  60.258  1.00  0.00     0.169 HD
HETATM    8  O   UNL     1       5.991  33.231  59.118  1.00  0.00    -0.267 OA
BRANCH   6   9
HETATM    9  C   UNL     1       6.746  31.942  61.654  1.00  0.00     0.047 A 
HETATM   10  C   UNL     1       5.680  32.344  62.489  1.00  0.00    -0.035 A 
HETATM   11  C   UNL     1       4.222  32.090  62.210  1.00  0.00     0.050 C 
HETATM   12  C   UNL     1       5.968  32.987  63.709  1.00  0.00     0.009 A 
HETATM   13  C   UNL     1       7.277  33.167  64.140  1.00  0.00     0.001 A 
HETATM   14  C   UNL     1       8.326  32.698  63.361  1.00  0.00     0.009 A 
HETATM   15  C   UNL     1       8.079  32.081  62.122  1.00  0.00    -0.035 A 
HETATM   16  C   UNL     1       9.273  31.627  61.321  1.00  0.00     0.050 C 
ENDBRANCH   6   9
ENDBRANCH   2   5
BRANCH   1  17
HETATM   17  C   UNL     1       7.006  28.971  56.929  1.00  0.00     0.002 A 
HETATM   18  C   UNL     1       8.059  29.008  55.966  1.00  0.00     0.079 A 
HETATM   19  C   UNL     1       8.169  28.018  54.977  1.00  0.00     0.047 A 
HETATM   20  C   UNL     1       7.271  26.970  54.999  1.00  0.00    -0.020 A 
HETATM   21  C   UNL     1       6.248  26.933  55.929  1.00  0.00     0.076 A 
HETATM   22  C   UNL     1       7.157  25.797  54.102  1.00  0.00     0.073 C 
HETATM   23  C   UNL     1       6.067  27.929  56.866  1.00  0.00     0.051 A 
HETATM   24  O   UNL     1       5.462  25.811  55.832  1.00  0.00    -0.345 OA
HETATM   25  C   UNL     1       6.216  24.932  54.955  1.00  0.00     0.129 C 
HETATM   26  C   UNL     1       6.970  23.908  55.806  1.00  0.00     0.040 C 
BRANCH  18  27
HETATM   27  O   UNL     1       8.930  30.068  56.058  1.00  0.00    -0.351 OA
BRANCH  27  28
HETATM   28  C   UNL     1      10.322  29.758  56.093  1.00  0.00     0.171 C 
HETATM   29  C   UNL     1      10.858  30.196  57.444  1.00  0.00     0.034 C 
ENDBRANCH  27  28
ENDBRANCH  18  27
ENDBRANCH   1  17
TORSDOF 5
ENDMDL
MODEL 6
REMARK VINA RESULT:      -8.9      2.846      8.572
REMARK  5 active torsions:
REMARK  status: ('A' for Active; 'I' for Inactive)
REMARK    1  A    between atoms: C_2  and  O_3 
REMARK    2  A    between atoms: O_3  and  C_4 
REMARK    3  A    between atoms: C_5  and  C_6 
REMARK    4  A    between atoms: C_7  and  C_8 
REMARK       I    between atoms: C_8  and  N_9 
REMARK    5  A    between atoms: N_9  and  C_10 
ROOT
HETATM    1  C   UNL     1       6.089  27.682  56.699  1.00  0.00     0.041 C 
HETATM    2  C   UNL     1       5.829  27.399  55.405  1.00  0.00     0.099 C 
HETATM    3  C   UNL     1       5.315  28.457  54.442  1.00  0.00     0.025 C 
HETATM    4  N   UNL     1       4.888  29.334  53.643  1.00  0.00    -0.096 N 
ENDROOT
BRANCH   2   5
HETATM    5  C   UNL     1       6.102  26.004  54.909  1.00  0.00     0.265 C 
HETATM    6  N   UNL     1       7.437  25.634  54.892  1.00  0.00    -0.321 N 
HETATM    7  H   UNL     1       8.081  26.225  55.400  1.00  0.00     0.169 HD
HETATM    8  O   UNL     1       5.160  25.264  54.634  1.00  0.00    -0.267 OA
BRANCH   6   9
HETATM    9  C   UNL     1       7.956  24.348  54.572  1.00  0.00     0.047 A 
HETATM   10  C   UNL     1       8.011  23.817  53.264  1.00  0.00    -0.035 A 
HETATM   11  C   UNL     1       7.672  24.576  52.009  1.00  0.00     0.050 C 
HETATM   12  C   UNL     1       8.465  22.495  53.078  1.00  0.00     0.009 A 
HETATM   13  C   UNL     1       8.927  21.733  54.144  1.00  0.00     0.001 A 
HETATM   14  C   UNL     1       8.953  22.281  55.419  1.00  0.00     0.009 A 
HETATM   15  C   UNL     1       8.476  23.584  55.649  1.00  0.00    -0.035 A 
HETATM   16  C   UNL     1       8.509  24.096  57.067  1.00  0.00     0.050 C 
ENDBRANCH   6   9
ENDBRANCH   2   5
BRANCH   1  17
HETATM   17  C   UNL     1       6.045  28.993  57.395  1.00  0.00     0.002 A 
HETATM   18  C   UNL     1       7.243  29.500  57.983  1.00  0.00     0.079 A 
HETATM   19  C   UNL     1       7.256  30.740  58.641  1.00  0.00     0.047 A 
HETATM   20  C   UNL     1       6.096  31.488  58.649  1.00  0.00    -0.020 A 
HETATM   21  C   UNL     1       4.933  30.998  58.082  1.00  0.00     0.076 A 
HETATM   22  C   UNL     1       5.826  32.815  59.246  1.00  0.00     0.073 C 
HETATM   23  C   UNL     1       4.868  29.751  57.495  1.00  0.00     0.051 A 
HETATM   24  O   UNL     1       3.881  31.877  58.151  1.00  0.00    -0.345 OA
HETATM   25  C   UNL     1       4.500  33.133  58.538  1.00  0.00     0.129 C 
HETATM   26  C   UNL     1       4.693  33.999  57.291  1.00  0.00     0.040 C 
BRANCH  18  27
HETATM   27  O   UNL     1       8.356  28.699  57.881  1.00  0.00    -0.351 OA
BRANCH  27  28
HETATM   28  C   UNL     1       9.531  29.295  57.331  1.00  0.00     0.171 C 
HETATM   29  C   UNL     1       9.357  29.353  55.825  1.00  0.00     0.034 C 
ENDBRANCH  27  28
ENDBRANCH  18  27
ENDBRANCH   1  17
TORSDOF 5
ENDMDL
MODEL 7
REMARK VINA RESULT:      -8.4      3.196      9.144
REMARK  5 active torsions:
REMARK  status: ('A' for Active; 'I' for Inactive)
REMARK    1  A    between atoms: C_2  and  O_3 
REMARK    2  A    between atoms: O_3  and  C_4 
REMARK    3  A    between atoms: C_5  and  C_6 
REMARK    4  A    between atoms: C_7  and  C_8 
REMARK       I    between atoms: C_8  and  N_9 
REMARK    5  A    between atoms: N_9  and  C_10 
ROOT
HETATM    1  C   UNL     1       5.973  32.001  60.976  1.00  0.00     0.041 C 
HETATM    2  C   UNL     1       5.423  32.642  59.923  1.00  0.00     0.099 C 
HETATM    3  C   UNL     1       4.757  34.000  60.072  1.00  0.00     0.025 C 
HETATM    4  N   UNL     1       4.203  35.127  60.195  1.00  0.00    -0.096 N 
ENDROOT
BRANCH   2   5
HETATM    5  C   UNL     1       5.519  31.999  58.565  1.00  0.00     0.265 C 
HETATM    6  N   UNL     1       5.286  30.634  58.539  1.00  0.00    -0.321 N 
HETATM    7  H   UNL     1       4.870  30.227  59.365  1.00  0.00     0.169 HD
HETATM    8  O   UNL     1       5.710  32.704  57.575  1.00  0.00    -0.267 OA
BRANCH   6   9
HETATM    9  C   UNL     1       5.212  29.809  57.382  1.00  0.00     0.047 A 
HETATM   10  C   UNL     1       4.117  29.786  56.491  1.00  0.00    -0.035 A 
HETATM   11  C   UNL     1       2.941  30.725  56.544  1.00  0.00     0.050 C 
HETATM   12  C   UNL     1       4.117  28.863  55.425  1.00  0.00     0.009 A 
HETATM   13  C   UNL     1       5.203  28.028  55.192  1.00  0.00     0.001 A 
HETATM   14  C   UNL     1       6.317  28.107  56.017  1.00  0.00     0.009 A 
HETATM   15  C   UNL     1       6.340  28.991  57.109  1.00  0.00    -0.035 A 
HETATM   16  C   UNL     1       7.575  28.995  57.975  1.00  0.00     0.050 C 
ENDBRANCH   6   9
ENDBRANCH   2   5
BRANCH   1  17
HETATM   17  C   UNL     1       6.141  32.475  62.374  1.00  0.00     0.002 A 
HETATM   18  C   UNL     1       7.456  32.755  62.851  1.00  0.00     0.079 A 
HETATM   19  C   UNL     1       7.667  33.217  64.160  1.00  0.00     0.047 A 
HETATM   20  C   UNL     1       6.563  33.456  64.953  1.00  0.00    -0.020 A 
HETATM   21  C   UNL     1       5.287  33.183  64.495  1.00  0.00     0.076 A 
HETATM   22  C   UNL     1       6.484  33.949  66.348  1.00  0.00     0.073 C 
HETATM   23  C   UNL     1       5.052  32.657  63.240  1.00  0.00     0.051 A 
HETATM   24  O   UNL     1       4.302  33.503  65.396  1.00  0.00    -0.345 OA
HETATM   25  C   UNL     1       4.990  34.304  66.394  1.00  0.00     0.129 C 
HETATM   26  C   UNL     1       4.729  35.785  66.107  1.00  0.00     0.040 C 
BRANCH  18  27
HETATM   27  O   UNL     1       8.485  32.528  61.968  1.00  0.00    -0.351 OA
BRANCH  27  28
HETATM   28  C   UNL     1       9.142  31.265  62.053  1.00  0.00     0.171 C 
HETATM   29  C   UNL     1       9.402  30.783  60.638  1.00  0.00     0.034 C 
ENDBRANCH  27  28
ENDBRANCH  18  27
ENDBRANCH   1  17
TORSDOF 5
ENDMDL
MODEL 8
REMARK VINA RESULT:      -8.4      1.864      2.402
REMARK  5 active torsions:
REMARK  status: ('A' for Active; 'I' for Inactive)
REMARK    1  A    between atoms: C_2  and  O_3 
REMARK    2  A    between atoms: O_3  and  C_4 
REMARK    3  A    between atoms: C_5  and  C_6 
REMARK    4  A    between atoms: C_7  and  C_8 
REMARK       I    between atoms: C_8  and  N_9 
REMARK    5  A    between atoms: N_9  and  C_10 
ROOT
HETATM    1  C   UNL     1       6.234  30.346  57.799  1.00  0.00     0.041 C 
HETATM    2  C   UNL     1       7.486  30.586  58.243  1.00  0.00     0.099 C 
HETATM    3  C   UNL     1       8.694  29.870  57.660  1.00  0.00     0.025 C 
HETATM    4  N   UNL     1       9.695  29.276  57.177  1.00  0.00    -0.096 N 
ENDROOT
BRANCH   2   5
HETATM    5  C   UNL     1       7.677  31.625  59.316  1.00  0.00     0.265 C 
HETATM    6  N   UNL     1       6.848  31.496  60.418  1.00  0.00    -0.321 N 
HETATM    7  H   UNL     1       6.350  30.622  60.514  1.00  0.00     0.169 HD
HETATM    8  O   UNL     1       8.579  32.453  59.202  1.00  0.00    -0.267 OA
BRANCH   6   9
HETATM    9  C   UNL     1       6.894  32.275  61.608  1.00  0.00     0.047 A 
HETATM   10  C   UNL     1       6.039  33.367  61.877  1.00  0.00    -0.035 A 
HETATM   11  C   UNL     1       4.868  33.776  61.024  1.00  0.00     0.050 C 
HETATM   12  C   UNL     1       6.235  34.119  63.052  1.00  0.00     0.009 A 
HETATM   13  C   UNL     1       7.203  33.766  63.985  1.00  0.00     0.001 A 
HETATM   14  C   UNL     1       7.989  32.643  63.764  1.00  0.00     0.009 A 
HETATM   15  C   UNL     1       7.846  31.887  62.588  1.00  0.00    -0.035 A 
HETATM   16  C   UNL     1       8.759  30.700  62.408  1.00  0.00     0.050 C 
ENDBRANCH   6   9
ENDBRANCH   2   5
BRANCH   1  17
HETATM   17  C   UNL     1       5.793  29.491  56.667  1.00  0.00     0.002 A 
HETATM   18  C   UNL     1       5.235  30.115  55.511  1.00  0.00     0.079 A 
HETATM   19  C   UNL     1       4.815  29.352  54.410  1.00  0.00     0.047 A 
HETATM   20  C   UNL     1       5.015  27.987  54.448  1.00  0.00    -0.020 A 
HETATM   21  C   UNL     1       5.552  27.379  55.568  1.00  0.00     0.076 A 
HETATM   22  C   UNL     1       4.687  26.951  53.441  1.00  0.00     0.073 C 
HETATM   23  C   UNL     1       5.905  28.093  56.695  1.00  0.00     0.051 A 
HETATM   24  O   UNL     1       5.710  26.022  55.430  1.00  0.00    -0.345 OA
HETATM   25  C   UNL     1       5.520  25.791  54.008  1.00  0.00     0.129 C 
HETATM   26  C   UNL     1       6.891  25.670  53.337  1.00  0.00     0.040 C 
BRANCH  18  27
HETATM   27  O   UNL     1       5.122  31.484  55.554  1.00  0.00    -0.351 OA
BRANCH  27  28
HETATM   28  C   UNL     1       3.801  32.024  55.512  1.00  0.00     0.171 C 
HETATM   29  C   UNL     1       3.593  32.832  56.779  1.00  0.00     0.034 C 
ENDBRANCH  27  28
ENDBRANCH  18  27
ENDBRANCH   1  17
TORSDOF 5
ENDMDL
MODEL 9
REMARK VINA RESULT:      -8.0      2.761      8.440
REMARK  5 active torsions:
REMARK  status: ('A' for Active; 'I' for Inactive)
REMARK    1  A    between atoms: C_2  and  O_3 
REMARK    2  A    between atoms: O_3  and  C_4 
REMARK    3  A    between atoms: C_5  and  C_6 
REMARK    4  A    between atoms: C_7  and  C_8 
REMARK       I    between atoms: C_8  and  N_9 
REMARK    5  A    between atoms: N_9  and  C_10 
ROOT
HETATM    1  C   UNL     1       5.318  28.473  55.994  1.00  0.00     0.041 C 
HETATM    2  C   UNL     1       6.470  27.890  55.600  1.00  0.00     0.099 C 
HETATM    3  C   UNL     1       7.793  28.638  55.618  1.00  0.00     0.025 C 
HETATM    4  N   UNL     1       8.891  29.259  55.631  1.00  0.00    -0.096 N 
ENDROOT
BRANCH   2   5
HETATM    5  C   UNL     1       6.432  26.445  55.176  1.00  0.00     0.265 C 
HETATM    6  N   UNL     1       7.644  25.920  54.760  1.00  0.00    -0.321 N 
HETATM    7  H   UNL     1       8.472  26.459  54.972  1.00  0.00     0.169 HD
HETATM    8  O   UNL     1       5.387  25.808  55.294  1.00  0.00    -0.267 OA
BRANCH   6   9
HETATM    9  C   UNL     1       7.904  24.565  54.411  1.00  0.00     0.047 A 
HETATM   10  C   UNL     1       7.755  24.037  53.109  1.00  0.00    -0.035 A 
HETATM   11  C   UNL     1       7.446  24.848  51.879  1.00  0.00     0.050 C 
HETATM   12  C   UNL     1       7.958  22.658  52.900  1.00  0.00     0.009 A 
HETATM   13  C   UNL     1       8.372  21.823  53.931  1.00  0.00     0.001 A 
HETATM   14  C   UNL     1       8.599  22.354  55.193  1.00  0.00     0.009 A 
HETATM   15  C   UNL     1       8.376  23.718  55.448  1.00  0.00    -0.035 A 
HETATM   16  C   UNL     1       8.617  24.212  56.853  1.00  0.00     0.050 C 
ENDBRANCH   6   9
ENDBRANCH   2   5
BRANCH   1  17
HETATM   17  C   UNL     1       5.108  29.818  56.587  1.00  0.00     0.002 A 
HETATM   18  C   UNL     1       4.149  30.690  55.990  1.00  0.00     0.079 A 
HETATM   19  C   UNL     1       3.904  31.967  56.519  1.00  0.00     0.047 A 
HETATM   20  C   UNL     1       4.568  32.334  57.672  1.00  0.00    -0.020 A 
HETATM   21  C   UNL     1       5.501  31.492  58.251  1.00  0.00     0.076 A 
HETATM   22  C   UNL     1       4.500  33.593  58.448  1.00  0.00     0.073 C 
HETATM   23  C   UNL     1       5.818  30.262  57.713  1.00  0.00     0.051 A 
HETATM   24  O   UNL     1       6.047  31.996  59.406  1.00  0.00    -0.345 OA
HETATM   25  C   UNL     1       5.189  33.120  59.737  1.00  0.00     0.129 C 
HETATM   26  C   UNL     1       4.190  32.683  60.811  1.00  0.00     0.040 C 
BRANCH  18  27
HETATM   27  O   UNL     1       3.507  30.213  54.871  1.00  0.00    -0.351 OA
BRANCH  27  28
HETATM   28  C   UNL     1       3.735  30.912  53.648  1.00  0.00     0.171 C 
HETATM   29  C   UNL     1       4.078  29.883  52.586  1.00  0.00     0.034 C 
ENDBRANCH  27  28
ENDBRANCH  18  27
ENDBRANCH   1  17
TORSDOF 5
ENDMDL
MODEL 10
REMARK VINA RESULT:      -7.8      5.040      9.027
REMARK  5 active torsions:
REMARK  status: ('A' for Active; 'I' for Inactive)
REMARK    1  A    between atoms: C_2  and  O_3 
REMARK    2  A    between atoms: O_3  and  C_4 
REMARK    3  A    between atoms: C_5  and  C_6 
REMARK    4  A    between atoms: C_7  and  C_8 
REMARK       I    between atoms: C_8  and  N_9 
REMARK    5  A    between atoms: N_9  and  C_10 
ROOT
HETATM    1  C   UNL     1       6.672  26.664  52.972  1.00  0.00     0.041 C 
HETATM    2  C   UNL     1       5.704  26.470  52.053  1.00  0.00     0.099 C 
HETATM    3  C   UNL     1       5.009  25.127  51.892  1.00  0.00     0.025 C 
HETATM    4  N   UNL     1       4.434  24.013  51.758  1.00  0.00    -0.096 N 
ENDROOT
BRANCH   2   5
HETATM    5  C   UNL     1       5.281  27.638  51.202  1.00  0.00     0.265 C 
HETATM    6  N   UNL     1       4.308  27.359  50.257  1.00  0.00    -0.321 N 
HETATM    7  H   UNL     1       3.817  26.481  50.353  1.00  0.00     0.169 HD
HETATM    8  O   UNL     1       5.742  28.754  51.435  1.00  0.00    -0.267 OA
BRANCH   6   9
HETATM    9  C   UNL     1       3.662  28.298  49.404  1.00  0.00     0.047 A 
HETATM   10  C   UNL     1       2.616  29.154  49.812  1.00  0.00    -0.035 A 
HETATM   11  C   UNL     1       2.130  29.309  51.228  1.00  0.00     0.050 C 
HETATM   12  C   UNL     1       1.993  29.981  48.855  1.00  0.00     0.009 A 
HETATM   13  C   UNL     1       2.434  30.024  47.539  1.00  0.00     0.001 A 
HETATM   14  C   UNL     1       3.516  29.245  47.153  1.00  0.00     0.009 A 
HETATM   15  C   UNL     1       4.143  28.383  48.070  1.00  0.00    -0.035 A 
HETATM   16  C   UNL     1       5.293  27.547  47.566  1.00  0.00     0.050 C 
ENDBRANCH   6   9
ENDBRANCH   2   5
BRANCH   1  17
HETATM   17  C   UNL     1       7.166  25.733  54.019  1.00  0.00     0.002 A 
HETATM   18  C   UNL     1       6.845  26.001  55.384  1.00  0.00     0.079 A 
HETATM   19  C   UNL     1       7.276  25.145  56.409  1.00  0.00     0.047 A 
HETATM   20  C   UNL     1       7.964  24.001  56.059  1.00  0.00    -0.020 A 
HETATM   21  C   UNL     1       8.279  23.740  54.738  1.00  0.00     0.076 A 
HETATM   22  C   UNL     1       8.522  22.928  56.914  1.00  0.00     0.073 C 
HETATM   23  C   UNL     1       7.935  24.599  53.714  1.00  0.00     0.051 A 
HETATM   24  O   UNL     1       8.940  22.549  54.558  1.00  0.00    -0.345 OA
HETATM   25  C   UNL     1       8.782  21.868  55.832  1.00  0.00     0.129 C 
HETATM   26  C   UNL     1       7.640  20.855  55.715  1.00  0.00     0.040 C 
BRANCH  18  27
HETATM   27  O   UNL     1       6.116  27.141  55.624  1.00  0.00    -0.351 OA
BRANCH  27  28
HETATM   28  C   UNL     1       6.653  28.063  56.571  1.00  0.00     0.171 C 
HETATM   29  C   UNL     1       7.585  29.000  55.824  1.00  0.00     0.034 C 
ENDBRANCH  27  28
ENDBRANCH  18  27
ENDBRANCH   1  17
TORSDOF 5
ENDMDL
