MODEL 1
REMARK VINA RESULT:     -10.7      0.000      0.000
REMARK  7 active torsions:
REMARK  status: ('A' for Active; 'I' for Inactive)
REMARK       I    between atoms: N_2  and  C_3 
REMARK    1  A    between atoms: N_2  and  C_22 
REMARK    2  A    between atoms: C_3  and  C_4 
REMARK    3  A    between atoms: C_4  and  N_5 
REMARK    4  A    between atoms: N_5  and  C_6 
REMARK    5  A    between atoms: C_7  and  O_8 
REMARK    6  A    between atoms: C_22  and  C_23 
REMARK       I    between atoms: C_23  and  N_24 
REMARK    7  A    between atoms: N_24  and  C_25 
ROOT
HETATM    1  C   UNL     1       7.066  28.146  57.293  1.00  0.00     0.195 C 
ENDROOT
BRANCH   1   2
HETATM    2  C   UNL     1       6.435  29.527  57.018  1.00  0.00     0.233 C 
HETATM    3  N   UNL     1       6.675  30.547  57.941  1.00  0.00    -0.347 N 
HETATM    4  C   UNL     1       5.917  31.779  57.806  1.00  0.00     0.153 C 
HETATM    5  O   UNL     1       5.616  29.653  56.102  1.00  0.00    -0.272 OA
BRANCH   3   6
HETATM    6  C   UNL     1       7.906  30.623  58.739  1.00  0.00     0.228 C 
BRANCH   6   7
HETATM    7  C   UNL     1       7.971  31.693  59.841  1.00  0.00     0.240 C 
HETATM    8  N   UNL     1       7.112  31.483  60.904  1.00  0.00    -0.324 N 
HETATM    9  H   UNL     1       6.955  30.497  61.104  1.00  0.00     0.169 HD
HETATM   10  O   UNL     1       8.748  32.639  59.721  1.00  0.00    -0.271 OA
BRANCH   8  11
HETATM   11  C   UNL     1       6.976  32.371  62.000  1.00  0.00     0.056 A 
HETATM   12  C   UNL     1       6.071  33.444  62.074  1.00  0.00     0.060 A 
HETATM   13 CL   UNL     1       4.769  33.672  60.954  1.00  0.00    -0.082 Cl
HETATM   14  C   UNL     1       6.094  34.309  63.178  1.00  0.00     0.026 A 
HETATM   15  C   UNL     1       6.986  34.093  64.229  1.00  0.00     0.002 A 
HETATM   16  C   UNL     1       7.832  32.990  64.197  1.00  0.00     0.002 A 
HETATM   17  C   UNL     1       7.812  32.127  63.100  1.00  0.00     0.031 A 
ENDBRANCH   8  11
ENDBRANCH   6   7
ENDBRANCH   3   6
ENDBRANCH   1   2
BRANCH   1  18
HETATM   18  N   UNL     1       6.013  27.154  57.019  1.00  0.00    -0.282 NA
HETATM   19  H   UNL     1       5.192  27.651  56.663  1.00  0.00     0.128 HD
BRANCH  18  20
HETATM   20  C   UNL     1       6.290  26.049  56.186  1.00  0.00     0.045 A 
HETATM   21  C   UNL     1       6.209  26.040  54.776  1.00  0.00     0.090 A 
HETATM   22  C   UNL     1       6.585  24.916  54.010  1.00  0.00     0.053 A 
HETATM   23  C   UNL     1       7.141  23.801  54.660  1.00  0.00     0.014 A 
HETATM   24  C   UNL     1       7.271  23.851  56.041  1.00  0.00     0.089 A 
HETATM   25  C   UNL     1       7.661  22.535  54.264  1.00  0.00     0.011 A 
HETATM   26  O   UNL     1       7.840  22.710  56.513  1.00  0.00    -0.309 OA
HETATM   27  C   UNL     1       6.871  24.933  56.824  1.00  0.00     0.064 A 
HETATM   28  C   UNL     1       8.078  21.912  55.437  1.00  0.00     0.087 A 
HETATM   29  C   UNL     1       8.659  20.646  55.487  1.00  0.00     0.038 A 
HETATM   30  C   UNL     1       8.821  19.985  54.265  1.00  0.00     0.003 A 
HETATM   31  C   UNL     1       8.417  20.575  53.065  1.00  0.00     0.001 A 
HETATM   32  C   UNL     1       7.836  21.852  53.046  1.00  0.00     0.015 A 
BRANCH  21  33
HETATM   33  O   UNL     1       5.701  27.127  54.106  1.00  0.00    -0.354 OA
HETATM   34  C   UNL     1       6.727  27.826  53.394  1.00  0.00     0.210 C 
ENDBRANCH  21  33
ENDBRANCH  18  20
ENDBRANCH   1  18
TORSDOF 7
ENDMDL
MODEL 2
REMARK VINA RESULT:     -10.7      1.236      1.507
REMARK  7 active torsions:
REMARK  status: ('A' for Active; 'I' for Inactive)
REMARK       I    between atoms: N_2  and  C_3 
REMARK    1  A    between atoms: N_2  and  C_22 
REMARK    2  A    between atoms: C_3  and  C_4 
REMARK    3  A    between atoms: C_4  and  N_5 
REMARK    4  A    between atoms: N_5  and  C_6 
REMARK    5  A    between atoms: C_7  and  O_8 
REMARK    6  A    between atoms: C_22  and  C_23 
REMARK       I    between atoms: C_23  and  N_24 
REMARK    7  A    between atoms: N_24  and  C_25 
ROOT
HETATM    1  C   UNL     1       6.157  28.015  57.016  1.00  0.00     0.195 C 
ENDROOT
BRANCH   1   2
HETATM    2  C   UNL     1       5.587  29.412  56.693  1.00  0.00     0.233 C 
HETATM    3  N   UNL     1       6.141  30.510  57.353  1.00  0.00    -0.347 N 
HETATM    4  C   UNL     1       5.474  31.793  57.219  1.00  0.00     0.153 C 
HETATM    5  O   UNL     1       4.567  29.511  56.002  1.00  0.00    -0.272 OA
BRANCH   3   6
HETATM    6  C   UNL     1       7.541  30.546  57.797  1.00  0.00     0.228 C 
BRANCH   6   7
HETATM    7  C   UNL     1       7.876  31.418  59.017  1.00  0.00     0.240 C 
HETATM    8  N   UNL     1       7.078  31.195  60.124  1.00  0.00    -0.324 N 
HETATM    9  H   UNL     1       6.769  30.229  60.209  1.00  0.00     0.169 HD
HETATM   10  O   UNL     1       8.792  32.235  58.945  1.00  0.00    -0.271 OA
BRANCH   8  11
HETATM   11  C   UNL     1       7.183  31.924  61.337  1.00  0.00     0.056 A 
HETATM   12  C   UNL     1       8.033  31.605  62.410  1.00  0.00     0.060 A 
HETATM   13 CL   UNL     1       9.306  30.435  62.303  1.00  0.00    -0.082 Cl
HETATM   14  C   UNL     1       7.979  32.352  63.595  1.00  0.00     0.026 A 
HETATM   15  C   UNL     1       7.113  33.440  63.708  1.00  0.00     0.002 A 
HETATM   16  C   UNL     1       6.324  33.807  62.624  1.00  0.00     0.002 A 
HETATM   17  C   UNL     1       6.375  33.065  61.442  1.00  0.00     0.031 A 
ENDBRANCH   8  11
ENDBRANCH   6   7
ENDBRANCH   3   6
ENDBRANCH   1   2
BRANCH   1  18
HETATM   18  N   UNL     1       5.184  27.045  56.487  1.00  0.00    -0.282 NA
HETATM   19  H   UNL     1       4.485  27.558  55.943  1.00  0.00     0.128 HD
BRANCH  18  20
HETATM   20  C   UNL     1       5.634  25.934  55.742  1.00  0.00     0.045 A 
HETATM   21  C   UNL     1       5.638  25.834  54.334  1.00  0.00     0.090 A 
HETATM   22  C   UNL     1       6.186  24.721  53.661  1.00  0.00     0.053 A 
HETATM   23  C   UNL     1       6.826  23.719  54.409  1.00  0.00     0.014 A 
HETATM   24  C   UNL     1       6.868  23.863  55.788  1.00  0.00     0.089 A 
HETATM   25  C   UNL     1       7.511  22.503  54.122  1.00  0.00     0.011 A 
HETATM   26  O   UNL     1       7.537  22.827  56.362  1.00  0.00    -0.309 OA
HETATM   27  C   UNL     1       6.302  24.933  56.479  1.00  0.00     0.064 A 
HETATM   28  C   UNL     1       7.928  22.002  55.352  1.00  0.00     0.087 A 
HETATM   29  C   UNL     1       8.646  20.819  55.513  1.00  0.00     0.038 A 
HETATM   30  C   UNL     1       8.956  20.113  54.346  1.00  0.00     0.003 A 
HETATM   31  C   UNL     1       8.557  20.581  53.091  1.00  0.00     0.001 A 
HETATM   32  C   UNL     1       7.835  21.776  52.960  1.00  0.00     0.015 A 
BRANCH  21  33
HETATM   33  O   UNL     1       5.049  26.814  53.570  1.00  0.00    -0.354 OA
HETATM   34  C   UNL     1       6.013  27.764  53.106  1.00  0.00     0.210 C 
ENDBRANCH  21  33
ENDBRANCH  18  20
ENDBRANCH   1  18
TORSDOF 7
ENDMDL
MODEL 3
REMARK VINA RESULT:     -10.3      2.771     10.404
REMARK  7 active torsions:
REMARK  status: ('A' for Active; 'I' for Inactive)
REMARK       I    between atoms: N_2  and  C_3 
REMARK    1  A    between atoms: N_2  and  C_22 
REMARK    2  A    between atoms: C_3  and  C_4 
REMARK    3  A    between atoms: C_4  and  N_5 
REMARK    4  A    between atoms: N_5  and  C_6 
REMARK    5  A    between atoms: C_7  and  O_8 
REMARK    6  A    between atoms: C_22  and  C_23 
REMARK       I    between atoms: C_23  and  N_24 
REMARK    7  A    between atoms: N_24  and  C_25 
ROOT
HETATM    1  C   UNL     1       7.003  28.163  55.454  1.00  0.00     0.195 C 
ENDROOT
BRANCH   1   2
HETATM    2  C   UNL     1       5.705  28.157  54.619  1.00  0.00     0.233 C 
HETATM    3  N   UNL     1       5.778  27.689  53.306  1.00  0.00    -0.347 N 
HETATM    4  C   UNL     1       4.619  27.877  52.450  1.00  0.00     0.153 C 
HETATM    5  O   UNL     1       4.692  28.707  55.062  1.00  0.00    -0.272 OA
BRANCH   3   6
HETATM    6  C   UNL     1       6.744  26.667  52.879  1.00  0.00     0.228 C 
BRANCH   6   7
HETATM    7  C   UNL     1       6.562  25.245  53.430  1.00  0.00     0.240 C 
HETATM    8  N   UNL     1       7.731  24.516  53.550  1.00  0.00    -0.324 N 
HETATM    9  H   UNL     1       8.542  25.090  53.770  1.00  0.00     0.169 HD
HETATM   10  O   UNL     1       5.435  24.847  53.719  1.00  0.00    -0.271 OA
BRANCH   8  11
HETATM   11  C   UNL     1       7.783  23.168  53.989  1.00  0.00     0.056 A 
HETATM   12  C   UNL     1       7.820  22.747  55.329  1.00  0.00     0.060 A 
HETATM   13 CL   UNL     1       7.506  23.801  56.668  1.00  0.00    -0.082 Cl
HETATM   14  C   UNL     1       7.963  21.386  55.635  1.00  0.00     0.026 A 
HETATM   15  C   UNL     1       8.033  20.435  54.618  1.00  0.00     0.002 A 
HETATM   16  C   UNL     1       7.922  20.837  53.291  1.00  0.00     0.002 A 
HETATM   17  C   UNL     1       7.780  22.191  52.983  1.00  0.00     0.031 A 
ENDBRANCH   8  11
ENDBRANCH   6   7
ENDBRANCH   3   6
ENDBRANCH   1   2
BRANCH   1  18
HETATM   18  N   UNL     1       7.275  29.574  55.776  1.00  0.00    -0.282 NA
HETATM   19  H   UNL     1       6.496  30.137  55.425  1.00  0.00     0.128 HD
BRANCH  18  20
HETATM   20  C   UNL     1       7.561  29.947  57.106  1.00  0.00     0.045 A 
HETATM   21  C   UNL     1       8.791  29.749  57.771  1.00  0.00     0.090 A 
HETATM   22  C   UNL     1       9.025  30.229  59.077  1.00  0.00     0.053 A 
HETATM   23  C   UNL     1       8.038  31.006  59.705  1.00  0.00     0.014 A 
HETATM   24  C   UNL     1       6.859  31.244  59.013  1.00  0.00     0.089 A 
HETATM   25  C   UNL     1       7.902  31.682  60.952  1.00  0.00     0.011 A 
HETATM   26  O   UNL     1       6.019  32.025  59.746  1.00  0.00    -0.309 OA
HETATM   27  C   UNL     1       6.588  30.750  57.739  1.00  0.00     0.064 A 
HETATM   28  C   UNL     1       6.651  32.291  60.921  1.00  0.00     0.087 A 
HETATM   29  C   UNL     1       6.131  33.065  61.957  1.00  0.00     0.038 A 
HETATM   30  C   UNL     1       6.941  33.224  63.085  1.00  0.00     0.003 A 
HETATM   31  C   UNL     1       8.204  32.630  63.157  1.00  0.00     0.001 A 
HETATM   32  C   UNL     1       8.702  31.856  62.098  1.00  0.00     0.015 A 
BRANCH  21  33
HETATM   33  O   UNL     1       9.791  29.021  57.170  1.00  0.00    -0.354 OA
HETATM   34  C   UNL     1      11.006  29.773  57.088  1.00  0.00     0.210 C 
ENDBRANCH  21  33
ENDBRANCH  18  20
ENDBRANCH   1  18
TORSDOF 7
ENDMDL
MODEL 4
REMARK VINA RESULT:     -10.1      3.095      3.947
REMARK  7 active torsions:
REMARK  status: ('A' for Active; 'I' for Inactive)
REMARK       I    between atoms: N_2  and  C_3 
REMARK    1  A    between atoms: N_2  and  C_22 
REMARK    2  A    between atoms: C_3  and  C_4 
REMARK    3  A    between atoms: C_4  and  N_5 
REMARK    4  A    between atoms: N_5  and  C_6 
REMARK    5  A    between atoms: C_7  and  O_8 
REMARK    6  A    between atoms: C_22  and  C_23 
REMARK       I    between atoms: C_23  and  N_24 
REMARK    7  A    between atoms: N_24  and  C_25 
ROOT
HETATM    1  C   UNL     1       4.230  28.143  55.332  1.00  0.00     0.195 C 
ENDROOT
BRANCH   1   2
HETATM    2  C   UNL     1       3.880  29.599  54.963  1.00  0.00     0.233 C 
HETATM    3  N   UNL     1       3.686  30.506  56.006  1.00  0.00    -0.347 N 
HETATM    4  C   UNL     1       3.151  31.817  55.678  1.00  0.00     0.153 C 
HETATM    5  O   UNL     1       3.620  29.886  53.790  1.00  0.00    -0.272 OA
BRANCH   3   6
HETATM    6  C   UNL     1       4.372  30.388  57.300  1.00  0.00     0.228 C 
BRANCH   6   7
HETATM    7  C   UNL     1       5.856  30.782  57.355  1.00  0.00     0.240 C 
HETATM    8  N   UNL     1       6.740  29.722  57.285  1.00  0.00    -0.324 N 
HETATM    9  H   UNL     1       6.397  28.950  56.715  1.00  0.00     0.169 HD
HETATM   10  O   UNL     1       6.164  31.968  57.458  1.00  0.00    -0.271 OA
BRANCH   8  11
HETATM   11  C   UNL     1       8.149  29.857  57.368  1.00  0.00     0.056 A 
HETATM   12  C   UNL     1       8.857  30.360  58.473  1.00  0.00     0.060 A 
HETATM   13 CL   UNL     1       8.137  30.622  60.028  1.00  0.00    -0.082 Cl
HETATM   14  C   UNL     1      10.247  30.530  58.400  1.00  0.00     0.026 A 
HETATM   15  C   UNL     1      10.945  30.166  57.249  1.00  0.00     0.002 A 
HETATM   16  C   UNL     1      10.261  29.598  56.180  1.00  0.00     0.002 A 
HETATM   17  C   UNL     1       8.877  29.428  56.249  1.00  0.00     0.031 A 
ENDBRANCH   8  11
ENDBRANCH   6   7
ENDBRANCH   3   6
ENDBRANCH   1   2
BRANCH   1  18
HETATM   18  N   UNL     1       5.614  27.927  54.880  1.00  0.00    -0.282 NA
HETATM   19  H   UNL     1       6.245  28.235  55.625  1.00  0.00     0.128 HD
BRANCH  18  20
HETATM   20  C   UNL     1       6.014  26.653  54.425  1.00  0.00     0.045 A 
HETATM   21  C   UNL     1       6.360  26.324  53.096  1.00  0.00     0.090 A 
HETATM   22  C   UNL     1       6.832  25.043  52.738  1.00  0.00     0.053 A 
HETATM   23  C   UNL     1       7.050  24.090  53.746  1.00  0.00     0.014 A 
HETATM   24  C   UNL     1       6.764  24.450  55.055  1.00  0.00     0.089 A 
HETATM   25  C   UNL     1       7.533  22.751  53.805  1.00  0.00     0.011 A 
HETATM   26  O   UNL     1       7.046  23.429  55.908  1.00  0.00    -0.309 OA
HETATM   27  C   UNL     1       6.260  25.694  55.430  1.00  0.00     0.064 A 
HETATM   28  C   UNL     1       7.513  22.398  55.151  1.00  0.00     0.087 A 
HETATM   29  C   UNL     1       7.919  21.160  55.643  1.00  0.00     0.038 A 
HETATM   30  C   UNL     1       8.373  20.232  54.700  1.00  0.00     0.003 A 
HETATM   31  C   UNL     1       8.410  20.545  53.339  1.00  0.00     0.001 A 
HETATM   32  C   UNL     1       7.995  21.802  52.873  1.00  0.00     0.015 A 
BRANCH  21  33
HETATM   33  O   UNL     1       6.190  27.246  52.089  1.00  0.00    -0.354 OA
HETATM   34  C   UNL     1       4.952  27.043  51.400  1.00  0.00     0.210 C 
ENDBRANCH  21  33
ENDBRANCH  18  20
ENDBRANCH   1  18
TORSDOF 7
ENDMDL
MODEL 5
REMARK VINA RESULT:     -10.1      2.840     10.970
REMARK  7 active torsions:
REMARK  status: ('A' for Active; 'I' for Inactive)
REMARK       I    between atoms: N_2  and  C_3 
REMARK    1  A    between atoms: N_2  and  C_22 
REMARK    2  A    between atoms: C_3  and  C_4 
REMARK    3  A    between atoms: C_4  and  N_5 
REMARK    4  A    between atoms: N_5  and  C_6 
REMARK    5  A    between atoms: C_7  and  O_8 
REMARK    6  A    between atoms: C_22  and  C_23 
REMARK       I    between atoms: C_23  and  N_24 
REMARK    7  A    between atoms: N_24  and  C_25 
ROOT
HETATM    1  C   UNL     1       7.986  28.600  57.786  1.00  0.00     0.195 C 
ENDROOT
BRANCH   1   2
HETATM    2  C   UNL     1       7.984  28.701  56.246  1.00  0.00     0.233 C 
HETATM    3  N   UNL     1       7.537  27.594  55.523  1.00  0.00    -0.347 N 
HETATM    4  C   UNL     1       7.731  27.598  54.083  1.00  0.00     0.153 C 
HETATM    5  O   UNL     1       8.520  29.669  55.697  1.00  0.00    -0.272 OA
BRANCH   3   6
HETATM    6  C   UNL     1       6.530  26.659  56.042  1.00  0.00     0.228 C 
BRANCH   6   7
HETATM    7  C   UNL     1       6.429  25.281  55.370  1.00  0.00     0.240 C 
HETATM    8  N   UNL     1       7.575  24.512  55.450  1.00  0.00    -0.324 N 
HETATM    9  H   UNL     1       8.105  24.669  56.305  1.00  0.00     0.169 HD
HETATM   10  O   UNL     1       5.381  24.951  54.818  1.00  0.00    -0.271 OA
BRANCH   8  11
HETATM   11  C   UNL     1       7.715  23.232  54.856  1.00  0.00     0.056 A 
HETATM   12  C   UNL     1       7.813  22.978  53.477  1.00  0.00     0.060 A 
HETATM   13 CL   UNL     1       8.076  24.218  52.296  1.00  0.00    -0.082 Cl
HETATM   14  C   UNL     1       7.857  21.658  53.007  1.00  0.00     0.026 A 
HETATM   15  C   UNL     1       7.842  20.587  53.900  1.00  0.00     0.002 A 
HETATM   16  C   UNL     1       7.821  20.832  55.268  1.00  0.00     0.002 A 
HETATM   17  C   UNL     1       7.777  22.145  55.740  1.00  0.00     0.031 A 
ENDBRANCH   8  11
ENDBRANCH   6   7
ENDBRANCH   3   6
ENDBRANCH   1   2
BRANCH   1  18
HETATM   18  N   UNL     1       8.782  29.742  58.269  1.00  0.00    -0.282 NA
HETATM   19  H   UNL     1       9.189  30.213  57.457  1.00  0.00     0.128 HD
BRANCH  18  20
HETATM   20  C   UNL     1       8.190  30.700  59.119  1.00  0.00     0.045 A 
HETATM   21  C   UNL     1       7.035  31.458  58.827  1.00  0.00     0.090 A 
HETATM   22  C   UNL     1       6.456  32.337  59.768  1.00  0.00     0.053 A 
HETATM   23  C   UNL     1       6.990  32.396  61.065  1.00  0.00     0.014 A 
HETATM   24  C   UNL     1       8.088  31.598  61.354  1.00  0.00     0.089 A 
HETATM   25  C   UNL     1       6.688  33.096  62.269  1.00  0.00     0.011 A 
HETATM   26  O   UNL     1       8.470  31.754  62.650  1.00  0.00    -0.309 OA
HETATM   27  C   UNL     1       8.701  30.751  60.433  1.00  0.00     0.064 A 
HETATM   28  C   UNL     1       7.622  32.662  63.206  1.00  0.00     0.087 A 
HETATM   29  C   UNL     1       7.669  33.103  64.527  1.00  0.00     0.038 A 
HETATM   30  C   UNL     1       6.702  34.039  64.907  1.00  0.00     0.003 A 
HETATM   31  C   UNL     1       5.746  34.501  63.998  1.00  0.00     0.001 A 
HETATM   32  C   UNL     1       5.723  34.038  62.674  1.00  0.00     0.015 A 
BRANCH  21  33
HETATM   33  O   UNL     1       6.467  31.398  57.576  1.00  0.00    -0.354 OA
HETATM   34  C   UNL     1       5.136  30.875  57.633  1.00  0.00     0.210 C 
ENDBRANCH  21  33
ENDBRANCH  18  20
ENDBRANCH   1  18
TORSDOF 7
ENDMDL
MODEL 6
REMARK VINA RESULT:     -10.0      2.748     11.365
REMARK  7 active torsions:
REMARK  status: ('A' for Active; 'I' for Inactive)
REMARK       I    between atoms: N_2  and  C_3 
REMARK    1  A    between atoms: N_2  and  C_22 
REMARK    2  A    between atoms: C_3  and  C_4 
REMARK    3  A    between atoms: C_4  and  N_5 
REMARK    4  A    between atoms: N_5  and  C_6 
REMARK    5  A    between atoms: C_7  and  O_8 
REMARK    6  A    between atoms: C_22  and  C_23 
REMARK       I    between atoms: C_23  and  N_24 
REMARK    7  A    between atoms: N_24  and  C_25 
ROOT
HETATM    1  C   UNL     1       7.066  32.149  59.394  1.00  0.00     0.195 C 
ENDROOT
BRANCH   1   2
HETATM    2  C   UNL     1       8.411  31.675  58.803  1.00  0.00     0.233 C 
HETATM    3  N   UNL     1       8.452  30.410  58.215  1.00  0.00    -0.347 N 
HETATM    4  C   UNL     1       9.751  29.871  57.851  1.00  0.00     0.153 C 
HETATM    5  O   UNL     1       9.434  32.335  59.007  1.00  0.00    -0.272 OA
BRANCH   3   6
HETATM    6  C   UNL     1       7.287  29.798  57.561  1.00  0.00     0.228 C 
BRANCH   6   7
HETATM    7  C   UNL     1       7.524  28.522  56.739  1.00  0.00     0.240 C 
HETATM    8  N   UNL     1       7.223  27.344  57.398  1.00  0.00    -0.324 N 
HETATM    9  H   UNL     1       6.452  27.438  58.057  1.00  0.00     0.169 HD
HETATM   10  O   UNL     1       7.953  28.612  55.591  1.00  0.00    -0.271 OA
BRANCH   8  11
HETATM   11  C   UNL     1       7.414  26.053  56.843  1.00  0.00     0.056 A 
HETATM   12  C   UNL     1       6.588  25.447  55.881  1.00  0.00     0.060 A 
HETATM   13 CL   UNL     1       5.365  26.303  55.000  1.00  0.00    -0.082 Cl
HETATM   14  C   UNL     1       6.831  24.127  55.476  1.00  0.00     0.026 A 
HETATM   15  C   UNL     1       7.914  23.416  55.993  1.00  0.00     0.002 A 
HETATM   16  C   UNL     1       8.779  24.035  56.888  1.00  0.00     0.002 A 
HETATM   17  C   UNL     1       8.540  25.349  57.294  1.00  0.00     0.031 A 
ENDBRANCH   8  11
ENDBRANCH   6   7
ENDBRANCH   3   6
ENDBRANCH   1   2
BRANCH   1  18
HETATM   18  N   UNL     1       6.788  31.265  60.538  1.00  0.00    -0.282 NA
HETATM   19  H   UNL     1       7.404  30.450  60.468  1.00  0.00     0.128 HD
BRANCH  18  20
HETATM   20  C   UNL     1       6.837  31.779  61.851  1.00  0.00     0.045 A 
HETATM   21  C   UNL     1       8.012  32.098  62.567  1.00  0.00     0.090 A 
HETATM   22  C   UNL     1       7.973  32.689  63.848  1.00  0.00     0.053 A 
HETATM   23  C   UNL     1       6.732  33.054  64.394  1.00  0.00     0.014 A 
HETATM   24  C   UNL     1       5.591  32.790  63.650  1.00  0.00     0.089 A 
HETATM   25  C   UNL     1       6.281  33.682  65.591  1.00  0.00     0.011 A 
HETATM   26  O   UNL     1       4.478  33.220  64.304  1.00  0.00    -0.309 OA
HETATM   27  C   UNL     1       5.599  32.173  62.401  1.00  0.00     0.064 A 
HETATM   28  C   UNL     1       4.896  33.761  65.481  1.00  0.00     0.087 A 
HETATM   29  C   UNL     1       4.065  34.321  66.449  1.00  0.00     0.038 A 
HETATM   30  C   UNL     1       4.690  34.829  67.591  1.00  0.00     0.003 A 
HETATM   31  C   UNL     1       6.079  34.771  67.742  1.00  0.00     0.001 A 
HETATM   32  C   UNL     1       6.891  34.201  66.750  1.00  0.00     0.015 A 
BRANCH  21  33
HETATM   33  O   UNL     1       9.245  31.784  62.046  1.00  0.00    -0.354 OA
HETATM   34  C   UNL     1       9.479  30.372  62.076  1.00  0.00     0.210 C 
ENDBRANCH  21  33
ENDBRANCH  18  20
ENDBRANCH   1  18
TORSDOF 7
ENDMDL
MODEL 7
REMARK VINA RESULT:      -9.8      2.786     10.289
REMARK  7 active torsions:
REMARK  status: ('A' for Active; 'I' for Inactive)
REMARK       I    between atoms: N_2  and  C_3 
REMARK    1  A    between atoms: N_2  and  C_22 
REMARK    2  A    between atoms: C_3  and  C_4 
REMARK    3  A    between atoms: C_4  and  N_5 
REMARK    4  A    between atoms: N_5  and  C_6 
REMARK    5  A    between atoms: C_7  and  O_8 
REMARK    6  A    between atoms: C_22  and  C_23 
REMARK       I    between atoms: C_23  and  N_24 
REMARK    7  A    between atoms: N_24  and  C_25 
ROOT
HETATM    1  C   UNL     1       6.412  27.874  55.635  1.00  0.00     0.195 C 
ENDROOT
BRANCH   1   2
HETATM    2  C   UNL     1       5.375  27.781  54.496  1.00  0.00     0.233 C 
HETATM    3  N   UNL     1       5.823  27.367  53.241  1.00  0.00    -0.347 N 
HETATM    4  C   UNL     1       4.907  27.482  52.119  1.00  0.00     0.153 C 
HETATM    5  O   UNL     1       4.235  28.224  54.671  1.00  0.00    -0.272 OA
BRANCH   3   6
HETATM    6  C   UNL     1       6.958  26.451  53.064  1.00  0.00     0.228 C 
BRANCH   6   7
HETATM    7  C   UNL     1       6.797  25.014  53.584  1.00  0.00     0.240 C 
HETATM    8  N   UNL     1       7.971  24.288  53.653  1.00  0.00    -0.324 N 
HETATM    9  H   UNL     1       8.786  24.860  53.865  1.00  0.00     0.169 HD
HETATM   10  O   UNL     1       5.680  24.604  53.896  1.00  0.00    -0.271 OA
BRANCH   8  11
HETATM   11  C   UNL     1       8.042  22.930  54.056  1.00  0.00     0.056 A 
HETATM   12  C   UNL     1       8.163  22.478  55.382  1.00  0.00     0.060 A 
HETATM   13 CL   UNL     1       7.949  23.502  56.762  1.00  0.00    -0.082 Cl
HETATM   14  C   UNL     1       8.315  21.109  55.646  1.00  0.00     0.026 A 
HETATM   15  C   UNL     1       8.309  20.181  54.605  1.00  0.00     0.002 A 
HETATM   16  C   UNL     1       8.114  20.615  53.298  1.00  0.00     0.002 A 
HETATM   17  C   UNL     1       7.963  21.977  53.031  1.00  0.00     0.031 A 
ENDBRANCH   8  11
ENDBRANCH   6   7
ENDBRANCH   3   6
ENDBRANCH   1   2
BRANCH   1  18
HETATM   18  N   UNL     1       6.980  29.230  55.562  1.00  0.00    -0.282 NA
HETATM   19  H   UNL     1       6.559  29.709  54.761  1.00  0.00     0.128 HD
BRANCH  18  20
HETATM   20  C   UNL     1       6.932  30.073  56.692  1.00  0.00     0.045 A 
HETATM   21  C   UNL     1       5.954  31.061  56.941  1.00  0.00     0.090 A 
HETATM   22  C   UNL     1       5.928  31.807  58.139  1.00  0.00     0.053 A 
HETATM   23  C   UNL     1       6.848  31.498  59.155  1.00  0.00     0.014 A 
HETATM   24  C   UNL     1       7.763  30.482  58.918  1.00  0.00     0.089 A 
HETATM   25  C   UNL     1       7.119  31.968  60.472  1.00  0.00     0.011 A 
HETATM   26  O   UNL     1       8.565  30.294  60.000  1.00  0.00    -0.309 OA
HETATM   27  C   UNL     1       7.834  29.758  57.730  1.00  0.00     0.064 A 
HETATM   28  C   UNL     1       8.175  31.195  60.943  1.00  0.00     0.087 A 
HETATM   29  C   UNL     1       8.744  31.331  62.208  1.00  0.00     0.038 A 
HETATM   30  C   UNL     1       8.196  32.317  63.035  1.00  0.00     0.003 A 
HETATM   31  C   UNL     1       7.134  33.116  62.602  1.00  0.00     0.001 A 
HETATM   32  C   UNL     1       6.582  32.954  61.323  1.00  0.00     0.015 A 
BRANCH  21  33
HETATM   33  O   UNL     1       5.018  31.365  55.980  1.00  0.00    -0.354 OA
HETATM   34  C   UNL     1       4.643  32.745  56.036  1.00  0.00     0.210 C 
ENDBRANCH  21  33
ENDBRANCH  18  20
ENDBRANCH   1  18
TORSDOF 7
ENDMDL
MODEL 8
REMARK VINA RESULT:      -9.8      2.120      3.011
REMARK  7 active torsions:
REMARK  status: ('A' for Active; 'I' for Inactive)
REMARK       I    between atoms: N_2  and  C_3 
REMARK    1  A    between atoms: N_2  and  C_22 
REMARK    2  A    between atoms: C_3  and  C_4 
REMARK    3  A    between atoms: C_4  and  N_5 
REMARK    4  A    between atoms: N_5  and  C_6 
REMARK    5  A    between atoms: C_7  and  O_8 
REMARK    6  A    between atoms: C_22  and  C_23 
REMARK       I    between atoms: C_23  and  N_24 
REMARK    7  A    between atoms: N_24  and  C_25 
ROOT
HETATM    1  C   UNL     1       5.652  28.278  54.198  1.00  0.00     0.195 C 
ENDROOT
BRANCH   1   2
HETATM    2  C   UNL     1       4.790  29.067  55.206  1.00  0.00     0.233 C 
HETATM    3  N   UNL     1       5.384  29.453  56.409  1.00  0.00    -0.347 N 
HETATM    4  C   UNL     1       4.527  30.003  57.445  1.00  0.00     0.153 C 
HETATM    5  O   UNL     1       3.577  29.191  55.006  1.00  0.00    -0.272 OA
BRANCH   3   6
HETATM    6  C   UNL     1       6.820  29.738  56.530  1.00  0.00     0.228 C 
BRANCH   6   7
HETATM    7  C   UNL     1       7.396  29.885  57.947  1.00  0.00     0.240 C 
HETATM    8  N   UNL     1       7.369  31.172  58.453  1.00  0.00    -0.324 N 
HETATM    9  H   UNL     1       6.573  31.716  58.124  1.00  0.00     0.169 HD
HETATM   10  O   UNL     1       7.834  28.895  58.529  1.00  0.00    -0.271 OA
BRANCH   8  11
HETATM   11  C   UNL     1       7.894  31.538  59.718  1.00  0.00     0.056 A 
HETATM   12  C   UNL     1       9.258  31.683  60.025  1.00  0.00     0.060 A 
HETATM   13 CL   UNL     1      10.506  31.726  58.823  1.00  0.00    -0.082 Cl
HETATM   14  C   UNL     1       9.658  31.962  61.339  1.00  0.00     0.026 A 
HETATM   15  C   UNL     1       8.708  32.135  62.347  1.00  0.00     0.002 A 
HETATM   16  C   UNL     1       7.355  32.067  62.035  1.00  0.00     0.002 A 
HETATM   17  C   UNL     1       6.953  31.790  60.727  1.00  0.00     0.031 A 
ENDBRANCH   8  11
ENDBRANCH   6   7
ENDBRANCH   3   6
ENDBRANCH   1   2
BRANCH   1  18
HETATM   18  N   UNL     1       5.065  26.930  54.126  1.00  0.00    -0.282 NA
HETATM   19  H   UNL     1       4.675  26.802  53.188  1.00  0.00     0.128 HD
BRANCH  18  20
HETATM   20  C   UNL     1       5.846  25.805  54.466  1.00  0.00     0.045 A 
HETATM   21  C   UNL     1       6.162  25.388  55.777  1.00  0.00     0.090 A 
HETATM   22  C   UNL     1       6.879  24.200  56.036  1.00  0.00     0.053 A 
HETATM   23  C   UNL     1       7.214  23.358  54.963  1.00  0.00     0.014 A 
HETATM   24  C   UNL     1       6.841  23.752  53.686  1.00  0.00     0.089 A 
HETATM   25  C   UNL     1       7.874  22.105  54.808  1.00  0.00     0.011 A 
HETATM   26  O   UNL     1       7.218  22.824  52.765  1.00  0.00    -0.309 OA
HETATM   27  C   UNL     1       6.167  24.937  53.400  1.00  0.00     0.064 A 
HETATM   28  C   UNL     1       7.844  21.825  53.445  1.00  0.00     0.087 A 
HETATM   29  C   UNL     1       8.382  20.675  52.870  1.00  0.00     0.038 A 
HETATM   30  C   UNL     1       8.983  19.763  53.743  1.00  0.00     0.003 A 
HETATM   31  C   UNL     1       9.034  20.005  55.118  1.00  0.00     0.001 A 
HETATM   32  C   UNL     1       8.482  21.171  55.669  1.00  0.00     0.015 A 
BRANCH  21  33
HETATM   33  O   UNL     1       5.820  26.173  56.853  1.00  0.00    -0.354 OA
HETATM   34  C   UNL     1       4.641  25.684  57.501  1.00  0.00     0.210 C 
ENDBRANCH  21  33
ENDBRANCH  18  20
ENDBRANCH   1  18
TORSDOF 7
ENDMDL
MODEL 9
REMARK VINA RESULT:      -9.6      2.165      3.105
REMARK  7 active torsions:
REMARK  status: ('A' for Active; 'I' for Inactive)
REMARK       I    between atoms: N_2  and  C_3 
REMARK    1  A    between atoms: N_2  and  C_22 
REMARK    2  A    between atoms: C_3  and  C_4 
REMARK    3  A    between atoms: C_4  and  N_5 
REMARK    4  A    between atoms: N_5  and  C_6 
REMARK    5  A    between atoms: C_7  and  O_8 
REMARK    6  A    between atoms: C_22  and  C_23 
REMARK       I    between atoms: C_23  and  N_24 
REMARK    7  A    between atoms: N_24  and  C_25 
ROOT
HETATM    1  C   UNL     1       4.138  28.080  54.395  1.00  0.00     0.195 C 
ENDROOT
BRANCH   1   2
HETATM    2  C   UNL     1       4.037  29.609  54.210  1.00  0.00     0.233 C 
HETATM    3  N   UNL     1       3.753  30.383  55.336  1.00  0.00    -0.347 N 
HETATM    4  C   UNL     1       3.446  31.789  55.136  1.00  0.00     0.153 C 
HETATM    5  O   UNL     1       4.042  30.088  53.071  1.00  0.00    -0.272 OA
BRANCH   3   6
HETATM    6  C   UNL     1       4.160  29.991  56.693  1.00  0.00     0.228 C 
BRANCH   6   7
HETATM    7  C   UNL     1       5.604  30.299  57.117  1.00  0.00     0.240 C 
HETATM    8  N   UNL     1       5.749  30.696  58.433  1.00  0.00    -0.324 N 
HETATM    9  H   UNL     1       5.073  30.263  59.060  1.00  0.00     0.169 HD
HETATM   10  O   UNL     1       6.514  30.185  56.297  1.00  0.00    -0.271 OA
BRANCH   8  11
HETATM   11  C   UNL     1       6.985  31.075  59.016  1.00  0.00     0.056 A 
HETATM   12  C   UNL     1       7.184  32.177  59.865  1.00  0.00     0.060 A 
HETATM   13 CL   UNL     1       5.886  33.080  60.574  1.00  0.00    -0.082 Cl
HETATM   14  C   UNL     1       8.475  32.502  60.306  1.00  0.00     0.026 A 
HETATM   15  C   UNL     1       9.567  31.716  59.939  1.00  0.00     0.002 A 
HETATM   16  C   UNL     1       9.368  30.581  59.161  1.00  0.00     0.002 A 
HETATM   17  C   UNL     1       8.084  30.255  58.720  1.00  0.00     0.031 A 
ENDBRANCH   8  11
ENDBRANCH   6   7
ENDBRANCH   3   6
ENDBRANCH   1   2
BRANCH   1  18
HETATM   18  N   UNL     1       5.575  27.758  54.356  1.00  0.00    -0.282 NA
HETATM   19  H   UNL     1       5.987  28.032  55.252  1.00  0.00     0.128 HD
BRANCH  18  20
HETATM   20  C   UNL     1       5.992  26.451  54.027  1.00  0.00     0.045 A 
HETATM   21  C   UNL     1       6.315  25.991  52.731  1.00  0.00     0.090 A 
HETATM   22  C   UNL     1       6.808  24.689  52.498  1.00  0.00     0.053 A 
HETATM   23  C   UNL     1       7.070  23.852  53.594  1.00  0.00     0.014 A 
HETATM   24  C   UNL     1       6.806  24.342  54.865  1.00  0.00     0.089 A 
HETATM   25  C   UNL     1       7.585  22.536  53.782  1.00  0.00     0.011 A 
HETATM   26  O   UNL     1       7.131  23.423  55.814  1.00  0.00    -0.309 OA
HETATM   27  C   UNL     1       6.284  25.608  55.120  1.00  0.00     0.064 A 
HETATM   28  C   UNL     1       7.603  22.328  55.157  1.00  0.00     0.087 A 
HETATM   29  C   UNL     1       8.049  21.156  55.766  1.00  0.00     0.038 A 
HETATM   30  C   UNL     1       8.502  20.144  54.914  1.00  0.00     0.003 A 
HETATM   31  C   UNL     1       8.501  20.312  53.527  1.00  0.00     0.001 A 
HETATM   32  C   UNL     1       8.046  21.504  52.943  1.00  0.00     0.015 A 
BRANCH  21  33
HETATM   33  O   UNL     1       6.102  26.798  51.638  1.00  0.00    -0.354 OA
HETATM   34  C   UNL     1       5.144  26.222  50.744  1.00  0.00     0.210 C 
ENDBRANCH  21  33
ENDBRANCH  18  20
ENDBRANCH   1  18
TORSDOF 7
ENDMDL
MODEL 10
REMARK VINA RESULT:      -9.5      3.580      9.992
REMARK  7 active torsions:
REMARK  status: ('A' for Active; 'I' for Inactive)
REMARK       I    between atoms: N_2  and  C_3 
REMARK    1  A    between atoms: N_2  and  C_22 
REMARK    2  A    between atoms: C_3  and  C_4 
REMARK    3  A    between atoms: C_4  and  N_5 
REMARK    4  A    between atoms: N_5  and  C_6 
REMARK    5  A    between atoms: C_7  and  O_8 
REMARK    6  A    between atoms: C_22  and  C_23 
REMARK       I    between atoms: C_23  and  N_24 
REMARK    7  A    between atoms: N_24  and  C_25 
ROOT
HETATM    1  C   UNL     1       6.305  28.503  53.832  1.00  0.00     0.195 C 
ENDROOT
BRANCH   1   2
HETATM    2  C   UNL     1       5.512  27.564  52.900  1.00  0.00     0.233 C 
HETATM    3  N   UNL     1       6.212  26.540  52.260  1.00  0.00    -0.347 N 
HETATM    4  C   UNL     1       5.524  25.789  51.223  1.00  0.00     0.153 C 
HETATM    5  O   UNL     1       4.340  27.832  52.615  1.00  0.00    -0.272 OA
BRANCH   3   6
HETATM    6  C   UNL     1       7.401  25.904  52.844  1.00  0.00     0.228 C 
BRANCH   6   7
HETATM    7  C   UNL     1       7.176  24.726  53.804  1.00  0.00     0.240 C 
HETATM    8  N   UNL     1       8.233  23.838  53.889  1.00  0.00    -0.324 N 
HETATM    9  H   UNL     1       9.142  24.283  53.768  1.00  0.00     0.169 HD
HETATM   10  O   UNL     1       6.113  24.637  54.415  1.00  0.00    -0.271 OA
BRANCH   8  11
HETATM   11  C   UNL     1       8.216  22.658  54.675  1.00  0.00     0.056 A 
HETATM   12  C   UNL     1       7.986  21.359  54.192  1.00  0.00     0.060 A 
HETATM   13 CL   UNL     1       7.977  20.956  52.507  1.00  0.00    -0.082 Cl
HETATM   14  C   UNL     1       7.904  20.281  55.085  1.00  0.00     0.026 A 
HETATM   15  C   UNL     1       8.088  20.479  56.454  1.00  0.00     0.002 A 
HETATM   16  C   UNL     1       8.391  21.749  56.930  1.00  0.00     0.002 A 
HETATM   17  C   UNL     1       8.473  22.825  56.044  1.00  0.00     0.031 A 
ENDBRANCH   8  11
ENDBRANCH   6   7
ENDBRANCH   3   6
ENDBRANCH   1   2
BRANCH   1  18
HETATM   18  N   UNL     1       5.584  28.509  55.116  1.00  0.00    -0.282 NA
HETATM   19  H   UNL     1       5.133  27.597  55.233  1.00  0.00     0.128 HD
BRANCH  18  20
HETATM   20  C   UNL     1       6.266  28.850  56.303  1.00  0.00     0.045 A 
HETATM   21  C   UNL     1       7.382  28.170  56.836  1.00  0.00     0.090 A 
HETATM   22  C   UNL     1       8.062  28.626  57.986  1.00  0.00     0.053 A 
HETATM   23  C   UNL     1       7.673  29.843  58.570  1.00  0.00     0.014 A 
HETATM   24  C   UNL     1       6.614  30.531  57.996  1.00  0.00     0.089 A 
HETATM   25  C   UNL     1       8.107  30.639  59.669  1.00  0.00     0.011 A 
HETATM   26  O   UNL     1       6.376  31.693  58.662  1.00  0.00    -0.309 OA
HETATM   27  C   UNL     1       5.902  30.083  56.885  1.00  0.00     0.064 A 
HETATM   28  C   UNL     1       7.281  31.759  59.677  1.00  0.00     0.087 A 
HETATM   29  C   UNL     1       7.380  32.799  60.599  1.00  0.00     0.038 A 
HETATM   30  C   UNL     1       8.383  32.682  61.567  1.00  0.00     0.003 A 
HETATM   31  C   UNL     1       9.234  31.573  61.595  1.00  0.00     0.001 A 
HETATM   32  C   UNL     1       9.111  30.542  60.652  1.00  0.00     0.015 A 
BRANCH  21  33
HETATM   33  O   UNL     1       7.810  26.992  56.268  1.00  0.00    -0.354 OA
HETATM   34  C   UNL     1       8.349  26.105  57.253  1.00  0.00     0.210 C 
ENDBRANCH  21  33
ENDBRANCH  18  20
ENDBRANCH   1  18
TORSDOF 7
ENDMDL
