MODEL 1
REMARK VINA RESULT:     -10.4      0.000      0.000
REMARK  8 active torsions:
REMARK  status: ('A' for Active; 'I' for Inactive)
REMARK    1  A    between atoms: C_4  and  C_5 
REMARK    2  A    between atoms: C_5  and  N_6 
REMARK    3  A    between atoms: N_10  and  C_12 
REMARK    4  A    between atoms: C_12  and  C_13 
REMARK       I    between atoms: C_13  and  N_14 
REMARK    5  A    between atoms: N_14  and  C_15 
REMARK    6  A    between atoms: C_17  and  S_18 
REMARK    7  A    between atoms: S_18  and  C_19 
REMARK    8  A    between atoms: C_22  and  N_23 
ROOT
HETATM    1  C   UNL     1       9.372  30.254  58.101  1.00  0.00     0.249 C 
HETATM    2  N   UNL     1       8.196  29.553  58.067  1.00  0.00    -0.304 N 
HETATM    3  O   UNL     1      10.408  30.068  57.462  1.00  0.00    -0.271 OA
HETATM    4  H   UNL     1       7.374  29.805  58.601  1.00  0.00     0.171 HD
ENDROOT
BRANCH   2   5
HETATM    5  C   UNL     1       8.080  28.386  57.358  1.00  0.00     0.174 A 
HETATM    6  S   UNL     1       7.357  28.572  55.829  1.00  0.00    -0.038 SA
HETATM    7  C   UNL     1       7.408  26.872  55.620  1.00  0.00     0.125 A 
HETATM    8  C   UNL     1       8.012  26.296  56.720  1.00  0.00     0.151 A 
HETATM    9  N   UNL     1       8.417  27.177  57.712  1.00  0.00    -0.234 NA
BRANCH   7  10
HETATM   10  S   UNL     1       6.695  26.180  54.159  1.00  0.00     0.214 S 
HETATM   11  O   UNL     1       5.269  26.234  54.405  1.00  0.00    -0.217 OA
HETATM   12  O   UNL     1       7.310  26.854  53.035  1.00  0.00    -0.217 OA
BRANCH  10  13
HETATM   13  C   UNL     1       7.198  24.478  54.143  1.00  0.00     0.065 A 
HETATM   14  C   UNL     1       7.820  23.954  53.005  1.00  0.00     0.026 A 
HETATM   15  C   UNL     1       8.241  22.621  52.998  1.00  0.00     0.037 A 
HETATM   16  C   UNL     1       8.048  21.826  54.138  1.00  0.00     0.102 A 
HETATM   17  C   UNL     1       7.444  22.361  55.287  1.00  0.00     0.037 A 
HETATM   18  C   UNL     1       7.022  23.694  55.291  1.00  0.00     0.026 A 
BRANCH  16  19
HETATM   19  N   UNL     1       8.475  20.420  54.127  1.00  0.00    -0.116 N 
HETATM   20  O   UNL     1       8.574  19.860  53.027  1.00  0.00    -0.532 OA
HETATM   21  O   UNL     1       8.681  19.877  55.221  1.00  0.00    -0.532 OA
ENDBRANCH  16  19
ENDBRANCH  10  13
ENDBRANCH   7  10
ENDBRANCH   2   5
BRANCH   1  22
HETATM   22  C   UNL     1       9.386  31.435  59.075  1.00  0.00     0.337 C 
BRANCH  22  23
HETATM   23  N   UNL     1       8.354  31.180  60.210  1.00  0.00    -0.060 N 
HETATM   24  C   UNL     1       9.037  30.963  61.561  1.00  0.00     0.263 C 
HETATM   25  C   UNL     1       7.997  30.682  62.669  1.00  0.00     0.263 C 
HETATM   26  N   UNL     1       6.926  31.772  62.725  1.00  0.00    -0.064 N 
HETATM   27  H   UNL     1       6.219  31.425  63.393  1.00  0.00     0.280 HD
HETATM   28  C   UNL     1       6.223  31.928  61.382  1.00  0.00     0.263 C 
HETATM   29  C   UNL     1       7.227  32.194  60.227  1.00  0.00     0.263 C 
HETATM   30  H   UNL     1       7.971  30.249  59.933  1.00  0.00     0.280 HD
BRANCH  26  31
HETATM   31  C   UNL     1       7.365  33.104  63.324  1.00  0.00     0.273 C 
BRANCH  31  32
HETATM   32  C   UNL     1       6.593  33.509  64.545  1.00  0.00    -0.033 A 
HETATM   33  C   UNL     1       7.267  33.878  65.722  1.00  0.00     0.009 A 
HETATM   34  C   UNL     1       6.552  34.235  66.865  1.00  0.00     0.001 A 
HETATM   35  C   UNL     1       5.159  34.230  66.845  1.00  0.00     0.000 A 
HETATM   36  C   UNL     1       4.479  33.879  65.681  1.00  0.00     0.001 A 
HETATM   37  C   UNL     1       5.189  33.523  64.534  1.00  0.00     0.009 A 
ENDBRANCH  31  32
ENDBRANCH  26  31
ENDBRANCH  22  23
ENDBRANCH   1  22
TORSDOF 8
ENDMDL
MODEL 2
REMARK VINA RESULT:     -10.4      3.780     12.111
REMARK  8 active torsions:
REMARK  status: ('A' for Active; 'I' for Inactive)
REMARK    1  A    between atoms: C_4  and  C_5 
REMARK    2  A    between atoms: C_5  and  N_6 
REMARK    3  A    between atoms: N_10  and  C_12 
REMARK    4  A    between atoms: C_12  and  C_13 
REMARK       I    between atoms: C_13  and  N_14 
REMARK    5  A    between atoms: N_14  and  C_15 
REMARK    6  A    between atoms: C_17  and  S_18 
REMARK    7  A    between atoms: S_18  and  C_19 
REMARK    8  A    between atoms: C_22  and  N_23 
ROOT
HETATM    1  C   UNL     1       4.867  29.035  56.327  1.00  0.00     0.249 C 
HETATM    2  N   UNL     1       6.183  29.281  56.612  1.00  0.00    -0.304 N 
HETATM    3  O   UNL     1       3.862  29.637  56.707  1.00  0.00    -0.271 OA
HETATM    4  H   UNL     1       6.953  28.755  56.218  1.00  0.00     0.171 HD
ENDROOT
BRANCH   2   5
HETATM    5  C   UNL     1       6.550  30.220  57.540  1.00  0.00     0.174 A 
HETATM    6  S   UNL     1       7.858  29.751  58.522  1.00  0.00    -0.038 SA
HETATM    7  C   UNL     1       7.671  31.194  59.427  1.00  0.00     0.125 A 
HETATM    8  C   UNL     1       6.646  31.942  58.882  1.00  0.00     0.151 A 
HETATM    9  N   UNL     1       6.016  31.385  57.780  1.00  0.00    -0.234 NA
BRANCH   7  10
HETATM   10  S   UNL     1       8.712  31.450  60.831  1.00  0.00     0.214 S 
HETATM   11  O   UNL     1       9.160  30.119  61.184  1.00  0.00    -0.217 OA
HETATM   12  O   UNL     1       9.637  32.507  60.477  1.00  0.00    -0.217 OA
BRANCH  10  13
HETATM   13  C   UNL     1       7.642  32.042  62.117  1.00  0.00     0.065 A 
HETATM   14  C   UNL     1       8.197  32.585  63.281  1.00  0.00     0.026 A 
HETATM   15  C   UNL     1       7.357  33.075  64.284  1.00  0.00     0.037 A 
HETATM   16  C   UNL     1       5.966  33.031  64.109  1.00  0.00     0.102 A 
HETATM   17  C   UNL     1       5.412  32.507  62.930  1.00  0.00     0.037 A 
HETATM   18  C   UNL     1       6.254  32.015  61.928  1.00  0.00     0.026 A 
BRANCH  16  19
HETATM   19  N   UNL     1       5.081  33.532  65.170  1.00  0.00    -0.116 N 
HETATM   20  O   UNL     1       5.608  33.919  66.221  1.00  0.00    -0.532 OA
HETATM   21  O   UNL     1       3.861  33.508  64.956  1.00  0.00    -0.532 OA
ENDBRANCH  16  19
ENDBRANCH  10  13
ENDBRANCH   7  10
ENDBRANCH   2   5
BRANCH   1  22
HETATM   22  C   UNL     1       4.624  27.840  55.401  1.00  0.00     0.337 C 
BRANCH  22  23
HETATM   23  N   UNL     1       5.982  27.159  55.072  1.00  0.00    -0.060 N 
HETATM   24  C   UNL     1       6.247  25.952  55.973  1.00  0.00     0.263 C 
HETATM   25  C   UNL     1       7.614  25.307  55.650  1.00  0.00     0.263 C 
HETATM   26  N   UNL     1       7.736  24.964  54.165  1.00  0.00    -0.064 N 
HETATM   27  H   UNL     1       8.718  24.671  54.033  1.00  0.00     0.280 HD
HETATM   28  C   UNL     1       7.524  26.195  53.292  1.00  0.00     0.263 C 
HETATM   29  C   UNL     1       6.169  26.894  53.590  1.00  0.00     0.263 C 
HETATM   30  H   UNL     1       6.659  27.894  55.376  1.00  0.00     0.280 HD
BRANCH  26  31
HETATM   31  C   UNL     1       6.933  23.756  53.694  1.00  0.00     0.273 C 
BRANCH  31  32
HETATM   32  C   UNL     1       7.572  22.437  54.010  1.00  0.00    -0.033 A 
HETATM   33  C   UNL     1       8.140  21.658  52.987  1.00  0.00     0.009 A 
HETATM   34  C   UNL     1       8.716  20.422  53.275  1.00  0.00     0.001 A 
HETATM   35  C   UNL     1       8.735  19.950  54.586  1.00  0.00     0.000 A 
HETATM   36  C   UNL     1       8.187  20.717  55.611  1.00  0.00     0.001 A 
HETATM   37  C   UNL     1       7.611  21.956  55.329  1.00  0.00     0.009 A 
ENDBRANCH  31  32
ENDBRANCH  26  31
ENDBRANCH  22  23
ENDBRANCH   1  22
TORSDOF 8
ENDMDL
MODEL 3
REMARK VINA RESULT:      -9.9      1.828      2.662
REMARK  8 active torsions:
REMARK  status: ('A' for Active; 'I' for Inactive)
REMARK    1  A    between atoms: C_4  and  C_5 
REMARK    2  A    between atoms: C_5  and  N_6 
REMARK    3  A    between atoms: N_10  and  C_12 
REMARK    4  A    between atoms: C_12  and  C_13 
REMARK       I    between atoms: C_13  and  N_14 
REMARK    5  A    between atoms: N_14  and  C_15 
REMARK    6  A    between atoms: C_17  and  S_18 
REMARK    7  A    between atoms: S_18  and  C_19 
REMARK    8  A    between atoms: C_22  and  N_23 
ROOT
HETATM    1  C   UNL     1       6.076  29.537  57.045  1.00  0.00     0.249 C 
HETATM    2  N   UNL     1       6.570  29.774  55.790  1.00  0.00    -0.304 N 
HETATM    3  O   UNL     1       5.962  28.469  57.648  1.00  0.00    -0.271 OA
HETATM    4  H   UNL     1       6.666  30.698  55.388  1.00  0.00     0.171 HD
ENDROOT
BRANCH   2   5
HETATM    5  C   UNL     1       6.891  28.747  54.942  1.00  0.00     0.174 A 
HETATM    6  S   UNL     1       5.554  27.831  54.423  1.00  0.00    -0.038 SA
HETATM    7  C   UNL     1       6.624  26.767  53.611  1.00  0.00     0.125 A 
HETATM    8  C   UNL     1       7.919  27.218  53.767  1.00  0.00     0.151 A 
HETATM    9  N   UNL     1       8.067  28.374  54.518  1.00  0.00    -0.234 NA
BRANCH   7  10
HETATM   10  S   UNL     1       5.949  25.347  52.804  1.00  0.00     0.214 S 
HETATM   11  O   UNL     1       4.578  25.299  53.267  1.00  0.00    -0.217 OA
HETATM   12  O   UNL     1       6.286  25.466  51.401  1.00  0.00    -0.217 OA
BRANCH  10  13
HETATM   13  C   UNL     1       6.819  23.956  53.479  1.00  0.00     0.065 A 
HETATM   14  C   UNL     1       6.816  23.746  54.862  1.00  0.00     0.026 A 
HETATM   15  C   UNL     1       7.479  22.638  55.396  1.00  0.00     0.037 A 
HETATM   16  C   UNL     1       8.129  21.739  54.538  1.00  0.00     0.102 A 
HETATM   17  C   UNL     1       8.112  21.939  53.148  1.00  0.00     0.037 A 
HETATM   18  C   UNL     1       7.450  23.050  52.617  1.00  0.00     0.026 A 
BRANCH  16  19
HETATM   19  N   UNL     1       8.841  20.581  55.098  1.00  0.00    -0.116 N 
HETATM   20  O   UNL     1       8.929  19.567  54.392  1.00  0.00    -0.532 OA
HETATM   21  O   UNL     1       9.282  20.683  56.250  1.00  0.00    -0.532 OA
ENDBRANCH  16  19
ENDBRANCH  10  13
ENDBRANCH   7  10
ENDBRANCH   2   5
BRANCH   1  22
HETATM   22  C   UNL     1       5.605  30.785  57.795  1.00  0.00     0.337 C 
BRANCH  22  23
HETATM   23  N   UNL     1       6.797  31.390  58.589  1.00  0.00    -0.060 N 
HETATM   24  C   UNL     1       6.329  32.404  59.634  1.00  0.00     0.263 C 
HETATM   25  C   UNL     1       7.530  33.015  60.392  1.00  0.00     0.263 C 
HETATM   26  N   UNL     1       8.427  31.931  60.990  1.00  0.00    -0.064 N 
HETATM   27  H   UNL     1       9.256  32.432  61.349  1.00  0.00     0.280 HD
HETATM   28  C   UNL     1       8.925  30.969  59.919  1.00  0.00     0.263 C 
HETATM   29  C   UNL     1       7.756  30.339  59.113  1.00  0.00     0.263 C 
HETATM   30  H   UNL     1       7.275  31.948  57.847  1.00  0.00     0.280 HD
BRANCH  26  31
HETATM   31  C   UNL     1       7.876  31.217  62.220  1.00  0.00     0.273 C 
BRANCH  31  32
HETATM   32  C   UNL     1       7.193  32.125  63.199  1.00  0.00    -0.033 A 
HETATM   33  C   UNL     1       5.790  32.149  63.288  1.00  0.00     0.009 A 
HETATM   34  C   UNL     1       5.152  33.007  64.182  1.00  0.00     0.001 A 
HETATM   35  C   UNL     1       5.905  33.847  64.999  1.00  0.00     0.000 A 
HETATM   36  C   UNL     1       7.295  33.825  64.931  1.00  0.00     0.001 A 
HETATM   37  C   UNL     1       7.940  32.967  64.039  1.00  0.00     0.009 A 
ENDBRANCH  31  32
ENDBRANCH  26  31
ENDBRANCH  22  23
ENDBRANCH   1  22
TORSDOF 8
ENDMDL
MODEL 4
REMARK VINA RESULT:      -9.9      6.590     11.042
REMARK  8 active torsions:
REMARK  status: ('A' for Active; 'I' for Inactive)
REMARK    1  A    between atoms: C_4  and  C_5 
REMARK    2  A    between atoms: C_5  and  N_6 
REMARK    3  A    between atoms: N_10  and  C_12 
REMARK    4  A    between atoms: C_12  and  C_13 
REMARK       I    between atoms: C_13  and  N_14 
REMARK    5  A    between atoms: N_14  and  C_15 
REMARK    6  A    between atoms: C_17  and  S_18 
REMARK    7  A    between atoms: S_18  and  C_19 
REMARK    8  A    between atoms: C_22  and  N_23 
ROOT
HETATM    1  C   UNL     1       5.351  28.775  53.970  1.00  0.00     0.249 C 
HETATM    2  N   UNL     1       6.199  28.672  52.900  1.00  0.00    -0.304 N 
HETATM    3  O   UNL     1       4.119  28.786  53.989  1.00  0.00    -0.271 OA
HETATM    4  H   UNL     1       7.207  28.629  52.983  1.00  0.00     0.171 HD
ENDROOT
BRANCH   2   5
HETATM    5  C   UNL     1       5.734  28.711  51.612  1.00  0.00     0.174 A 
HETATM    6  S   UNL     1       5.182  27.212  51.028  1.00  0.00    -0.038 SA
HETATM    7  C   UNL     1       4.925  27.926  49.492  1.00  0.00     0.125 A 
HETATM    8  C   UNL     1       5.244  29.268  49.556  1.00  0.00     0.151 A 
HETATM    9  N   UNL     1       5.690  29.721  50.789  1.00  0.00    -0.234 NA
BRANCH   7  10
HETATM   10  S   UNL     1       4.377  26.898  48.164  1.00  0.00     0.214 S 
HETATM   11  O   UNL     1       5.371  27.099  47.131  1.00  0.00    -0.217 OA
HETATM   12  O   UNL     1       4.107  25.593  48.731  1.00  0.00    -0.217 OA
BRANCH  10  13
HETATM   13  C   UNL     1       2.845  27.605  47.615  1.00  0.00     0.065 A 
HETATM   14  C   UNL     1       2.829  28.910  47.112  1.00  0.00     0.026 A 
HETATM   15  C   UNL     1       1.629  29.461  46.655  1.00  0.00     0.037 A 
HETATM   16  C   UNL     1       0.454  28.695  46.693  1.00  0.00     0.102 A 
HETATM   17  C   UNL     1       0.477  27.378  47.178  1.00  0.00     0.037 A 
HETATM   18  C   UNL     1       1.679  26.828  47.636  1.00  0.00     0.026 A 
BRANCH  16  19
HETATM   19  N   UNL     1      -0.813  29.278  46.228  1.00  0.00    -0.116 N 
HETATM   20  O   UNL     1      -0.877  30.511  46.140  1.00  0.00    -0.532 OA
HETATM   21  O   UNL     1      -1.744  28.499  45.981  1.00  0.00    -0.532 OA
ENDBRANCH  16  19
ENDBRANCH  10  13
ENDBRANCH   7  10
ENDBRANCH   2   5
BRANCH   1  22
HETATM   22  C   UNL     1       6.044  28.890  55.329  1.00  0.00     0.337 C 
BRANCH  22  23
HETATM   23  N   UNL     1       6.022  27.507  56.038  1.00  0.00    -0.060 N 
HETATM   24  C   UNL     1       5.701  26.372  55.064  1.00  0.00     0.263 C 
HETATM   25  C   UNL     1       5.655  25.011  55.793  1.00  0.00     0.263 C 
HETATM   26  N   UNL     1       6.937  24.753  56.585  1.00  0.00    -0.064 N 
HETATM   27  H   UNL     1       6.751  23.898  57.134  1.00  0.00     0.280 HD
HETATM   28  C   UNL     1       7.203  25.870  57.588  1.00  0.00     0.263 C 
HETATM   29  C   UNL     1       7.241  27.266  56.908  1.00  0.00     0.263 C 
HETATM   30  H   UNL     1       5.181  27.603  56.649  1.00  0.00     0.280 HD
BRANCH  26  31
HETATM   31  C   UNL     1       8.167  24.391  55.759  1.00  0.00     0.273 C 
BRANCH  31  32
HETATM   32  C   UNL     1       8.050  23.086  55.029  1.00  0.00    -0.033 A 
HETATM   33  C   UNL     1       7.902  21.884  55.741  1.00  0.00     0.009 A 
HETATM   34  C   UNL     1       7.815  20.667  55.066  1.00  0.00     0.001 A 
HETATM   35  C   UNL     1       7.869  20.637  53.675  1.00  0.00     0.000 A 
HETATM   36  C   UNL     1       8.002  21.822  52.956  1.00  0.00     0.001 A 
HETATM   37  C   UNL     1       8.089  23.043  53.626  1.00  0.00     0.009 A 
ENDBRANCH  31  32
ENDBRANCH  26  31
ENDBRANCH  22  23
ENDBRANCH   1  22
TORSDOF 8
ENDMDL
MODEL 5
REMARK VINA RESULT:      -9.7      5.135     13.095
REMARK  8 active torsions:
REMARK  status: ('A' for Active; 'I' for Inactive)
REMARK    1  A    between atoms: C_4  and  C_5 
REMARK    2  A    between atoms: C_5  and  N_6 
REMARK    3  A    between atoms: N_10  and  C_12 
REMARK    4  A    between atoms: C_12  and  C_13 
REMARK       I    between atoms: C_13  and  N_14 
REMARK    5  A    between atoms: N_14  and  C_15 
REMARK    6  A    between atoms: C_17  and  S_18 
REMARK    7  A    between atoms: S_18  and  C_19 
REMARK    8  A    between atoms: C_22  and  N_23 
ROOT
HETATM    1  C   UNL     1       6.948  31.455  59.217  1.00  0.00     0.249 C 
HETATM    2  N   UNL     1       6.629  31.509  60.547  1.00  0.00    -0.304 N 
HETATM    3  O   UNL     1       6.615  32.212  58.305  1.00  0.00    -0.271 OA
HETATM    4  H   UNL     1       6.986  30.862  61.239  1.00  0.00     0.171 HD
ENDROOT
BRANCH   2   5
HETATM    5  C   UNL     1       5.716  32.411  61.027  1.00  0.00     0.174 A 
HETATM    6  S   UNL     1       6.409  33.820  61.682  1.00  0.00    -0.038 SA
HETATM    7  C   UNL     1       4.848  34.343  62.159  1.00  0.00     0.125 A 
HETATM    8  C   UNL     1       3.912  33.417  61.744  1.00  0.00     0.151 A 
HETATM    9  N   UNL     1       4.416  32.313  61.072  1.00  0.00    -0.234 NA
BRANCH   7  10
HETATM   10  S   UNL     1       4.705  35.848  63.073  1.00  0.00     0.214 S 
HETATM   11  O   UNL     1       5.858  36.620  62.659  1.00  0.00    -0.217 OA
HETATM   12  O   UNL     1       3.350  36.322  62.886  1.00  0.00    -0.217 OA
BRANCH  10  13
HETATM   13  C   UNL     1       4.916  35.393  64.775  1.00  0.00     0.065 A 
HETATM   14  C   UNL     1       5.885  34.444  65.121  1.00  0.00     0.026 A 
HETATM   15  C   UNL     1       6.071  34.103  66.463  1.00  0.00     0.037 A 
HETATM   16  C   UNL     1       5.294  34.724  67.452  1.00  0.00     0.102 A 
HETATM   17  C   UNL     1       4.338  35.691  67.105  1.00  0.00     0.037 A 
HETATM   18  C   UNL     1       4.152  36.031  65.761  1.00  0.00     0.026 A 
BRANCH  16  19
HETATM   19  N   UNL     1       5.477  34.354  68.863  1.00  0.00    -0.116 N 
HETATM   20  O   UNL     1       4.896  33.339  69.268  1.00  0.00    -0.532 OA
HETATM   21  O   UNL     1       6.177  35.098  69.562  1.00  0.00    -0.532 OA
ENDBRANCH  16  19
ENDBRANCH  10  13
ENDBRANCH   7  10
ENDBRANCH   2   5
BRANCH   1  22
HETATM   22  C   UNL     1       7.849  30.282  58.821  1.00  0.00     0.337 C 
BRANCH  22  23
HETATM   23  N   UNL     1       7.447  29.778  57.407  1.00  0.00    -0.060 N 
HETATM   24  C   UNL     1       8.644  29.205  56.645  1.00  0.00     0.263 C 
HETATM   25  C   UNL     1       8.230  28.737  55.232  1.00  0.00     0.263 C 
HETATM   26  N   UNL     1       7.052  27.763  55.285  1.00  0.00    -0.064 N 
HETATM   27  H   UNL     1       6.771  27.621  54.301  1.00  0.00     0.280 HD
HETATM   28  C   UNL     1       5.854  28.380  55.999  1.00  0.00     0.263 C 
HETATM   29  C   UNL     1       6.221  28.886  57.421  1.00  0.00     0.263 C 
HETATM   30  H   UNL     1       7.211  30.676  56.929  1.00  0.00     0.280 HD
BRANCH  26  31
HETATM   31  C   UNL     1       7.375  26.355  55.774  1.00  0.00     0.273 C 
BRANCH  31  32
HETATM   32  C   UNL     1       7.527  25.346  54.676  1.00  0.00    -0.033 A 
HETATM   33  C   UNL     1       7.547  23.972  54.970  1.00  0.00     0.009 A 
HETATM   34  C   UNL     1       7.709  23.033  53.953  1.00  0.00     0.001 A 
HETATM   35  C   UNL     1       7.849  23.453  52.632  1.00  0.00     0.000 A 
HETATM   36  C   UNL     1       7.818  24.810  52.325  1.00  0.00     0.001 A 
HETATM   37  C   UNL     1       7.654  25.755  53.338  1.00  0.00     0.009 A 
ENDBRANCH  31  32
ENDBRANCH  26  31
ENDBRANCH  22  23
ENDBRANCH   1  22
TORSDOF 8
ENDMDL
MODEL 6
REMARK VINA RESULT:      -9.4      3.886     11.381
REMARK  8 active torsions:
REMARK  status: ('A' for Active; 'I' for Inactive)
REMARK    1  A    between atoms: C_4  and  C_5 
REMARK    2  A    between atoms: C_5  and  N_6 
REMARK    3  A    between atoms: N_10  and  C_12 
REMARK    4  A    between atoms: C_12  and  C_13 
REMARK       I    between atoms: C_13  and  N_14 
REMARK    5  A    between atoms: N_14  and  C_15 
REMARK    6  A    between atoms: C_17  and  S_18 
REMARK    7  A    between atoms: S_18  and  C_19 
REMARK    8  A    between atoms: C_22  and  N_23 
ROOT
HETATM    1  C   UNL     1       7.436  29.427  55.897  1.00  0.00     0.249 C 
HETATM    2  N   UNL     1       8.766  29.401  56.222  1.00  0.00    -0.304 N 
HETATM    3  O   UNL     1       6.530  30.108  56.379  1.00  0.00    -0.271 OA
HETATM    4  H   UNL     1       9.452  28.834  55.740  1.00  0.00     0.171 HD
ENDROOT
BRANCH   2   5
HETATM    5  C   UNL     1       9.251  30.088  57.303  1.00  0.00     0.174 A 
HETATM    6  S   UNL     1       8.555  29.631  58.787  1.00  0.00    -0.038 SA
HETATM    7  C   UNL     1       9.441  30.874  59.564  1.00  0.00     0.125 A 
HETATM    8  C   UNL     1      10.233  31.518  58.634  1.00  0.00     0.151 A 
HETATM    9  N   UNL     1      10.136  31.046  57.333  1.00  0.00    -0.234 NA
BRANCH   7  10
HETATM   10  S   UNL     1       9.185  31.139  61.292  1.00  0.00     0.214 S 
HETATM   11  O   UNL     1       9.262  29.812  61.865  1.00  0.00    -0.217 OA
HETATM   12  O   UNL     1      10.082  32.205  61.688  1.00  0.00    -0.217 OA
BRANCH  10  13
HETATM   13  C   UNL     1       7.515  31.721  61.442  1.00  0.00     0.065 A 
HETATM   14  C   UNL     1       6.914  32.377  60.363  1.00  0.00     0.026 A 
HETATM   15  C   UNL     1       5.590  32.813  60.468  1.00  0.00     0.037 A 
HETATM   16  C   UNL     1       4.874  32.577  61.651  1.00  0.00     0.102 A 
HETATM   17  C   UNL     1       5.472  31.899  62.724  1.00  0.00     0.037 A 
HETATM   18  C   UNL     1       6.797  31.464  62.617  1.00  0.00     0.026 A 
BRANCH  16  19
HETATM   19  N   UNL     1       3.487  33.050  61.770  1.00  0.00    -0.116 N 
HETATM   20  O   UNL     1       3.017  33.165  62.910  1.00  0.00    -0.532 OA
HETATM   21  O   UNL     1       2.868  33.275  60.722  1.00  0.00    -0.532 OA
ENDBRANCH  16  19
ENDBRANCH  10  13
ENDBRANCH   7  10
ENDBRANCH   2   5
BRANCH   1  22
HETATM   22  C   UNL     1       7.032  28.470  54.773  1.00  0.00     0.337 C 
BRANCH  22  23
HETATM   23  N   UNL     1       6.490  27.150  55.389  1.00  0.00    -0.060 N 
HETATM   24  C   UNL     1       6.486  26.007  54.373  1.00  0.00     0.263 C 
HETATM   25  C   UNL     1       5.917  24.712  54.996  1.00  0.00     0.263 C 
HETATM   26  N   UNL     1       6.647  24.342  56.288  1.00  0.00    -0.064 N 
HETATM   27  H   UNL     1       6.110  23.555  56.688  1.00  0.00     0.280 HD
HETATM   28  C   UNL     1       6.586  25.476  57.304  1.00  0.00     0.263 C 
HETATM   29  C   UNL     1       7.131  26.809  56.721  1.00  0.00     0.263 C 
HETATM   30  H   UNL     1       5.487  27.394  55.545  1.00  0.00     0.280 HD
BRANCH  26  31
HETATM   31  C   UNL     1       8.051  23.771  56.117  1.00  0.00     0.273 C 
BRANCH  31  32
HETATM   32  C   UNL     1       8.117  22.568  55.223  1.00  0.00    -0.033 A 
HETATM   33  C   UNL     1       8.249  22.723  53.833  1.00  0.00     0.009 A 
HETATM   34  C   UNL     1       8.290  21.608  52.997  1.00  0.00     0.001 A 
HETATM   35  C   UNL     1       8.204  20.328  53.539  1.00  0.00     0.000 A 
HETATM   36  C   UNL     1       8.087  20.160  54.916  1.00  0.00     0.001 A 
HETATM   37  C   UNL     1       8.047  21.272  55.758  1.00  0.00     0.009 A 
ENDBRANCH  31  32
ENDBRANCH  26  31
ENDBRANCH  22  23
ENDBRANCH   1  22
TORSDOF 8
ENDMDL
MODEL 7
REMARK VINA RESULT:      -9.4      2.435      2.865
REMARK  8 active torsions:
REMARK  status: ('A' for Active; 'I' for Inactive)
REMARK    1  A    between atoms: C_4  and  C_5 
REMARK    2  A    between atoms: C_5  and  N_6 
REMARK    3  A    between atoms: N_10  and  C_12 
REMARK    4  A    between atoms: C_12  and  C_13 
REMARK       I    between atoms: C_13  and  N_14 
REMARK    5  A    between atoms: N_14  and  C_15 
REMARK    6  A    between atoms: C_17  and  S_18 
REMARK    7  A    between atoms: S_18  and  C_19 
REMARK    8  A    between atoms: C_22  and  N_23 
ROOT
HETATM    1  C   UNL     1       5.679  30.058  56.969  1.00  0.00     0.249 C 
HETATM    2  N   UNL     1       6.444  30.000  55.835  1.00  0.00    -0.304 N 
HETATM    3  O   UNL     1       5.327  29.145  57.718  1.00  0.00    -0.271 OA
HETATM    4  H   UNL     1       6.721  30.814  55.301  1.00  0.00     0.171 HD
ENDROOT
BRANCH   2   5
HETATM    5  C   UNL     1       6.819  28.803  55.285  1.00  0.00     0.174 A 
HETATM    6  S   UNL     1       5.699  28.169  54.171  1.00  0.00    -0.038 SA
HETATM    7  C   UNL     1       6.663  26.760  54.033  1.00  0.00     0.125 A 
HETATM    8  C   UNL     1       7.788  26.899  54.820  1.00  0.00     0.151 A 
HETATM    9  N   UNL     1       7.885  28.091  55.524  1.00  0.00    -0.234 NA
BRANCH   7  10
HETATM   10  S   UNL     1       6.081  25.437  53.017  1.00  0.00     0.214 S 
HETATM   11  O   UNL     1       4.679  25.322  53.357  1.00  0.00    -0.217 OA
HETATM   12  O   UNL     1       6.528  25.720  51.669  1.00  0.00    -0.217 OA
BRANCH  10  13
HETATM   13  C   UNL     1       6.921  23.985  53.598  1.00  0.00     0.065 A 
HETATM   14  C   UNL     1       6.844  23.640  54.951  1.00  0.00     0.026 A 
HETATM   15  C   UNL     1       7.482  22.483  55.408  1.00  0.00     0.037 A 
HETATM   16  C   UNL     1       8.182  21.673  54.501  1.00  0.00     0.102 A 
HETATM   17  C   UNL     1       8.238  22.009  53.140  1.00  0.00     0.037 A 
HETATM   18  C   UNL     1       7.600  23.168  52.685  1.00  0.00     0.026 A 
BRANCH  16  19
HETATM   19  N   UNL     1       8.867  20.465  54.982  1.00  0.00    -0.116 N 
HETATM   20  O   UNL     1       8.954  19.507  54.203  1.00  0.00    -0.532 OA
HETATM   21  O   UNL     1       9.290  20.472  56.146  1.00  0.00    -0.532 OA
ENDBRANCH  16  19
ENDBRANCH  10  13
ENDBRANCH   7  10
ENDBRANCH   2   5
BRANCH   1  22
HETATM   22  C   UNL     1       5.203  31.461  57.351  1.00  0.00     0.337 C 
BRANCH  22  23
HETATM   23  N   UNL     1       5.096  31.566  58.898  1.00  0.00    -0.060 N 
HETATM   24  C   UNL     1       6.229  32.403  59.493  1.00  0.00     0.263 C 
HETATM   25  C   UNL     1       6.121  32.471  61.033  1.00  0.00     0.263 C 
HETATM   26  N   UNL     1       4.741  32.956  61.479  1.00  0.00    -0.064 N 
HETATM   27  H   UNL     1       4.728  32.836  62.505  1.00  0.00     0.280 HD
HETATM   28  C   UNL     1       3.634  32.070  60.919  1.00  0.00     0.263 C 
HETATM   29  C   UNL     1       3.708  31.953  59.372  1.00  0.00     0.263 C 
HETATM   30  H   UNL     1       5.292  30.581  59.184  1.00  0.00     0.280 HD
BRANCH  26  31
HETATM   31  C   UNL     1       4.466  34.443  61.287  1.00  0.00     0.273 C 
BRANCH  31  32
HETATM   32  C   UNL     1       4.549  35.248  62.550  1.00  0.00    -0.033 A 
HETATM   33  C   UNL     1       5.368  36.389  62.613  1.00  0.00     0.009 A 
HETATM   34  C   UNL     1       5.463  37.127  63.792  1.00  0.00     0.001 A 
HETATM   35  C   UNL     1       4.740  36.738  64.918  1.00  0.00     0.000 A 
HETATM   36  C   UNL     1       3.915  35.618  64.865  1.00  0.00     0.001 A 
HETATM   37  C   UNL     1       3.814  34.876  63.687  1.00  0.00     0.009 A 
ENDBRANCH  31  32
ENDBRANCH  26  31
ENDBRANCH  22  23
ENDBRANCH   1  22
TORSDOF 8
ENDMDL
MODEL 8
REMARK VINA RESULT:      -9.3      4.679     12.921
REMARK  8 active torsions:
REMARK  status: ('A' for Active; 'I' for Inactive)
REMARK    1  A    between atoms: C_4  and  C_5 
REMARK    2  A    between atoms: C_5  and  N_6 
REMARK    3  A    between atoms: N_10  and  C_12 
REMARK    4  A    between atoms: C_12  and  C_13 
REMARK       I    between atoms: C_13  and  N_14 
REMARK    5  A    between atoms: N_14  and  C_15 
REMARK    6  A    between atoms: C_17  and  S_18 
REMARK    7  A    between atoms: S_18  and  C_19 
REMARK    8  A    between atoms: C_22  and  N_23 
ROOT
HETATM    1  C   UNL     1       6.439  29.775  57.437  1.00  0.00     0.249 C 
HETATM    2  N   UNL     1       7.040  30.893  57.949  1.00  0.00    -0.304 N 
HETATM    3  O   UNL     1       5.298  29.350  57.622  1.00  0.00    -0.271 OA
HETATM    4  H   UNL     1       7.977  31.190  57.707  1.00  0.00     0.171 HD
ENDROOT
BRANCH   2   5
HETATM    5  C   UNL     1       6.433  31.654  58.913  1.00  0.00     0.174 A 
HETATM    6  S   UNL     1       5.022  32.446  58.386  1.00  0.00    -0.038 SA
HETATM    7  C   UNL     1       4.916  33.228  59.907  1.00  0.00     0.125 A 
HETATM    8  C   UNL     1       5.946  32.791  60.716  1.00  0.00     0.151 A 
HETATM    9  N   UNL     1       6.807  31.866  60.145  1.00  0.00    -0.234 NA
BRANCH   7  10
HETATM   10  S   UNL     1       3.627  34.409  60.160  1.00  0.00     0.214 S 
HETATM   11  O   UNL     1       4.054  35.563  59.396  1.00  0.00    -0.217 OA
HETATM   12  O   UNL     1       2.378  33.727  59.894  1.00  0.00    -0.217 OA
BRANCH  10  13
HETATM   13  C   UNL     1       3.690  34.822  61.884  1.00  0.00     0.065 A 
HETATM   14  C   UNL     1       4.358  35.983  62.291  1.00  0.00     0.026 A 
HETATM   15  C   UNL     1       4.388  36.325  63.646  1.00  0.00     0.037 A 
HETATM   16  C   UNL     1       3.737  35.509  64.583  1.00  0.00     0.102 A 
HETATM   17  C   UNL     1       3.048  34.357  64.170  1.00  0.00     0.037 A 
HETATM   18  C   UNL     1       3.021  34.016  62.814  1.00  0.00     0.026 A 
BRANCH  16  19
HETATM   19  N   UNL     1       3.781  35.858  66.010  1.00  0.00    -0.116 N 
HETATM   20  O   UNL     1       2.809  35.540  66.708  1.00  0.00    -0.532 OA
HETATM   21  O   UNL     1       4.775  36.473  66.417  1.00  0.00    -0.532 OA
ENDBRANCH  16  19
ENDBRANCH  10  13
ENDBRANCH   7  10
ENDBRANCH   2   5
BRANCH   1  22
HETATM   22  C   UNL     1       7.321  28.945  56.501  1.00  0.00     0.337 C 
BRANCH  22  23
HETATM   23  N   UNL     1       6.802  27.480  56.468  1.00  0.00    -0.060 N 
HETATM   24  C   UNL     1       6.282  27.092  55.083  1.00  0.00     0.263 C 
HETATM   25  C   UNL     1       5.743  25.644  55.077  1.00  0.00     0.263 C 
HETATM   26  N   UNL     1       6.783  24.656  55.608  1.00  0.00    -0.064 N 
HETATM   27  H   UNL     1       6.285  23.754  55.691  1.00  0.00     0.280 HD
HETATM   28  C   UNL     1       7.241  25.034  57.012  1.00  0.00     0.263 C 
HETATM   29  C   UNL     1       7.776  26.490  57.077  1.00  0.00     0.263 C 
HETATM   30  H   UNL     1       5.958  27.549  57.078  1.00  0.00     0.280 HD
BRANCH  26  31
HETATM   31  C   UNL     1       7.942  24.342  54.668  1.00  0.00     0.273 C 
BRANCH  31  32
HETATM   32  C   UNL     1       8.156  22.877  54.428  1.00  0.00    -0.033 A 
HETATM   33  C   UNL     1       8.594  22.043  55.470  1.00  0.00     0.009 A 
HETATM   34  C   UNL     1       8.814  20.684  55.244  1.00  0.00     0.001 A 
HETATM   35  C   UNL     1       8.595  20.144  53.979  1.00  0.00     0.000 A 
HETATM   36  C   UNL     1       8.148  20.958  52.941  1.00  0.00     0.001 A 
HETATM   37  C   UNL     1       7.924  22.317  53.161  1.00  0.00     0.009 A 
ENDBRANCH  31  32
ENDBRANCH  26  31
ENDBRANCH  22  23
ENDBRANCH   1  22
TORSDOF 8
ENDMDL
MODEL 9
REMARK VINA RESULT:      -9.3      4.465     12.428
REMARK  8 active torsions:
REMARK  status: ('A' for Active; 'I' for Inactive)
REMARK    1  A    between atoms: C_4  and  C_5 
REMARK    2  A    between atoms: C_5  and  N_6 
REMARK    3  A    between atoms: N_10  and  C_12 
REMARK    4  A    between atoms: C_12  and  C_13 
REMARK       I    between atoms: C_13  and  N_14 
REMARK    5  A    between atoms: N_14  and  C_15 
REMARK    6  A    between atoms: C_17  and  S_18 
REMARK    7  A    between atoms: S_18  and  C_19 
REMARK    8  A    between atoms: C_22  and  N_23 
ROOT
HETATM    1  C   UNL     1       5.954  29.912  57.488  1.00  0.00     0.249 C 
HETATM    2  N   UNL     1       6.525  31.102  57.853  1.00  0.00    -0.304 N 
HETATM    3  O   UNL     1       4.799  29.682  57.126  1.00  0.00    -0.271 OA
HETATM    4  H   UNL     1       7.502  31.206  58.098  1.00  0.00     0.171 HD
ENDROOT
BRANCH   2   5
HETATM    5  C   UNL     1       5.776  32.239  58.000  1.00  0.00     0.174 A 
HETATM    6  S   UNL     1       5.261  32.530  59.596  1.00  0.00    -0.038 SA
HETATM    7  C   UNL     1       4.362  33.878  59.040  1.00  0.00     0.125 A 
HETATM    8  C   UNL     1       4.557  34.026  57.682  1.00  0.00     0.151 A 
HETATM    9  N   UNL     1       5.392  33.090  57.089  1.00  0.00    -0.234 NA
BRANCH   7  10
HETATM   10  S   UNL     1       3.370  34.767  60.201  1.00  0.00     0.214 S 
HETATM   11  O   UNL     1       3.537  36.153  59.816  1.00  0.00    -0.217 OA
HETATM   12  O   UNL     1       2.074  34.122  60.222  1.00  0.00    -0.217 OA
BRANCH  10  13
HETATM   13  C   UNL     1       4.149  34.524  61.777  1.00  0.00     0.065 A 
HETATM   14  C   UNL     1       3.656  33.545  62.646  1.00  0.00     0.026 A 
HETATM   15  C   UNL     1       4.282  33.333  63.877  1.00  0.00     0.037 A 
HETATM   16  C   UNL     1       5.408  34.095  64.224  1.00  0.00     0.102 A 
HETATM   17  C   UNL     1       5.914  35.062  63.341  1.00  0.00     0.037 A 
HETATM   18  C   UNL     1       5.285  35.273  62.110  1.00  0.00     0.026 A 
BRANCH  16  19
HETATM   19  N   UNL     1       6.058  33.886  65.525  1.00  0.00    -0.116 N 
HETATM   20  O   UNL     1       7.248  33.545  65.522  1.00  0.00    -0.532 OA
HETATM   21  O   UNL     1       5.366  34.036  66.541  1.00  0.00    -0.532 OA
ENDBRANCH  16  19
ENDBRANCH  10  13
ENDBRANCH   7  10
ENDBRANCH   2   5
BRANCH   1  22
HETATM   22  C   UNL     1       6.895  28.707  57.538  1.00  0.00     0.337 C 
BRANCH  22  23
HETATM   23  N   UNL     1       6.377  27.607  56.569  1.00  0.00    -0.060 N 
HETATM   24  C   UNL     1       7.107  27.641  55.226  1.00  0.00     0.263 C 
HETATM   25  C   UNL     1       6.558  26.561  54.267  1.00  0.00     0.263 C 
HETATM   26  N   UNL     1       6.584  25.173  54.911  1.00  0.00    -0.064 N 
HETATM   27  H   UNL     1       6.079  24.558  54.252  1.00  0.00     0.280 HD
HETATM   28  C   UNL     1       5.801  25.153  56.218  1.00  0.00     0.263 C 
HETATM   29  C   UNL     1       6.302  26.236  57.213  1.00  0.00     0.263 C 
HETATM   30  H   UNL     1       5.409  27.946  56.374  1.00  0.00     0.280 HD
BRANCH  26  31
HETATM   31  C   UNL     1       7.958  24.522  55.030  1.00  0.00     0.273 C 
BRANCH  31  32
HETATM   32  C   UNL     1       7.981  23.070  54.657  1.00  0.00    -0.033 A 
HETATM   33  C   UNL     1       8.130  22.683  53.315  1.00  0.00     0.009 A 
HETATM   34  C   UNL     1       8.130  21.333  52.963  1.00  0.00     0.001 A 
HETATM   35  C   UNL     1       7.986  20.357  53.946  1.00  0.00     0.000 A 
HETATM   36  C   UNL     1       7.851  20.727  55.282  1.00  0.00     0.001 A 
HETATM   37  C   UNL     1       7.851  22.075  55.640  1.00  0.00     0.009 A 
ENDBRANCH  31  32
ENDBRANCH  26  31
ENDBRANCH  22  23
ENDBRANCH   1  22
TORSDOF 8
ENDMDL
MODEL 10
REMARK VINA RESULT:      -9.0      4.550     12.016
REMARK  8 active torsions:
REMARK  status: ('A' for Active; 'I' for Inactive)
REMARK    1  A    between atoms: C_4  and  C_5 
REMARK    2  A    between atoms: C_5  and  N_6 
REMARK    3  A    between atoms: N_10  and  C_12 
REMARK    4  A    between atoms: C_12  and  C_13 
REMARK       I    between atoms: C_13  and  N_14 
REMARK    5  A    between atoms: N_14  and  C_15 
REMARK    6  A    between atoms: C_17  and  S_18 
REMARK    7  A    between atoms: S_18  and  C_19 
REMARK    8  A    between atoms: C_22  and  N_23 
ROOT
HETATM    1  C   UNL     1       5.103  29.606  55.126  1.00  0.00     0.249 C 
HETATM    2  N   UNL     1       4.117  30.545  54.979  1.00  0.00    -0.304 N 
HETATM    3  O   UNL     1       6.139  29.662  55.789  1.00  0.00    -0.271 OA
HETATM    4  H   UNL     1       3.272  30.396  54.442  1.00  0.00     0.171 HD
ENDROOT
BRANCH   2   5
HETATM    5  C   UNL     1       4.253  31.810  55.489  1.00  0.00     0.174 A 
HETATM    6  S   UNL     1       3.485  32.041  56.989  1.00  0.00    -0.038 SA
HETATM    7  C   UNL     1       3.910  33.699  56.930  1.00  0.00     0.125 A 
HETATM    8  C   UNL     1       4.643  33.940  55.785  1.00  0.00     0.151 A 
HETATM    9  N   UNL     1       4.857  32.841  54.966  1.00  0.00    -0.234 NA
BRANCH   7  10
HETATM   10  S   UNL     1       3.347  34.761  58.225  1.00  0.00     0.214 S 
HETATM   11  O   UNL     1       4.179  35.939  58.099  1.00  0.00    -0.217 OA
HETATM   12  O   UNL     1       1.905  34.820  58.118  1.00  0.00    -0.217 OA
BRANCH  10  13
HETATM   13  C   UNL     1       3.770  33.934  59.737  1.00  0.00     0.065 A 
HETATM   14  C   UNL     1       5.049  33.389  59.891  1.00  0.00     0.026 A 
HETATM   15  C   UNL     1       5.394  32.759  61.090  1.00  0.00     0.037 A 
HETATM   16  C   UNL     1       4.458  32.692  62.132  1.00  0.00     0.102 A 
HETATM   17  C   UNL     1       3.182  33.258  61.984  1.00  0.00     0.037 A 
HETATM   18  C   UNL     1       2.839  33.887  60.783  1.00  0.00     0.026 A 
BRANCH  16  19
HETATM   19  N   UNL     1       4.813  32.015  63.388  1.00  0.00    -0.116 N 
HETATM   20  O   UNL     1       4.940  32.717  64.401  1.00  0.00    -0.532 OA
HETATM   21  O   UNL     1       4.990  30.791  63.348  1.00  0.00    -0.532 OA
ENDBRANCH  16  19
ENDBRANCH  10  13
ENDBRANCH   7  10
ENDBRANCH   2   5
BRANCH   1  22
HETATM   22  C   UNL     1       4.870  28.307  54.352  1.00  0.00     0.337 C 
BRANCH  22  23
HETATM   23  N   UNL     1       6.165  27.448  54.383  1.00  0.00    -0.060 N 
HETATM   24  C   UNL     1       6.149  26.435  55.529  1.00  0.00     0.263 C 
HETATM   25  C   UNL     1       7.457  25.612  55.561  1.00  0.00     0.263 C 
HETATM   26  N   UNL     1       7.743  24.959  54.208  1.00  0.00    -0.064 N 
HETATM   27  H   UNL     1       8.690  24.555  54.296  1.00  0.00     0.280 HD
HETATM   28  C   UNL     1       7.810  25.997  53.094  1.00  0.00     0.263 C 
HETATM   29  C   UNL     1       6.525  26.866  53.030  1.00  0.00     0.263 C 
HETATM   30  H   UNL     1       6.878  28.163  54.647  1.00  0.00     0.280 HD
BRANCH  26  31
HETATM   31  C   UNL     1       6.871  23.760  53.852  1.00  0.00     0.273 C 
BRANCH  31  32
HETATM   32  C   UNL     1       7.532  22.433  54.082  1.00  0.00    -0.033 A 
HETATM   33  C   UNL     1       8.021  21.685  52.998  1.00  0.00     0.009 A 
HETATM   34  C   UNL     1       8.617  20.442  53.207  1.00  0.00     0.001 A 
HETATM   35  C   UNL     1       8.734  19.934  54.499  1.00  0.00     0.000 A 
HETATM   36  C   UNL     1       8.266  20.671  55.583  1.00  0.00     0.001 A 
HETATM   37  C   UNL     1       7.670  21.916  55.381  1.00  0.00     0.009 A 
ENDBRANCH  31  32
ENDBRANCH  26  31
ENDBRANCH  22  23
ENDBRANCH   1  22
TORSDOF 8
ENDMDL
