MODEL 1
REMARK VINA RESULT:     -10.3      0.000      0.000
REMARK  5 active torsions:
REMARK  status: ('A' for Active; 'I' for Inactive)
REMARK    1  A    between atoms: C_3  and  O_4 
REMARK    2  A    between atoms: C_6  and  N_7 
REMARK       I    between atoms: N_7  and  C_8 
REMARK    3  A    between atoms: C_8  and  C_9 
REMARK    4  A    between atoms: C_12  and  C_13 
REMARK    5  A    between atoms: C_18  and  C_19 
ROOT
HETATM    1  C   UNL     1       5.268  27.241  52.092  1.00  0.00     0.096 C 
HETATM    2  C   UNL     1       6.036  26.585  53.036  1.00  0.00     0.138 C 
HETATM    3  N   UNL     1       6.296  27.513  54.020  1.00  0.00    -0.240 N 
HETATM    4  C   UNL     1       7.121  27.262  55.190  1.00  0.00     0.221 C 
HETATM    5  C   UNL     1       7.326  25.749  55.391  1.00  0.00     0.066 C 
HETATM    6  C   UNL     1       7.638  25.074  54.052  1.00  0.00     0.118 C 
HETATM    7  N   UNL     1       6.531  25.317  53.116  1.00  0.00    -0.365 N 
HETATM    8  N   UNL     1       5.904  28.754  53.698  1.00  0.00    -0.181 NA
HETATM    9  C   UNL     1       5.250  28.582  52.545  1.00  0.00     0.160 C 
HETATM   10  H   UNL     1       6.675  24.812  52.238  1.00  0.00     0.161 HD
ENDROOT
BRANCH   1  11
HETATM   11  C   UNL     1       4.649  26.731  50.879  1.00  0.00     0.261 C 
HETATM   12  N   UNL     1       3.825  27.652  50.259  1.00  0.00    -0.323 N 
HETATM   13  H   UNL     1       3.847  28.587  50.652  1.00  0.00     0.169 HD
HETATM   14  O   UNL     1       4.904  25.602  50.479  1.00  0.00    -0.267 OA
BRANCH  12  15
HETATM   15  C   UNL     1       3.039  27.470  49.104  1.00  0.00     0.037 A 
HETATM   16  C   UNL     1       3.279  26.485  48.143  1.00  0.00     0.066 A 
HETATM   17  C   UNL     1       2.438  26.372  47.036  1.00  0.00     0.067 A 
HETATM   18  C   UNL     1       1.355  27.227  46.864  1.00  0.00     0.036 A 
HETATM   19  C   UNL     1       1.108  28.210  47.820  1.00  0.00     0.005 A 
HETATM   20  C   UNL     1       1.943  28.328  48.935  1.00  0.00     0.029 A 
BRANCH  17  21
HETATM   21  O   UNL     1       2.712  25.390  46.129  1.00  0.00    -0.361 OA
HETATM   22  H   UNL     1       3.601  25.533  45.767  1.00  0.00     0.217 HD
ENDBRANCH  17  21
ENDBRANCH  12  15
ENDBRANCH   1  11
BRANCH   4  23
HETATM   23  C   UNL     1       6.523  27.865  56.442  1.00  0.00     0.409 C 
HETATM   24  F   UNL     1       5.184  27.689  56.509  1.00  0.00    -0.169 F 
HETATM   25  F   UNL     1       7.048  27.249  57.536  1.00  0.00    -0.169 F 
HETATM   26  F   UNL     1       6.788  29.178  56.592  1.00  0.00    -0.169 F 
ENDBRANCH   4  23
BRANCH   6  27
HETATM   27  C   UNL     1       7.853  23.582  54.214  1.00  0.00    -0.035 A 
HETATM   28  C   UNL     1       7.922  22.986  55.488  1.00  0.00     0.012 A 
HETATM   29  C   UNL     1       8.142  21.614  55.619  1.00  0.00     0.043 A 
HETATM   30  C   UNL     1       8.296  20.833  54.481  1.00  0.00     0.116 A 
HETATM   31  F   UNL     1       8.509  19.516  54.607  1.00  0.00    -0.206 F 
HETATM   32  C   UNL     1       8.232  21.396  53.213  1.00  0.00     0.043 A 
HETATM   33  C   UNL     1       8.012  22.768  53.079  1.00  0.00     0.012 A 
ENDBRANCH   6  27
TORSDOF 5
ENDMDL
MODEL 2
REMARK VINA RESULT:     -10.2      4.065      7.766
REMARK  5 active torsions:
REMARK  status: ('A' for Active; 'I' for Inactive)
REMARK    1  A    between atoms: C_3  and  O_4 
REMARK    2  A    between atoms: C_6  and  N_7 
REMARK       I    between atoms: N_7  and  C_8 
REMARK    3  A    between atoms: C_8  and  C_9 
REMARK    4  A    between atoms: C_12  and  C_13 
REMARK    5  A    between atoms: C_18  and  C_19 
ROOT
HETATM    1  C   UNL     1       6.777  27.919  55.367  1.00  0.00     0.096 C 
HETATM    2  C   UNL     1       6.576  26.736  54.681  1.00  0.00     0.138 C 
HETATM    3  N   UNL     1       5.686  27.034  53.672  1.00  0.00    -0.240 N 
HETATM    4  C   UNL     1       5.154  26.062  52.731  1.00  0.00     0.221 C 
HETATM    5  C   UNL     1       6.000  24.776  52.748  1.00  0.00     0.066 C 
HETATM    6  C   UNL     1       6.324  24.375  54.191  1.00  0.00     0.118 C 
HETATM    7  N   UNL     1       7.052  25.469  54.847  1.00  0.00    -0.365 N 
HETATM    8  N   UNL     1       5.171  28.268  53.764  1.00  0.00    -0.181 NA
HETATM    9  C   UNL     1       5.858  28.816  54.772  1.00  0.00     0.160 C 
HETATM   10  H   UNL     1       7.351  25.200  55.788  1.00  0.00     0.161 HD
ENDROOT
BRANCH   1  11
HETATM   11  C   UNL     1       7.669  28.209  56.479  1.00  0.00     0.261 C 
HETATM   12  N   UNL     1       7.555  29.506  56.945  1.00  0.00    -0.323 N 
HETATM   13  H   UNL     1       6.797  30.046  56.542  1.00  0.00     0.169 HD
HETATM   14  O   UNL     1       8.397  27.336  56.935  1.00  0.00    -0.267 OA
BRANCH  12  15
HETATM   15  C   UNL     1       8.302  30.126  57.967  1.00  0.00     0.037 A 
HETATM   16  C   UNL     1       7.969  30.070  59.322  1.00  0.00     0.066 A 
HETATM   17  C   UNL     1       8.776  30.706  60.264  1.00  0.00     0.067 A 
HETATM   18  C   UNL     1       9.916  31.404  59.882  1.00  0.00     0.036 A 
HETATM   19  C   UNL     1      10.257  31.462  58.533  1.00  0.00     0.005 A 
HETATM   20  C   UNL     1       9.455  30.823  57.581  1.00  0.00     0.029 A 
BRANCH  17  21
HETATM   21  O   UNL     1       8.411  30.616  61.576  1.00  0.00    -0.361 OA
HETATM   22  H   UNL     1       7.523  30.228  61.631  1.00  0.00     0.217 HD
ENDBRANCH  17  21
ENDBRANCH  12  15
ENDBRANCH   1  11
BRANCH   4  23
HETATM   23  C   UNL     1       5.096  26.614  51.323  1.00  0.00     0.409 C 
HETATM   24  F   UNL     1       6.248  27.221  50.960  1.00  0.00    -0.169 F 
HETATM   25  F   UNL     1       4.906  25.591  50.445  1.00  0.00    -0.169 F 
HETATM   26  F   UNL     1       4.079  27.474  51.119  1.00  0.00    -0.169 F 
ENDBRANCH   4  23
BRANCH   6  27
HETATM   27  C   UNL     1       7.151  23.105  54.246  1.00  0.00    -0.035 A 
HETATM   28  C   UNL     1       7.601  22.472  53.072  1.00  0.00     0.012 A 
HETATM   29  C   UNL     1       8.344  21.292  53.140  1.00  0.00     0.043 A 
HETATM   30  C   UNL     1       8.637  20.738  54.380  1.00  0.00     0.116 A 
HETATM   31  F   UNL     1       9.348  19.604  54.446  1.00  0.00    -0.206 F 
HETATM   32  C   UNL     1       8.203  21.342  55.553  1.00  0.00     0.043 A 
HETATM   33  C   UNL     1       7.462  22.523  55.487  1.00  0.00     0.012 A 
ENDBRANCH   6  27
TORSDOF 5
ENDMDL
MODEL 3
REMARK VINA RESULT:      -9.9      4.631      8.475
REMARK  5 active torsions:
REMARK  status: ('A' for Active; 'I' for Inactive)
REMARK    1  A    between atoms: C_3  and  O_4 
REMARK    2  A    between atoms: C_6  and  N_7 
REMARK       I    between atoms: N_7  and  C_8 
REMARK    3  A    between atoms: C_8  and  C_9 
REMARK    4  A    between atoms: C_12  and  C_13 
REMARK    5  A    between atoms: C_18  and  C_19 
ROOT
HETATM    1  C   UNL     1       6.076  29.129  56.847  1.00  0.00     0.096 C 
HETATM    2  C   UNL     1       5.919  28.100  55.938  1.00  0.00     0.138 C 
HETATM    3  N   UNL     1       4.882  28.482  55.114  1.00  0.00    -0.240 N 
HETATM    4  C   UNL     1       4.344  27.667  54.038  1.00  0.00     0.221 C 
HETATM    5  C   UNL     1       5.318  26.528  53.685  1.00  0.00     0.066 C 
HETATM    6  C   UNL     1       5.862  25.881  54.962  1.00  0.00     0.118 C 
HETATM    7  N   UNL     1       6.544  26.900  55.771  1.00  0.00    -0.365 N 
HETATM    8  N   UNL     1       4.254  29.590  55.530  1.00  0.00    -0.181 NA
HETATM    9  C   UNL     1       4.998  30.001  56.561  1.00  0.00     0.160 C 
HETATM   10  H   UNL     1       6.987  26.482  56.593  1.00  0.00     0.161 HD
ENDROOT
BRANCH   1  11
HETATM   11  C   UNL     1       7.064  29.296  57.901  1.00  0.00     0.261 C 
HETATM   12  N   UNL     1       7.000  30.532  58.519  1.00  0.00    -0.323 N 
HETATM   13  H   UNL     1       6.213  31.111  58.247  1.00  0.00     0.169 HD
HETATM   14  O   UNL     1       7.824  28.380  58.191  1.00  0.00    -0.267 OA
BRANCH  12  15
HETATM   15  C   UNL     1       7.837  31.036  59.533  1.00  0.00     0.037 A 
HETATM   16  C   UNL     1       7.451  31.175  60.868  1.00  0.00     0.066 A 
HETATM   17  C   UNL     1       8.354  31.673  61.806  1.00  0.00     0.067 A 
HETATM   18  C   UNL     1       9.644  32.040  61.440  1.00  0.00     0.036 A 
HETATM   19  C   UNL     1      10.038  31.902  60.111  1.00  0.00     0.005 A 
HETATM   20  C   UNL     1       9.141  31.399  59.164  1.00  0.00     0.029 A 
BRANCH  17  21
HETATM   21  O   UNL     1       7.929  31.784  63.099  1.00  0.00    -0.361 OA
HETATM   22  H   UNL     1       8.440  31.172  63.652  1.00  0.00     0.217 HD
ENDBRANCH  17  21
ENDBRANCH  12  15
ENDBRANCH   1  11
BRANCH   4  23
HETATM   23  C   UNL     1       4.051  28.487  52.801  1.00  0.00     0.409 C 
HETATM   24  F   UNL     1       4.937  29.493  52.629  1.00  0.00    -0.169 F 
HETATM   25  F   UNL     1       4.149  27.694  51.700  1.00  0.00    -0.169 F 
HETATM   26  F   UNL     1       2.807  29.006  52.776  1.00  0.00    -0.169 F 
ENDBRANCH   4  23
BRANCH   6  27
HETATM   27  C   UNL     1       6.820  24.748  54.651  1.00  0.00    -0.035 A 
HETATM   28  C   UNL     1       7.689  24.233  55.633  1.00  0.00     0.012 A 
HETATM   29  C   UNL     1       8.580  23.204  55.323  1.00  0.00     0.043 A 
HETATM   30  C   UNL     1       8.610  22.687  54.034  1.00  0.00     0.116 A 
HETATM   31  F   UNL     1       9.467  21.701  53.737  1.00  0.00    -0.206 F 
HETATM   32  C   UNL     1       7.764  23.178  53.048  1.00  0.00     0.043 A 
HETATM   33  C   UNL     1       6.871  24.207  53.355  1.00  0.00     0.012 A 
ENDBRANCH   6  27
TORSDOF 5
ENDMDL
MODEL 4
REMARK VINA RESULT:      -9.8      4.268      8.526
REMARK  5 active torsions:
REMARK  status: ('A' for Active; 'I' for Inactive)
REMARK    1  A    between atoms: C_3  and  O_4 
REMARK    2  A    between atoms: C_6  and  N_7 
REMARK       I    between atoms: N_7  and  C_8 
REMARK    3  A    between atoms: C_8  and  C_9 
REMARK    4  A    between atoms: C_12  and  C_13 
REMARK    5  A    between atoms: C_18  and  C_19 
ROOT
HETATM    1  C   UNL     1       8.362  25.421  56.591  1.00  0.00     0.096 C 
HETATM    2  C   UNL     1       7.971  25.204  55.283  1.00  0.00     0.138 C 
HETATM    3  N   UNL     1       8.430  23.946  54.957  1.00  0.00    -0.240 N 
HETATM    4  C   UNL     1       8.283  23.330  53.649  1.00  0.00     0.221 C 
HETATM    5  C   UNL     1       7.222  24.075  52.818  1.00  0.00     0.066 C 
HETATM    6  C   UNL     1       7.409  25.589  52.956  1.00  0.00     0.118 C 
HETATM    7  N   UNL     1       7.302  25.966  54.372  1.00  0.00    -0.365 N 
HETATM    8  N   UNL     1       9.230  23.413  55.892  1.00  0.00    -0.181 NA
HETATM    9  C   UNL     1       9.161  24.292  56.896  1.00  0.00     0.160 C 
HETATM   10  H   UNL     1       7.344  26.981  54.488  1.00  0.00     0.161 HD
ENDROOT
BRANCH   1  11
HETATM   11  C   UNL     1       8.089  26.547  57.469  1.00  0.00     0.261 C 
HETATM   12  N   UNL     1       8.574  27.747  56.983  1.00  0.00    -0.323 N 
HETATM   13  H   UNL     1       8.948  27.714  56.041  1.00  0.00     0.169 HD
HETATM   14  O   UNL     1       7.454  26.388  58.504  1.00  0.00    -0.267 OA
BRANCH  12  15
HETATM   15  C   UNL     1       8.529  29.013  57.602  1.00  0.00     0.037 A 
HETATM   16  C   UNL     1       9.634  29.854  57.743  1.00  0.00     0.066 A 
HETATM   17  C   UNL     1       9.490  31.096  58.359  1.00  0.00     0.067 A 
HETATM   18  C   UNL     1       8.258  31.521  58.843  1.00  0.00     0.036 A 
HETATM   19  C   UNL     1       7.150  30.689  58.703  1.00  0.00     0.005 A 
HETATM   20  C   UNL     1       7.284  29.443  58.082  1.00  0.00     0.029 A 
BRANCH  17  21
HETATM   21  O   UNL     1      10.600  31.883  58.468  1.00  0.00    -0.361 OA
HETATM   22  H   UNL     1      11.331  31.351  58.819  1.00  0.00     0.217 HD
ENDBRANCH  17  21
ENDBRANCH  12  15
ENDBRANCH   1  11
BRANCH   4  23
HETATM   23  C   UNL     1       7.912  21.867  53.753  1.00  0.00     0.409 C 
HETATM   24  F   UNL     1       7.226  21.432  52.672  1.00  0.00    -0.169 F 
HETATM   25  F   UNL     1       9.045  21.117  53.819  1.00  0.00    -0.169 F 
HETATM   26  F   UNL     1       7.201  21.565  54.858  1.00  0.00    -0.169 F 
ENDBRANCH   4  23
BRANCH   6  27
HETATM   27  C   UNL     1       6.384  26.356  52.143  1.00  0.00    -0.035 A 
HETATM   28  C   UNL     1       6.031  27.679  52.470  1.00  0.00     0.012 A 
HETATM   29  C   UNL     1       5.070  28.363  51.724  1.00  0.00     0.043 A 
HETATM   30  C   UNL     1       4.456  27.729  50.652  1.00  0.00     0.116 A 
HETATM   31  F   UNL     1       3.532  28.385  49.937  1.00  0.00    -0.206 F 
HETATM   32  C   UNL     1       4.786  26.424  50.309  1.00  0.00     0.043 A 
HETATM   33  C   UNL     1       5.748  25.738  51.053  1.00  0.00     0.012 A 
ENDBRANCH   6  27
TORSDOF 5
ENDMDL
MODEL 5
REMARK VINA RESULT:      -9.6      2.723      5.544
REMARK  5 active torsions:
REMARK  status: ('A' for Active; 'I' for Inactive)
REMARK    1  A    between atoms: C_3  and  O_4 
REMARK    2  A    between atoms: C_6  and  N_7 
REMARK       I    between atoms: N_7  and  C_8 
REMARK    3  A    between atoms: C_8  and  C_9 
REMARK    4  A    between atoms: C_12  and  C_13 
REMARK    5  A    between atoms: C_18  and  C_19 
ROOT
HETATM    1  C   UNL     1       6.313  26.143  53.477  1.00  0.00     0.096 C 
HETATM    2  C   UNL     1       6.902  26.352  54.710  1.00  0.00     0.138 C 
HETATM    3  N   UNL     1       7.013  25.107  55.290  1.00  0.00    -0.240 N 
HETATM    4  C   UNL     1       7.535  24.864  56.625  1.00  0.00     0.221 C 
HETATM    5  C   UNL     1       8.305  26.096  57.135  1.00  0.00     0.066 C 
HETATM    6  C   UNL     1       7.525  27.376  56.818  1.00  0.00     0.118 C 
HETATM    7  N   UNL     1       7.317  27.472  55.367  1.00  0.00    -0.365 N 
HETATM    8  N   UNL     1       6.386  24.142  54.601  1.00  0.00    -0.181 NA
HETATM    9  C   UNL     1       5.992  24.764  53.486  1.00  0.00     0.160 C 
HETATM   10  H   UNL     1       6.867  28.357  55.117  1.00  0.00     0.161 HD
ENDROOT
BRANCH   1  11
HETATM   11  C   UNL     1       6.022  27.090  52.413  1.00  0.00     0.261 C 
HETATM   12  N   UNL     1       5.498  26.494  51.281  1.00  0.00    -0.323 N 
HETATM   13  H   UNL     1       5.276  25.509  51.374  1.00  0.00     0.169 HD
HETATM   14  O   UNL     1       6.210  28.289  52.580  1.00  0.00    -0.267 OA
BRANCH  12  15
HETATM   15  C   UNL     1       5.157  27.108  50.059  1.00  0.00     0.037 A 
HETATM   16  C   UNL     1       4.481  26.462  49.022  1.00  0.00     0.066 A 
HETATM   17  C   UNL     1       4.175  27.155  47.852  1.00  0.00     0.067 A 
HETATM   18  C   UNL     1       4.532  28.489  47.691  1.00  0.00     0.036 A 
HETATM   19  C   UNL     1       5.204  29.142  48.722  1.00  0.00     0.005 A 
HETATM   20  C   UNL     1       5.511  28.455  49.902  1.00  0.00     0.029 A 
BRANCH  17  21
HETATM   21  O   UNL     1       3.509  26.481  46.870  1.00  0.00    -0.361 OA
HETATM   22  H   UNL     1       2.634  26.883  46.749  1.00  0.00     0.217 HD
ENDBRANCH  17  21
ENDBRANCH  12  15
ENDBRANCH   1  11
BRANCH   4  23
HETATM   23  C   UNL     1       8.436  23.649  56.665  1.00  0.00     0.409 C 
HETATM   24  F   UNL     1       9.361  23.661  55.679  1.00  0.00    -0.169 F 
HETATM   25  F   UNL     1       9.124  23.636  57.839  1.00  0.00    -0.169 F 
HETATM   26  F   UNL     1       7.770  22.478  56.611  1.00  0.00    -0.169 F 
ENDBRANCH   4  23
BRANCH   6  27
HETATM   27  C   UNL     1       8.252  28.611  57.314  1.00  0.00    -0.035 A 
HETATM   28  C   UNL     1       9.558  28.915  56.884  1.00  0.00     0.012 A 
HETATM   29  C   UNL     1      10.220  30.045  57.367  1.00  0.00     0.043 A 
HETATM   30  C   UNL     1       9.583  30.874  58.282  1.00  0.00     0.116 A 
HETATM   31  F   UNL     1      10.220  31.957  58.747  1.00  0.00    -0.206 F 
HETATM   32  C   UNL     1       8.296  30.596  58.723  1.00  0.00     0.043 A 
HETATM   33  C   UNL     1       7.631  29.467  58.240  1.00  0.00     0.012 A 
ENDBRANCH   6  27
TORSDOF 5
ENDMDL
MODEL 6
REMARK VINA RESULT:      -9.6      4.186      7.940
REMARK  5 active torsions:
REMARK  status: ('A' for Active; 'I' for Inactive)
REMARK    1  A    between atoms: C_3  and  O_4 
REMARK    2  A    between atoms: C_6  and  N_7 
REMARK       I    between atoms: N_7  and  C_8 
REMARK    3  A    between atoms: C_8  and  C_9 
REMARK    4  A    between atoms: C_12  and  C_13 
REMARK    5  A    between atoms: C_18  and  C_19 
ROOT
HETATM    1  C   UNL     1       7.088  26.001  56.393  1.00  0.00     0.096 C 
HETATM    2  C   UNL     1       6.581  27.286  56.328  1.00  0.00     0.138 C 
HETATM    3  N   UNL     1       7.127  27.960  57.399  1.00  0.00    -0.240 N 
HETATM    4  C   UNL     1       6.822  29.338  57.746  1.00  0.00     0.221 C 
HETATM    5  C   UNL     1       6.146  30.055  56.563  1.00  0.00     0.066 C 
HETATM    6  C   UNL     1       5.081  29.150  55.934  1.00  0.00     0.118 C 
HETATM    7  N   UNL     1       5.710  27.903  55.479  1.00  0.00    -0.365 N 
HETATM    8  N   UNL     1       7.803  27.164  58.239  1.00  0.00    -0.181 NA
HETATM    9  C   UNL     1       7.808  25.984  57.612  1.00  0.00     0.160 C 
HETATM   10  H   UNL     1       5.039  27.311  54.984  1.00  0.00     0.161 HD
ENDROOT
BRANCH   1  11
HETATM   11  C   UNL     1       6.909  24.883  55.481  1.00  0.00     0.261 C 
HETATM   12  N   UNL     1       7.897  23.923  55.594  1.00  0.00    -0.323 N 
HETATM   13  H   UNL     1       8.544  24.056  56.364  1.00  0.00     0.169 HD
HETATM   14  O   UNL     1       5.936  24.838  54.737  1.00  0.00    -0.267 OA
BRANCH  12  15
HETATM   15  C   UNL     1       8.053  22.749  54.831  1.00  0.00     0.037 A 
HETATM   16  C   UNL     1       8.403  21.508  55.368  1.00  0.00     0.066 A 
HETATM   17  C   UNL     1       8.523  20.397  54.535  1.00  0.00     0.067 A 
HETATM   18  C   UNL     1       8.301  20.496  53.166  1.00  0.00     0.036 A 
HETATM   19  C   UNL     1       7.948  21.729  52.623  1.00  0.00     0.005 A 
HETATM   20  C   UNL     1       7.821  22.848  53.451  1.00  0.00     0.029 A 
BRANCH  17  21
HETATM   21  O   UNL     1       8.861  19.206  55.110  1.00  0.00    -0.361 OA
HETATM   22  H   UNL     1       8.089  18.618  55.094  1.00  0.00     0.217 HD
ENDBRANCH  17  21
ENDBRANCH  12  15
ENDBRANCH   1  11
BRANCH   4  23
HETATM   23  C   UNL     1       8.060  30.102  58.162  1.00  0.00     0.409 C 
HETATM   24  F   UNL     1       9.083  29.936  57.295  1.00  0.00    -0.169 F 
HETATM   25  F   UNL     1       7.783  31.434  58.182  1.00  0.00    -0.169 F 
HETATM   26  F   UNL     1       8.496  29.794  59.400  1.00  0.00    -0.169 F 
ENDBRANCH   4  23
BRANCH   6  27
HETATM   27  C   UNL     1       4.388  29.828  54.768  1.00  0.00    -0.035 A 
HETATM   28  C   UNL     1       3.795  31.098  54.906  1.00  0.00     0.012 A 
HETATM   29  C   UNL     1       3.143  31.698  53.827  1.00  0.00     0.043 A 
HETATM   30  C   UNL     1       3.078  31.033  52.609  1.00  0.00     0.116 A 
HETATM   31  F   UNL     1       2.450  31.608  51.575  1.00  0.00    -0.206 F 
HETATM   32  C   UNL     1       3.654  29.779  52.448  1.00  0.00     0.043 A 
HETATM   33  C   UNL     1       4.308  29.177  53.525  1.00  0.00     0.012 A 
ENDBRANCH   6  27
TORSDOF 5
ENDMDL
MODEL 7
REMARK VINA RESULT:      -9.4     11.919     16.412
REMARK  5 active torsions:
REMARK  status: ('A' for Active; 'I' for Inactive)
REMARK    1  A    between atoms: C_3  and  O_4 
REMARK    2  A    between atoms: C_6  and  N_7 
REMARK       I    between atoms: N_7  and  C_8 
REMARK    3  A    between atoms: C_8  and  C_9 
REMARK    4  A    between atoms: C_12  and  C_13 
REMARK    5  A    between atoms: C_18  and  C_19 
ROOT
HETATM    1  C   UNL     1       5.225  34.047  65.774  1.00  0.00     0.096 C 
HETATM    2  C   UNL     1       5.240  33.661  64.446  1.00  0.00     0.138 C 
HETATM    3  N   UNL     1       3.957  33.856  63.984  1.00  0.00    -0.240 N 
HETATM    4  C   UNL     1       3.508  33.529  62.640  1.00  0.00     0.221 C 
HETATM    5  C   UNL     1       4.713  33.325  61.704  1.00  0.00     0.066 C 
HETATM    6  C   UNL     1       5.786  32.482  62.399  1.00  0.00     0.118 C 
HETATM    7  N   UNL     1       6.211  33.157  63.633  1.00  0.00    -0.365 N 
HETATM    8  N   UNL     1       3.085  34.171  64.952  1.00  0.00    -0.181 NA
HETATM    9  C   UNL     1       3.860  34.319  66.031  1.00  0.00     0.160 C 
HETATM   10  H   UNL     1       6.984  32.656  64.079  1.00  0.00     0.161 HD
ENDROOT
BRANCH   1  11
HETATM   11  C   UNL     1       6.315  34.120  66.734  1.00  0.00     0.261 C 
HETATM   12  N   UNL     1       5.884  34.165  68.046  1.00  0.00    -0.323 N 
HETATM   13  H   UNL     1       4.888  34.025  68.180  1.00  0.00     0.169 HD
HETATM   14  O   UNL     1       7.479  34.100  66.354  1.00  0.00    -0.267 OA
BRANCH  12  15
HETATM   15  C   UNL     1       6.668  34.290  69.210  1.00  0.00     0.037 A 
HETATM   16  C   UNL     1       6.889  33.253  70.119  1.00  0.00     0.066 A 
HETATM   17  C   UNL     1       7.691  33.467  71.239  1.00  0.00     0.067 A 
HETATM   18  C   UNL     1       8.281  34.703  71.476  1.00  0.00     0.036 A 
HETATM   19  C   UNL     1       8.067  35.742  70.573  1.00  0.00     0.005 A 
HETATM   20  C   UNL     1       7.268  35.535  69.445  1.00  0.00     0.029 A 
BRANCH  17  21
HETATM   21  O   UNL     1       7.881  32.420  72.093  1.00  0.00    -0.361 OA
HETATM   22  H   UNL     1       8.785  32.083  71.983  1.00  0.00     0.217 HD
ENDBRANCH  17  21
ENDBRANCH  12  15
ENDBRANCH   1  11
BRANCH   4  23
HETATM   23  C   UNL     1       2.600  34.598  62.074  1.00  0.00     0.409 C 
HETATM   24  F   UNL     1       2.624  34.631  60.722  1.00  0.00    -0.169 F 
HETATM   25  F   UNL     1       1.313  34.333  62.430  1.00  0.00    -0.169 F 
HETATM   26  F   UNL     1       2.866  35.837  62.535  1.00  0.00    -0.169 F 
ENDBRANCH   4  23
BRANCH   6  27
HETATM   27  C   UNL     1       6.987  32.253  61.502  1.00  0.00    -0.035 A 
HETATM   28  C   UNL     1       8.291  32.175  62.028  1.00  0.00     0.012 A 
HETATM   29  C   UNL     1       9.387  31.986  61.184  1.00  0.00     0.043 A 
HETATM   30  C   UNL     1       9.187  31.877  59.814  1.00  0.00     0.116 A 
HETATM   31  F   UNL     1      10.239  31.698  59.005  1.00  0.00    -0.206 F 
HETATM   32  C   UNL     1       7.911  31.952  59.270  1.00  0.00     0.043 A 
HETATM   33  C   UNL     1       6.813  32.140  60.111  1.00  0.00     0.012 A 
ENDBRANCH   6  27
TORSDOF 5
ENDMDL
MODEL 8
REMARK VINA RESULT:      -9.4      3.412      7.689
REMARK  5 active torsions:
REMARK  status: ('A' for Active; 'I' for Inactive)
REMARK    1  A    between atoms: C_3  and  O_4 
REMARK    2  A    between atoms: C_6  and  N_7 
REMARK       I    between atoms: N_7  and  C_8 
REMARK    3  A    between atoms: C_8  and  C_9 
REMARK    4  A    between atoms: C_12  and  C_13 
REMARK    5  A    between atoms: C_18  and  C_19 
ROOT
HETATM    1  C   UNL     1       6.339  25.870  55.425  1.00  0.00     0.096 C 
HETATM    2  C   UNL     1       5.577  26.818  54.768  1.00  0.00     0.138 C 
HETATM    3  N   UNL     1       5.077  27.645  55.750  1.00  0.00    -0.240 N 
HETATM    4  C   UNL     1       4.175  28.759  55.507  1.00  0.00     0.221 C 
HETATM    5  C   UNL     1       4.174  29.135  54.014  1.00  0.00     0.066 C 
HETATM    6  C   UNL     1       4.112  27.873  53.149  1.00  0.00     0.118 C 
HETATM    7  N   UNL     1       5.266  27.017  53.455  1.00  0.00    -0.365 N 
HETATM    8  N   UNL     1       5.317  27.201  56.991  1.00  0.00    -0.181 NA
HETATM    9  C   UNL     1       6.110  26.144  56.795  1.00  0.00     0.160 C 
HETATM   10  H   UNL     1       5.296  26.203  52.837  1.00  0.00     0.161 HD
ENDROOT
BRANCH   1  11
HETATM   11  C   UNL     1       7.155  24.794  54.884  1.00  0.00     0.261 C 
HETATM   12  N   UNL     1       6.937  23.579  55.506  1.00  0.00    -0.323 N 
HETATM   13  H   UNL     1       6.167  23.563  56.167  1.00  0.00     0.169 HD
HETATM   14  O   UNL     1       7.913  25.001  53.945  1.00  0.00    -0.267 OA
BRANCH  12  15
HETATM   15  C   UNL     1       7.591  22.354  55.266  1.00  0.00     0.037 A 
HETATM   16  C   UNL     1       7.635  21.722  54.021  1.00  0.00     0.066 A 
HETATM   17  C   UNL     1       8.318  20.516  53.876  1.00  0.00     0.067 A 
HETATM   18  C   UNL     1       8.963  19.920  54.953  1.00  0.00     0.036 A 
HETATM   19  C   UNL     1       8.927  20.545  56.197  1.00  0.00     0.005 A 
HETATM   20  C   UNL     1       8.248  21.758  56.352  1.00  0.00     0.029 A 
BRANCH  17  21
HETATM   21  O   UNL     1       8.336  19.942  52.638  1.00  0.00    -0.361 OA
HETATM   22  H   UNL     1       9.250  19.922  52.312  1.00  0.00     0.217 HD
ENDBRANCH  17  21
ENDBRANCH  12  15
ENDBRANCH   1  11
BRANCH   4  23
HETATM   23  C   UNL     1       4.538  29.970  56.336  1.00  0.00     0.409 C 
HETATM   24  F   UNL     1       5.857  30.263  56.271  1.00  0.00    -0.169 F 
HETATM   25  F   UNL     1       3.877  31.059  55.859  1.00  0.00    -0.169 F 
HETATM   26  F   UNL     1       4.190  29.863  57.634  1.00  0.00    -0.169 F 
ENDBRANCH   4  23
BRANCH   6  27
HETATM   27  C   UNL     1       4.101  28.207  51.670  1.00  0.00    -0.035 A 
HETATM   28  C   UNL     1       3.081  28.996  51.105  1.00  0.00     0.012 A 
HETATM   29  C   UNL     1       3.076  29.277  49.737  1.00  0.00     0.043 A 
HETATM   30  C   UNL     1       4.085  28.770  48.929  1.00  0.00     0.116 A 
HETATM   31  F   UNL     1       4.078  29.037  47.616  1.00  0.00    -0.206 F 
HETATM   32  C   UNL     1       5.102  27.988  49.462  1.00  0.00     0.043 A 
HETATM   33  C   UNL     1       5.111  27.707  50.829  1.00  0.00     0.012 A 
ENDBRANCH   6  27
TORSDOF 5
ENDMDL
MODEL 9
REMARK VINA RESULT:      -9.4      4.232      7.156
REMARK  5 active torsions:
REMARK  status: ('A' for Active; 'I' for Inactive)
REMARK    1  A    between atoms: C_3  and  O_4 
REMARK    2  A    between atoms: C_6  and  N_7 
REMARK       I    between atoms: N_7  and  C_8 
REMARK    3  A    between atoms: C_8  and  C_9 
REMARK    4  A    between atoms: C_12  and  C_13 
REMARK    5  A    between atoms: C_18  and  C_19 
ROOT
HETATM    1  C   UNL     1       4.468  28.414  54.781  1.00  0.00     0.096 C 
HETATM    2  C   UNL     1       4.925  27.295  54.111  1.00  0.00     0.138 C 
HETATM    3  N   UNL     1       4.419  27.389  52.833  1.00  0.00    -0.240 N 
HETATM    4  C   UNL     1       4.611  26.389  51.796  1.00  0.00     0.221 C 
HETATM    5  C   UNL     1       5.759  25.434  52.174  1.00  0.00     0.066 C 
HETATM    6  C   UNL     1       5.646  25.027  53.646  1.00  0.00     0.118 C 
HETATM    7  N   UNL     1       5.689  26.230  54.488  1.00  0.00    -0.365 N 
HETATM    8  N   UNL     1       3.537  28.387  52.683  1.00  0.00    -0.181 NA
HETATM    9  C   UNL     1       3.592  29.029  53.854  1.00  0.00     0.160 C 
HETATM   10  H   UNL     1       5.695  25.985  55.481  1.00  0.00     0.161 HD
ENDROOT
BRANCH   1  11
HETATM   11  C   UNL     1       4.748  28.868  56.134  1.00  0.00     0.261 C 
HETATM   12  N   UNL     1       4.341  30.168  56.370  1.00  0.00    -0.323 N 
HETATM   13  H   UNL     1       3.802  30.594  55.624  1.00  0.00     0.169 HD
HETATM   14  O   UNL     1       5.262  28.111  56.949  1.00  0.00    -0.267 OA
BRANCH  12  15
HETATM   15  C   UNL     1       4.506  30.926  57.545  1.00  0.00     0.037 A 
HETATM   16  C   UNL     1       3.478  31.201  58.449  1.00  0.00     0.066 A 
HETATM   17  C   UNL     1       3.739  31.952  59.594  1.00  0.00     0.067 A 
HETATM   18  C   UNL     1       5.013  32.441  59.860  1.00  0.00     0.036 A 
HETATM   19  C   UNL     1       6.045  32.168  58.965  1.00  0.00     0.005 A 
HETATM   20  C   UNL     1       5.793  31.412  57.816  1.00  0.00     0.029 A 
BRANCH  17  21
HETATM   21  O   UNL     1       2.701  32.188  60.449  1.00  0.00    -0.361 OA
HETATM   22  H   UNL     1       3.046  32.593  61.260  1.00  0.00     0.217 HD
ENDBRANCH  17  21
ENDBRANCH  12  15
ENDBRANCH   1  11
BRANCH   4  23
HETATM   23  C   UNL     1       4.895  27.019  50.450  1.00  0.00     0.409 C 
HETATM   24  F   UNL     1       3.807  27.626  49.926  1.00  0.00    -0.169 F 
HETATM   25  F   UNL     1       5.844  27.984  50.595  1.00  0.00    -0.169 F 
HETATM   26  F   UNL     1       5.381  26.153  49.538  1.00  0.00    -0.169 F 
ENDBRANCH   4  23
BRANCH   6  27
HETATM   27  C   UNL     1       6.758  24.079  54.051  1.00  0.00    -0.035 A 
HETATM   28  C   UNL     1       7.222  24.019  55.379  1.00  0.00     0.012 A 
HETATM   29  C   UNL     1       8.261  23.156  55.730  1.00  0.00     0.043 A 
HETATM   30  C   UNL     1       8.843  22.352  54.758  1.00  0.00     0.116 A 
HETATM   31  F   UNL     1       9.842  21.526  55.095  1.00  0.00    -0.206 F 
HETATM   32  C   UNL     1       8.405  22.394  53.441  1.00  0.00     0.043 A 
HETATM   33  C   UNL     1       7.364  23.255  53.087  1.00  0.00     0.012 A 
ENDBRANCH   6  27
TORSDOF 5
ENDMDL
MODEL 10
REMARK VINA RESULT:      -9.4      5.153      8.425
REMARK  5 active torsions:
REMARK  status: ('A' for Active; 'I' for Inactive)
REMARK    1  A    between atoms: C_3  and  O_4 
REMARK    2  A    between atoms: C_6  and  N_7 
REMARK       I    between atoms: N_7  and  C_8 
REMARK    3  A    between atoms: C_8  and  C_9 
REMARK    4  A    between atoms: C_12  and  C_13 
REMARK    5  A    between atoms: C_18  and  C_19 
ROOT
HETATM    1  C   UNL     1       6.154  27.560  55.624  1.00  0.00     0.096 C 
HETATM    2  C   UNL     1       6.106  28.751  56.325  1.00  0.00     0.138 C 
HETATM    3  N   UNL     1       5.072  29.473  55.769  1.00  0.00    -0.240 N 
HETATM    4  C   UNL     1       4.699  30.819  56.171  1.00  0.00     0.221 C 
HETATM    5  C   UNL     1       5.326  31.168  57.534  1.00  0.00     0.066 C 
HETATM    6  C   UNL     1       6.788  30.713  57.576  1.00  0.00     0.118 C 
HETATM    7  N   UNL     1       6.853  29.264  57.344  1.00  0.00    -0.365 N 
HETATM    8  N   UNL     1       4.569  28.913  54.660  1.00  0.00    -0.181 NA
HETATM    9  C   UNL     1       5.202  27.738  54.592  1.00  0.00     0.160 C 
HETATM   10  H   UNL     1       7.811  28.917  57.444  1.00  0.00     0.161 HD
ENDROOT
BRANCH   1  11
HETATM   11  C   UNL     1       7.000  26.395  55.827  1.00  0.00     0.261 C 
HETATM   12  N   UNL     1       6.762  25.382  54.916  1.00  0.00    -0.323 N 
HETATM   13  H   UNL     1       6.124  25.618  54.164  1.00  0.00     0.169 HD
HETATM   14  O   UNL     1       7.848  26.390  56.711  1.00  0.00    -0.267 OA
BRANCH  12  15
HETATM   15  C   UNL     1       7.363  24.110  54.861  1.00  0.00     0.037 A 
HETATM   16  C   UNL     1       7.559  23.289  55.974  1.00  0.00     0.066 A 
HETATM   17  C   UNL     1       8.153  22.037  55.821  1.00  0.00     0.067 A 
HETATM   18  C   UNL     1       8.560  21.581  54.572  1.00  0.00     0.036 A 
HETATM   19  C   UNL     1       8.365  22.393  53.456  1.00  0.00     0.005 A 
HETATM   20  C   UNL     1       7.766  23.648  53.600  1.00  0.00     0.029 A 
BRANCH  17  21
HETATM   21  O   UNL     1       8.317  21.271  56.938  1.00  0.00    -0.361 OA
HETATM   22  H   UNL     1       9.054  20.657  56.794  1.00  0.00     0.217 HD
ENDBRANCH  17  21
ENDBRANCH  12  15
ENDBRANCH   1  11
BRANCH   4  23
HETATM   23  C   UNL     1       3.198  30.990  56.243  1.00  0.00     0.409 C 
HETATM   24  F   UNL     1       2.600  30.002  56.946  1.00  0.00    -0.169 F 
HETATM   25  F   UNL     1       2.907  32.153  56.888  1.00  0.00    -0.169 F 
HETATM   26  F   UNL     1       2.603  31.074  55.036  1.00  0.00    -0.169 F 
ENDBRANCH   4  23
BRANCH   6  27
HETATM   27  C   UNL     1       7.440  31.048  58.904  1.00  0.00    -0.035 A 
HETATM   28  C   UNL     1       8.525  30.298  59.397  1.00  0.00     0.012 A 
HETATM   29  C   UNL     1       9.099  30.607  60.631  1.00  0.00     0.043 A 
HETATM   30  C   UNL     1       8.592  31.662  61.378  1.00  0.00     0.116 A 
HETATM   31  F   UNL     1       9.142  31.958  62.564  1.00  0.00    -0.206 F 
HETATM   32  C   UNL     1       7.522  32.417  60.915  1.00  0.00     0.043 A 
HETATM   33  C   UNL     1       6.946  32.111  59.680  1.00  0.00     0.012 A 
ENDBRANCH   6  27
TORSDOF 5
ENDMDL
