MODEL 1
REMARK VINA RESULT:     -10.3      0.000      0.000
REMARK  7 active torsions:
REMARK  status: ('A' for Active; 'I' for Inactive)
REMARK    1  A    between atoms: O_2  and  C_3 
REMARK    2  A    between atoms: C_4  and  C_5 
REMARK    3  A    between atoms: N_10  and  C_12 
REMARK    4  A    between atoms: C_12  and  C_13 
REMARK       I    between atoms: C_13  and  N_14 
REMARK    5  A    between atoms: N_14  and  C_15 
REMARK    6  A    between atoms: C_15  and  C_16 
REMARK    7  A    between atoms: C_16  and  C_17 
ROOT
HETATM    1  C   UNL     1       3.851  32.659  62.273  1.00  0.00     0.190 C 
HETATM    2  O   UNL     1       3.059  33.855  62.414  1.00  0.00    -0.339 OA
HETATM    3  C   UNL     1       3.534  34.961  61.781  1.00  0.00     0.077 A 
HETATM    4  C   UNL     1       3.609  35.045  60.389  1.00  0.00     0.001 A 
HETATM    5  C   UNL     1       3.127  33.929  59.518  1.00  0.00     0.276 C 
HETATM    6  N   UNL     1       3.889  32.640  59.666  1.00  0.00    -0.056 N 
HETATM    7  H   UNL     1       4.900  32.830  59.684  1.00  0.00     0.280 HD
HETATM    8  C   UNL     1       3.560  31.898  60.956  1.00  0.00     0.273 C 
HETATM    9  C   UNL     1       3.878  36.045  62.588  1.00  0.00     0.037 A 
HETATM   10  C   UNL     1       4.357  37.217  62.012  1.00  0.00     0.003 A 
HETATM   11  C   UNL     1       4.474  37.308  60.627  1.00  0.00     0.001 A 
HETATM   12  C   UNL     1       4.097  36.234  59.819  1.00  0.00     0.012 A 
ENDROOT
BRANCH   6  13
HETATM   13  C   UNL     1       3.686  31.748  58.435  1.00  0.00     0.337 C 
BRANCH  13  14
HETATM   14  C   UNL     1       4.895  30.863  58.134  1.00  0.00     0.243 C 
HETATM   15  N   UNL     1       4.589  29.671  57.529  1.00  0.00    -0.359 N 
HETATM   16  H   UNL     1       3.617  29.369  57.458  1.00  0.00     0.162 HD
HETATM   17  O   UNL     1       6.029  31.223  58.437  1.00  0.00    -0.272 OA
BRANCH  15  18
HETATM   18  C   UNL     1       5.538  28.575  57.398  1.00  0.00     0.130 C 
BRANCH  18  19
HETATM   19  C   UNL     1       4.927  27.397  56.635  1.00  0.00     0.098 C 
BRANCH  19  20
HETATM   20  C   UNL     1       5.947  26.321  56.312  1.00  0.00     0.109 A 
HETATM   21  N   UNL     1       5.853  25.611  55.229  1.00  0.00    -0.234 NA
HETATM   22  C   UNL     1       6.831  24.620  55.006  1.00  0.00     0.074 A 
HETATM   23  C   UNL     1       7.854  24.352  55.922  1.00  0.00     0.061 A 
HETATM   24  C   UNL     1       6.784  23.878  53.823  1.00  0.00     0.032 A 
HETATM   25  C   UNL     1       7.888  25.156  57.154  1.00  0.00     0.259 A 
HETATM   26  C   UNL     1       8.811  23.363  55.676  1.00  0.00     0.019 A 
HETATM   27  O   UNL     1       8.728  24.985  58.027  1.00  0.00    -0.267 OA
HETATM   28  N   UNL     1       6.911  26.113  57.264  1.00  0.00    -0.311 N 
HETATM   29  H   UNL     1       6.950  26.663  58.111  1.00  0.00     0.170 HD
HETATM   30  C   UNL     1       8.749  22.630  54.492  1.00  0.00     0.001 A 
HETATM   31  C   UNL     1       7.736  22.888  53.567  1.00  0.00     0.002 A 
ENDBRANCH  19  20
ENDBRANCH  18  19
ENDBRANCH  15  18
ENDBRANCH  13  14
ENDBRANCH   6  13
BRANCH   1  32
HETATM   32  C   UNL     1       5.319  32.739  62.712  1.00  0.00     0.006 A 
HETATM   33  C   UNL     1       5.641  32.944  64.074  1.00  0.00     0.077 A 
HETATM   34  C   UNL     1       6.979  32.997  64.489  1.00  0.00     0.037 A 
HETATM   35  C   UNL     1       8.012  32.880  63.562  1.00  0.00     0.003 A 
HETATM   36  C   UNL     1       7.715  32.705  62.218  1.00  0.00     0.001 A 
HETATM   37  C   UNL     1       6.385  32.632  61.799  1.00  0.00     0.012 A 
BRANCH  33  38
HETATM   38  O   UNL     1       4.590  33.037  64.951  1.00  0.00    -0.355 OA
HETATM   39  C   UNL     1       4.763  33.934  66.047  1.00  0.00     0.210 C 
ENDBRANCH  33  38
ENDBRANCH   1  32
TORSDOF 7
ENDMDL
MODEL 2
REMARK VINA RESULT:     -10.1      3.389      4.627
REMARK  7 active torsions:
REMARK  status: ('A' for Active; 'I' for Inactive)
REMARK    1  A    between atoms: O_2  and  C_3 
REMARK    2  A    between atoms: C_4  and  C_5 
REMARK    3  A    between atoms: N_10  and  C_12 
REMARK    4  A    between atoms: C_12  and  C_13 
REMARK       I    between atoms: C_13  and  N_14 
REMARK    5  A    between atoms: N_14  and  C_15 
REMARK    6  A    between atoms: C_15  and  C_16 
REMARK    7  A    between atoms: C_16  and  C_17 
ROOT
HETATM    1  C   UNL     1       3.860  35.561  63.981  1.00  0.00     0.190 C 
HETATM    2  O   UNL     1       3.969  36.988  64.148  1.00  0.00    -0.339 OA
HETATM    3  C   UNL     1       4.828  37.622  63.306  1.00  0.00     0.077 A 
HETATM    4  C   UNL     1       4.603  37.690  61.930  1.00  0.00     0.001 A 
HETATM    5  C   UNL     1       3.373  37.103  61.315  1.00  0.00     0.276 C 
HETATM    6  N   UNL     1       3.256  35.609  61.446  1.00  0.00    -0.056 N 
HETATM    7  H   UNL     1       4.159  35.165  61.227  1.00  0.00     0.280 HD
HETATM    8  C   UNL     1       2.878  35.161  62.852  1.00  0.00     0.273 C 
HETATM    9  C   UNL     1       5.917  38.267  63.892  1.00  0.00     0.037 A 
HETATM   10  C   UNL     1       6.831  38.949  63.096  1.00  0.00     0.003 A 
HETATM   11  C   UNL     1       6.645  39.000  61.717  1.00  0.00     0.001 A 
HETATM   12  C   UNL     1       5.535  38.381  61.136  1.00  0.00     0.012 A 
ENDROOT
BRANCH   6  13
HETATM   13  C   UNL     1       2.287  35.049  60.397  1.00  0.00     0.337 C 
BRANCH  13  14
HETATM   14  C   UNL     1       2.900  33.930  59.555  1.00  0.00     0.243 C 
HETATM   15  N   UNL     1       3.716  33.078  60.251  1.00  0.00    -0.359 N 
HETATM   16  H   UNL     1       3.995  33.303  61.206  1.00  0.00     0.162 HD
HETATM   17  O   UNL     1       2.664  33.848  58.352  1.00  0.00    -0.272 OA
BRANCH  15  18
HETATM   18  C   UNL     1       4.603  32.119  59.610  1.00  0.00     0.130 C 
BRANCH  18  19
HETATM   19  C   UNL     1       6.072  32.516  59.783  1.00  0.00     0.098 C 
BRANCH  19  20
HETATM   20  C   UNL     1       7.019  31.569  59.069  1.00  0.00     0.109 A 
HETATM   21  N   UNL     1       8.270  31.873  58.898  1.00  0.00    -0.234 NA
HETATM   22  C   UNL     1       9.083  30.948  58.213  1.00  0.00     0.074 A 
HETATM   23  C   UNL     1       8.583  29.756  57.679  1.00  0.00     0.061 A 
HETATM   24  C   UNL     1      10.444  31.227  58.061  1.00  0.00     0.032 A 
HETATM   25  C   UNL     1       7.149  29.480  57.863  1.00  0.00     0.259 A 
HETATM   26  C   UNL     1       9.412  28.856  57.003  1.00  0.00     0.019 A 
HETATM   27  O   UNL     1       6.611  28.477  57.417  1.00  0.00    -0.267 OA
HETATM   28  N   UNL     1       6.450  30.428  58.568  1.00  0.00    -0.311 N 
HETATM   29  H   UNL     1       5.468  30.222  58.694  1.00  0.00     0.170 HD
HETATM   30  C   UNL     1      10.767  29.150  56.859  1.00  0.00     0.001 A 
HETATM   31  C   UNL     1      11.282  30.334  57.388  1.00  0.00     0.002 A 
ENDBRANCH  19  20
ENDBRANCH  18  19
ENDBRANCH  15  18
ENDBRANCH  13  14
ENDBRANCH   6  13
BRANCH   1  32
HETATM   32  C   UNL     1       5.155  34.746  64.088  1.00  0.00     0.006 A 
HETATM   33  C   UNL     1       5.740  34.506  65.352  1.00  0.00     0.077 A 
HETATM   34  C   UNL     1       6.912  33.744  65.462  1.00  0.00     0.037 A 
HETATM   35  C   UNL     1       7.535  33.238  64.324  1.00  0.00     0.003 A 
HETATM   36  C   UNL     1       6.991  33.484  63.073  1.00  0.00     0.001 A 
HETATM   37  C   UNL     1       5.813  34.227  62.956  1.00  0.00     0.012 A 
BRANCH  33  38
HETATM   38  O   UNL     1       5.082  35.011  66.445  1.00  0.00    -0.355 OA
HETATM   39  C   UNL     1       4.579  34.054  67.375  1.00  0.00     0.210 C 
ENDBRANCH  33  38
ENDBRANCH   1  32
TORSDOF 7
ENDMDL
MODEL 3
REMARK VINA RESULT:      -9.9      2.041      3.263
REMARK  7 active torsions:
REMARK  status: ('A' for Active; 'I' for Inactive)
REMARK    1  A    between atoms: O_2  and  C_3 
REMARK    2  A    between atoms: C_4  and  C_5 
REMARK    3  A    between atoms: N_10  and  C_12 
REMARK    4  A    between atoms: C_12  and  C_13 
REMARK       I    between atoms: C_13  and  N_14 
REMARK    5  A    between atoms: N_14  and  C_15 
REMARK    6  A    between atoms: C_15  and  C_16 
REMARK    7  A    between atoms: C_16  and  C_17 
ROOT
HETATM    1  C   UNL     1       5.064  33.111  63.584  1.00  0.00     0.190 C 
HETATM    2  O   UNL     1       3.945  32.654  62.800  1.00  0.00    -0.339 OA
HETATM    3  C   UNL     1       3.753  33.286  61.611  1.00  0.00     0.077 A 
HETATM    4  C   UNL     1       4.668  33.187  60.561  1.00  0.00     0.001 A 
HETATM    5  C   UNL     1       5.892  32.337  60.679  1.00  0.00     0.276 C 
HETATM    6  N   UNL     1       6.870  32.783  61.732  1.00  0.00    -0.056 N 
HETATM    7  H   UNL     1       6.998  33.803  61.683  1.00  0.00     0.280 HD
HETATM    8  C   UNL     1       6.404  32.468  63.148  1.00  0.00     0.273 C 
HETATM    9  C   UNL     1       2.556  33.987  61.461  1.00  0.00     0.037 A 
HETATM   10  C   UNL     1       2.282  34.647  60.268  1.00  0.00     0.003 A 
HETATM   11  C   UNL     1       3.198  34.590  59.220  1.00  0.00     0.001 A 
HETATM   12  C   UNL     1       4.380  33.860  59.362  1.00  0.00     0.012 A 
ENDROOT
BRANCH   6  13
HETATM   13  C   UNL     1       8.263  32.205  61.456  1.00  0.00     0.337 C 
BRANCH  13  14
HETATM   14  C   UNL     1       8.425  31.699  60.022  1.00  0.00     0.243 C 
HETATM   15  N   UNL     1       7.978  30.421  59.817  1.00  0.00    -0.359 N 
HETATM   16  H   UNL     1       7.721  29.835  60.613  1.00  0.00     0.162 HD
HETATM   17  O   UNL     1       8.933  32.410  59.159  1.00  0.00    -0.272 OA
BRANCH  15  18
HETATM   18  C   UNL     1       8.275  29.652  58.617  1.00  0.00     0.130 C 
BRANCH  18  19
HETATM   19  C   UNL     1       7.003  29.349  57.820  1.00  0.00     0.098 C 
BRANCH  19  20
HETATM   20  C   UNL     1       7.006  27.950  57.230  1.00  0.00     0.109 A 
HETATM   21  N   UNL     1       7.830  27.043  57.659  1.00  0.00    -0.234 NA
HETATM   22  C   UNL     1       7.781  25.772  57.051  1.00  0.00     0.074 A 
HETATM   23  C   UNL     1       6.921  25.477  55.989  1.00  0.00     0.061 A 
HETATM   24  C   UNL     1       8.621  24.762  57.529  1.00  0.00     0.032 A 
HETATM   25  C   UNL     1       6.038  26.555  55.513  1.00  0.00     0.259 A 
HETATM   26  C   UNL     1       6.893  24.208  55.404  1.00  0.00     0.019 A 
HETATM   27  O   UNL     1       5.265  26.406  54.577  1.00  0.00    -0.267 OA
HETATM   28  N   UNL     1       6.141  27.745  56.188  1.00  0.00    -0.311 N 
HETATM   29  H   UNL     1       5.524  28.475  55.856  1.00  0.00     0.170 HD
HETATM   30  C   UNL     1       7.739  23.212  55.891  1.00  0.00     0.001 A 
HETATM   31  C   UNL     1       8.601  23.489  56.952  1.00  0.00     0.002 A 
ENDBRANCH  19  20
ENDBRANCH  18  19
ENDBRANCH  15  18
ENDBRANCH  13  14
ENDBRANCH   6  13
BRANCH   1  32
HETATM   32  C   UNL     1       5.100  34.602  63.945  1.00  0.00     0.006 A 
HETATM   33  C   UNL     1       4.541  35.050  65.163  1.00  0.00     0.077 A 
HETATM   34  C   UNL     1       4.588  36.407  65.512  1.00  0.00     0.037 A 
HETATM   35  C   UNL     1       5.159  37.339  64.649  1.00  0.00     0.003 A 
HETATM   36  C   UNL     1       5.690  36.922  63.437  1.00  0.00     0.001 A 
HETATM   37  C   UNL     1       5.664  35.569  63.091  1.00  0.00     0.012 A 
BRANCH  33  38
HETATM   38  O   UNL     1       4.004  34.093  65.987  1.00  0.00    -0.355 OA
HETATM   39  C   UNL     1       4.408  34.142  67.355  1.00  0.00     0.210 C 
ENDBRANCH  33  38
ENDBRANCH   1  32
TORSDOF 7
ENDMDL
MODEL 4
REMARK VINA RESULT:      -9.7      1.228      1.484
REMARK  7 active torsions:
REMARK  status: ('A' for Active; 'I' for Inactive)
REMARK    1  A    between atoms: O_2  and  C_3 
REMARK    2  A    between atoms: C_4  and  C_5 
REMARK    3  A    between atoms: N_10  and  C_12 
REMARK    4  A    between atoms: C_12  and  C_13 
REMARK       I    between atoms: C_13  and  N_14 
REMARK    5  A    between atoms: N_14  and  C_15 
REMARK    6  A    between atoms: C_15  and  C_16 
REMARK    7  A    between atoms: C_16  and  C_17 
ROOT
HETATM    1  C   UNL     1       3.800  33.265  62.427  1.00  0.00     0.190 C 
HETATM    2  O   UNL     1       3.093  34.488  62.716  1.00  0.00    -0.339 OA
HETATM    3  C   UNL     1       3.678  35.632  62.271  1.00  0.00     0.077 A 
HETATM    4  C   UNL     1       3.825  35.911  60.911  1.00  0.00     0.001 A 
HETATM    5  C   UNL     1       3.302  34.975  59.867  1.00  0.00     0.276 C 
HETATM    6  N   UNL     1       3.960  33.622  59.850  1.00  0.00    -0.056 N 
HETATM    7  H   UNL     1       4.980  33.725  59.931  1.00  0.00     0.280 HD
HETATM    8  C   UNL     1       3.516  32.729  61.002  1.00  0.00     0.273 C 
HETATM    9  C   UNL     1       4.063  36.557  63.242  1.00  0.00     0.037 A 
HETATM   10  C   UNL     1       4.654  37.757  62.863  1.00  0.00     0.003 A 
HETATM   11  C   UNL     1       4.843  38.039  61.512  1.00  0.00     0.001 A 
HETATM   12  C   UNL     1       4.425  37.126  60.541  1.00  0.00     0.012 A 
ENDROOT
BRANCH   6  13
HETATM   13  C   UNL     1       3.749  32.937  58.494  1.00  0.00     0.337 C 
BRANCH  13  14
HETATM   14  C   UNL     1       4.407  31.559  58.412  1.00  0.00     0.243 C 
HETATM   15  N   UNL     1       5.774  31.588  58.317  1.00  0.00    -0.359 N 
HETATM   16  H   UNL     1       6.256  32.472  58.151  1.00  0.00     0.162 HD
HETATM   17  O   UNL     1       3.727  30.536  58.421  1.00  0.00    -0.272 OA
BRANCH  15  18
HETATM   18  C   UNL     1       6.575  30.426  57.962  1.00  0.00     0.130 C 
BRANCH  18  19
HETATM   19  C   UNL     1       6.306  29.982  56.522  1.00  0.00     0.098 C 
BRANCH  19  20
HETATM   20  C   UNL     1       6.573  28.503  56.310  1.00  0.00     0.109 A 
HETATM   21  N   UNL     1       6.189  27.901  55.224  1.00  0.00    -0.234 NA
HETATM   22  C   UNL     1       6.461  26.523  55.107  1.00  0.00     0.074 A 
HETATM   23  C   UNL     1       7.077  25.787  56.124  1.00  0.00     0.061 A 
HETATM   24  C   UNL     1       6.105  25.862  53.928  1.00  0.00     0.032 A 
HETATM   25  C   UNL     1       7.453  26.509  57.351  1.00  0.00     0.259 A 
HETATM   26  C   UNL     1       7.334  24.421  55.982  1.00  0.00     0.019 A 
HETATM   27  O   UNL     1       7.976  25.953  58.306  1.00  0.00    -0.267 OA
HETATM   28  N   UNL     1       7.172  27.853  57.356  1.00  0.00    -0.311 N 
HETATM   29  H   UNL     1       7.442  28.338  58.201  1.00  0.00     0.170 HD
HETATM   30  C   UNL     1       6.972  23.776  54.800  1.00  0.00     0.001 A 
HETATM   31  C   UNL     1       6.359  24.497  53.775  1.00  0.00     0.002 A 
ENDBRANCH  19  20
ENDBRANCH  18  19
ENDBRANCH  15  18
ENDBRANCH  13  14
ENDBRANCH   6  13
BRANCH   1  32
HETATM   32  C   UNL     1       5.247  33.163  62.926  1.00  0.00     0.006 A 
HETATM   33  C   UNL     1       5.521  33.169  64.313  1.00  0.00     0.077 A 
HETATM   34  C   UNL     1       6.839  33.054  64.779  1.00  0.00     0.037 A 
HETATM   35  C   UNL     1       7.900  32.964  63.883  1.00  0.00     0.003 A 
HETATM   36  C   UNL     1       7.654  32.982  62.518  1.00  0.00     0.001 A 
HETATM   37  C   UNL     1       6.343  33.077  62.045  1.00  0.00     0.012 A 
BRANCH  33  38
HETATM   38  O   UNL     1       4.442  33.244  65.157  1.00  0.00    -0.355 OA
HETATM   39  C   UNL     1       4.623  34.015  66.344  1.00  0.00     0.210 C 
ENDBRANCH  33  38
ENDBRANCH   1  32
TORSDOF 7
ENDMDL
MODEL 5
REMARK VINA RESULT:      -9.6      1.906      2.782
REMARK  7 active torsions:
REMARK  status: ('A' for Active; 'I' for Inactive)
REMARK    1  A    between atoms: O_2  and  C_3 
REMARK    2  A    between atoms: C_4  and  C_5 
REMARK    3  A    between atoms: N_10  and  C_12 
REMARK    4  A    between atoms: C_12  and  C_13 
REMARK       I    between atoms: C_13  and  N_14 
REMARK    5  A    between atoms: N_14  and  C_15 
REMARK    6  A    between atoms: C_15  and  C_16 
REMARK    7  A    between atoms: C_16  and  C_17 
ROOT
HETATM    1  C   UNL     1       3.674  32.032  59.703  1.00  0.00     0.190 C 
HETATM    2  O   UNL     1       2.792  33.107  59.324  1.00  0.00    -0.339 OA
HETATM    3  C   UNL     1       3.381  34.178  58.728  1.00  0.00     0.077 A 
HETATM    4  C   UNL     1       3.990  34.090  57.475  1.00  0.00     0.001 A 
HETATM    5  C   UNL     1       3.984  32.811  56.700  1.00  0.00     0.276 C 
HETATM    6  N   UNL     1       4.734  31.679  57.348  1.00  0.00    -0.056 N 
HETATM    7  H   UNL     1       5.637  32.016  57.708  1.00  0.00     0.280 HD
HETATM    8  C   UNL     1       3.990  31.071  58.531  1.00  0.00     0.273 C 
HETATM    9  C   UNL     1       3.287  35.397  59.400  1.00  0.00     0.037 A 
HETATM   10  C   UNL     1       3.853  36.541  58.846  1.00  0.00     0.003 A 
HETATM   11  C   UNL     1       4.496  36.467  57.613  1.00  0.00     0.001 A 
HETATM   12  C   UNL     1       4.559  35.252  56.927  1.00  0.00     0.012 A 
ENDROOT
BRANCH   6  13
HETATM   13  C   UNL     1       5.106  30.613  56.310  1.00  0.00     0.337 C 
BRANCH  13  14
HETATM   14  C   UNL     1       5.885  29.441  56.910  1.00  0.00     0.243 C 
HETATM   15  N   UNL     1       5.544  28.215  56.403  1.00  0.00    -0.359 N 
HETATM   16  H   UNL     1       4.724  28.120  55.803  1.00  0.00     0.162 HD
HETATM   17  O   UNL     1       6.728  29.629  57.783  1.00  0.00    -0.272 OA
BRANCH  15  18
HETATM   18  C   UNL     1       5.956  26.957  57.008  1.00  0.00     0.130 C 
BRANCH  18  19
HETATM   19  C   UNL     1       7.408  26.620  56.661  1.00  0.00     0.098 C 
BRANCH  19  20
HETATM   20  C   UNL     1       7.520  25.449  55.701  1.00  0.00     0.109 A 
HETATM   21  N   UNL     1       7.606  24.229  56.139  1.00  0.00    -0.234 NA
HETATM   22  C   UNL     1       7.722  23.197  55.186  1.00  0.00     0.074 A 
HETATM   23  C   UNL     1       7.793  23.445  53.811  1.00  0.00     0.061 A 
HETATM   24  C   UNL     1       7.764  21.872  55.627  1.00  0.00     0.032 A 
HETATM   25  C   UNL     1       7.734  24.848  53.372  1.00  0.00     0.259 A 
HETATM   26  C   UNL     1       7.908  22.402  52.888  1.00  0.00     0.019 A 
HETATM   27  O   UNL     1       7.810  25.172  52.195  1.00  0.00    -0.267 OA
HETATM   28  N   UNL     1       7.593  25.776  54.373  1.00  0.00    -0.311 N 
HETATM   29  H   UNL     1       7.546  26.736  54.058  1.00  0.00     0.170 HD
HETATM   30  C   UNL     1       7.950  21.085  53.344  1.00  0.00     0.001 A 
HETATM   31  C   UNL     1       7.877  20.821  54.713  1.00  0.00     0.002 A 
ENDBRANCH  19  20
ENDBRANCH  18  19
ENDBRANCH  15  18
ENDBRANCH  13  14
ENDBRANCH   6  13
BRANCH   1  32
HETATM   32  C   UNL     1       4.839  32.384  60.638  1.00  0.00     0.006 A 
HETATM   33  C   UNL     1       4.588  32.716  61.989  1.00  0.00     0.077 A 
HETATM   34  C   UNL     1       5.647  33.018  62.857  1.00  0.00     0.037 A 
HETATM   35  C   UNL     1       6.960  33.026  62.393  1.00  0.00     0.003 A 
HETATM   36  C   UNL     1       7.224  32.728  61.065  1.00  0.00     0.001 A 
HETATM   37  C   UNL     1       6.176  32.408  60.198  1.00  0.00     0.012 A 
BRANCH  33  38
HETATM   38  O   UNL     1       3.280  32.679  62.404  1.00  0.00    -0.355 OA
HETATM   39  C   UNL     1       2.734  33.911  62.873  1.00  0.00     0.210 C 
ENDBRANCH  33  38
ENDBRANCH   1  32
TORSDOF 7
ENDMDL
MODEL 6
REMARK VINA RESULT:      -9.4      2.659     11.130
REMARK  7 active torsions:
REMARK  status: ('A' for Active; 'I' for Inactive)
REMARK    1  A    between atoms: O_2  and  C_3 
REMARK    2  A    between atoms: C_4  and  C_5 
REMARK    3  A    between atoms: N_10  and  C_12 
REMARK    4  A    between atoms: C_12  and  C_13 
REMARK       I    between atoms: C_13  and  N_14 
REMARK    5  A    between atoms: N_14  and  C_15 
REMARK    6  A    between atoms: C_15  and  C_16 
REMARK    7  A    between atoms: C_16  and  C_17 
ROOT
HETATM    1  C   UNL     1       5.125  26.851  55.648  1.00  0.00     0.190 C 
HETATM    2  O   UNL     1       5.301  25.764  56.577  1.00  0.00    -0.339 OA
HETATM    3  C   UNL     1       6.566  25.275  56.688  1.00  0.00     0.077 A 
HETATM    4  C   UNL     1       7.613  26.037  57.211  1.00  0.00     0.001 A 
HETATM    5  C   UNL     1       7.384  27.424  57.720  1.00  0.00     0.276 C 
HETATM    6  N   UNL     1       6.941  28.412  56.675  1.00  0.00    -0.056 N 
HETATM    7  H   UNL     1       7.511  28.303  55.825  1.00  0.00     0.280 HD
HETATM    8  C   UNL     1       5.488  28.228  56.257  1.00  0.00     0.273 C 
HETATM    9  C   UNL     1       6.757  23.944  56.318  1.00  0.00     0.037 A 
HETATM   10  C   UNL     1       8.020  23.369  56.418  1.00  0.00     0.003 A 
HETATM   11  C   UNL     1       9.086  24.122  56.903  1.00  0.00     0.001 A 
HETATM   12  C   UNL     1       8.884  25.445  57.304  1.00  0.00     0.012 A 
ENDROOT
BRANCH   6  13
HETATM   13  C   UNL     1       7.215  29.848  57.141  1.00  0.00     0.337 C 
BRANCH  13  14
HETATM   14  C   UNL     1       8.322  29.933  58.193  1.00  0.00     0.243 C 
HETATM   15  N   UNL     1       7.875  30.142  59.471  1.00  0.00    -0.359 N 
HETATM   16  H   UNL     1       6.897  30.380  59.638  1.00  0.00     0.162 HD
HETATM   17  O   UNL     1       9.503  29.831  57.872  1.00  0.00    -0.272 OA
BRANCH  15  18
HETATM   18  C   UNL     1       8.749  30.520  60.572  1.00  0.00     0.130 C 
BRANCH  18  19
HETATM   19  C   UNL     1       8.745  32.035  60.793  1.00  0.00     0.098 C 
BRANCH  19  20
HETATM   20  C   UNL     1       7.703  32.473  61.805  1.00  0.00     0.109 A 
HETATM   21  N   UNL     1       8.037  32.784  63.021  1.00  0.00    -0.234 NA
HETATM   22  C   UNL     1       7.009  33.167  63.906  1.00  0.00     0.074 A 
HETATM   23  C   UNL     1       5.661  33.178  63.536  1.00  0.00     0.061 A 
HETATM   24  C   UNL     1       7.347  33.558  65.205  1.00  0.00     0.032 A 
HETATM   25  C   UNL     1       5.333  32.775  62.159  1.00  0.00     0.259 A 
HETATM   26  C   UNL     1       4.662  33.563  64.435  1.00  0.00     0.019 A 
HETATM   27  O   UNL     1       4.183  32.729  61.744  1.00  0.00    -0.267 OA
HETATM   28  N   UNL     1       6.405  32.447  61.368  1.00  0.00    -0.311 N 
HETATM   29  H   UNL     1       6.166  32.179  60.422  1.00  0.00     0.170 HD
HETATM   30  C   UNL     1       5.015  33.947  65.727  1.00  0.00     0.001 A 
HETATM   31  C   UNL     1       6.357  33.945  66.111  1.00  0.00     0.002 A 
ENDBRANCH  19  20
ENDBRANCH  18  19
ENDBRANCH  15  18
ENDBRANCH  13  14
ENDBRANCH   6  13
BRANCH   1  32
HETATM   32  C   UNL     1       5.557  26.604  54.196  1.00  0.00     0.006 A 
HETATM   33  C   UNL     1       4.752  27.064  53.129  1.00  0.00     0.077 A 
HETATM   34  C   UNL     1       5.149  26.862  51.799  1.00  0.00     0.037 A 
HETATM   35  C   UNL     1       6.328  26.178  51.510  1.00  0.00     0.003 A 
HETATM   36  C   UNL     1       7.118  25.698  52.543  1.00  0.00     0.001 A 
HETATM   37  C   UNL     1       6.739  25.910  53.871  1.00  0.00     0.012 A 
BRANCH  33  38
HETATM   38  O   UNL     1       3.610  27.745  53.464  1.00  0.00    -0.355 OA
HETATM   39  C   UNL     1       3.170  28.733  52.533  1.00  0.00     0.210 C 
ENDBRANCH  33  38
ENDBRANCH   1  32
TORSDOF 7
ENDMDL
MODEL 7
REMARK VINA RESULT:      -9.3      7.861     10.694
REMARK  7 active torsions:
REMARK  status: ('A' for Active; 'I' for Inactive)
REMARK    1  A    between atoms: O_2  and  C_3 
REMARK    2  A    between atoms: C_4  and  C_5 
REMARK    3  A    between atoms: N_10  and  C_12 
REMARK    4  A    between atoms: C_12  and  C_13 
REMARK       I    between atoms: C_13  and  N_14 
REMARK    5  A    between atoms: N_14  and  C_15 
REMARK    6  A    between atoms: C_15  and  C_16 
REMARK    7  A    between atoms: C_16  and  C_17 
ROOT
HETATM    1  C   UNL     1       5.058  28.518  49.242  1.00  0.00     0.190 C 
HETATM    2  O   UNL     1       5.584  29.756  49.759  1.00  0.00    -0.339 OA
HETATM    3  C   UNL     1       4.800  30.404  50.662  1.00  0.00     0.077 A 
HETATM    4  C   UNL     1       4.521  29.871  51.922  1.00  0.00     0.001 A 
HETATM    5  C   UNL     1       5.113  28.569  52.360  1.00  0.00     0.276 C 
HETATM    6  N   UNL     1       4.675  27.376  51.554  1.00  0.00    -0.056 N 
HETATM    7  H   UNL     1       3.658  27.411  51.399  1.00  0.00     0.280 HD
HETATM    8  C   UNL     1       5.327  27.314  50.179  1.00  0.00     0.273 C 
HETATM    9  C   UNL     1       4.341  31.670  50.298  1.00  0.00     0.037 A 
HETATM   10  C   UNL     1       3.546  32.400  51.176  1.00  0.00     0.003 A 
HETATM   11  C   UNL     1       3.227  31.870  52.423  1.00  0.00     0.001 A 
HETATM   12  C   UNL     1       3.716  30.618  52.799  1.00  0.00     0.012 A 
ENDROOT
BRANCH   6  13
HETATM   13  C   UNL     1       4.900  26.080  52.343  1.00  0.00     0.337 C 
BRANCH  13  14
HETATM   14  C   UNL     1       6.216  26.076  53.122  1.00  0.00     0.243 C 
HETATM   15  N   UNL     1       6.073  26.208  54.478  1.00  0.00    -0.359 N 
HETATM   16  H   UNL     1       5.165  26.452  54.875  1.00  0.00     0.162 HD
HETATM   17  O   UNL     1       7.291  25.974  52.538  1.00  0.00    -0.272 OA
BRANCH  15  18
HETATM   18  C   UNL     1       7.182  26.496  55.375  1.00  0.00     0.130 C 
BRANCH  18  19
HETATM   19  C   UNL     1       7.211  25.525  56.557  1.00  0.00     0.098 C 
BRANCH  19  20
HETATM   20  C   UNL     1       7.618  24.121  56.148  1.00  0.00     0.109 A 
HETATM   21  N   UNL     1       7.617  23.759  54.900  1.00  0.00    -0.234 NA
HETATM   22  C   UNL     1       7.994  22.434  54.602  1.00  0.00     0.074 A 
HETATM   23  C   UNL     1       8.318  21.501  55.591  1.00  0.00     0.061 A 
HETATM   24  C   UNL     1       8.052  22.034  53.264  1.00  0.00     0.032 A 
HETATM   25  C   UNL     1       8.261  21.951  56.991  1.00  0.00     0.259 A 
HETATM   26  C   UNL     1       8.688  20.193  55.267  1.00  0.00     0.019 A 
HETATM   27  O   UNL     1       8.504  21.207  57.931  1.00  0.00    -0.267 OA
HETATM   28  N   UNL     1       7.911  23.265  57.176  1.00  0.00    -0.311 N 
HETATM   29  H   UNL     1       7.883  23.564  58.143  1.00  0.00     0.170 HD
HETATM   30  C   UNL     1       8.739  19.809  53.927  1.00  0.00     0.001 A 
HETATM   31  C   UNL     1       8.422  20.729  52.928  1.00  0.00     0.002 A 
ENDBRANCH  19  20
ENDBRANCH  18  19
ENDBRANCH  15  18
ENDBRANCH  13  14
ENDBRANCH   6  13
BRANCH   1  32
HETATM   32  C   UNL     1       3.681  28.573  48.569  1.00  0.00     0.006 A 
HETATM   33  C   UNL     1       3.509  29.289  47.362  1.00  0.00     0.077 A 
HETATM   34  C   UNL     1       2.260  29.327  46.728  1.00  0.00     0.037 A 
HETATM   35  C   UNL     1       1.160  28.685  47.293  1.00  0.00     0.003 A 
HETATM   36  C   UNL     1       1.303  27.998  48.490  1.00  0.00     0.001 A 
HETATM   37  C   UNL     1       2.549  27.940  49.119  1.00  0.00     0.012 A 
BRANCH  33  38
HETATM   38  O   UNL     1       4.624  29.891  46.836  1.00  0.00    -0.355 OA
HETATM   39  C   UNL     1       4.525  31.293  46.588  1.00  0.00     0.210 C 
ENDBRANCH  33  38
ENDBRANCH   1  32
TORSDOF 7
ENDMDL
MODEL 8
REMARK VINA RESULT:      -9.3      7.389     10.650
REMARK  7 active torsions:
REMARK  status: ('A' for Active; 'I' for Inactive)
REMARK    1  A    between atoms: O_2  and  C_3 
REMARK    2  A    between atoms: C_4  and  C_5 
REMARK    3  A    between atoms: N_10  and  C_12 
REMARK    4  A    between atoms: C_12  and  C_13 
REMARK       I    between atoms: C_13  and  N_14 
REMARK    5  A    between atoms: N_14  and  C_15 
REMARK    6  A    between atoms: C_15  and  C_16 
REMARK    7  A    between atoms: C_16  and  C_17 
ROOT
HETATM    1  C   UNL     1       2.964  31.017  50.128  1.00  0.00     0.190 C 
HETATM    2  O   UNL     1       2.386  29.835  49.540  1.00  0.00    -0.339 OA
HETATM    3  C   UNL     1       3.254  28.824  49.262  1.00  0.00     0.077 A 
HETATM    4  C   UNL     1       3.928  28.127  50.266  1.00  0.00     0.001 A 
HETATM    5  C   UNL     1       3.694  28.431  51.712  1.00  0.00     0.276 C 
HETATM    6  N   UNL     1       4.107  29.814  52.139  1.00  0.00    -0.056 N 
HETATM    7  H   UNL     1       5.030  30.042  51.745  1.00  0.00     0.280 HD
HETATM    8  C   UNL     1       3.147  30.897  51.661  1.00  0.00     0.273 C 
HETATM    9  C   UNL     1       3.386  28.464  47.921  1.00  0.00     0.037 A 
HETATM   10  C   UNL     1       4.243  27.430  47.560  1.00  0.00     0.003 A 
HETATM   11  C   UNL     1       4.953  26.745  48.544  1.00  0.00     0.001 A 
HETATM   12  C   UNL     1       4.792  27.085  49.889  1.00  0.00     0.012 A 
ENDROOT
BRANCH   6  13
HETATM   13  C   UNL     1       4.310  29.872  53.658  1.00  0.00     0.337 C 
BRANCH  13  14
HETATM   14  C   UNL     1       5.260  28.790  54.174  1.00  0.00     0.243 C 
HETATM   15  N   UNL     1       6.486  28.773  53.564  1.00  0.00    -0.359 N 
HETATM   16  H   UNL     1       6.651  29.339  52.730  1.00  0.00     0.162 HD
HETATM   17  O   UNL     1       4.906  28.012  55.056  1.00  0.00    -0.272 OA
BRANCH  15  18
HETATM   18  C   UNL     1       7.434  27.677  53.704  1.00  0.00     0.130 C 
BRANCH  18  19
HETATM   19  C   UNL     1       7.017  26.468  52.862  1.00  0.00     0.098 C 
BRANCH  19  20
HETATM   20  C   UNL     1       7.272  25.150  53.570  1.00  0.00     0.109 A 
HETATM   21  N   UNL     1       7.448  24.051  52.899  1.00  0.00    -0.234 NA
HETATM   22  C   UNL     1       7.664  22.865  53.629  1.00  0.00     0.074 A 
HETATM   23  C   UNL     1       7.649  22.827  55.027  1.00  0.00     0.061 A 
HETATM   24  C   UNL     1       7.908  21.679  52.932  1.00  0.00     0.032 A 
HETATM   25  C   UNL     1       7.402  24.092  55.737  1.00  0.00     0.259 A 
HETATM   26  C   UNL     1       7.867  21.636  55.726  1.00  0.00     0.019 A 
HETATM   27  O   UNL     1       7.348  24.161  56.957  1.00  0.00    -0.267 OA
HETATM   28  N   UNL     1       7.232  25.195  54.938  1.00  0.00    -0.311 N 
HETATM   29  H   UNL     1       7.071  26.059  55.439  1.00  0.00     0.170 HD
HETATM   30  C   UNL     1       8.107  20.460  55.016  1.00  0.00     0.001 A 
HETATM   31  C   UNL     1       8.128  20.482  53.621  1.00  0.00     0.002 A 
ENDBRANCH  19  20
ENDBRANCH  18  19
ENDBRANCH  15  18
ENDBRANCH  13  14
ENDBRANCH   6  13
BRANCH   1  32
HETATM   32  C   UNL     1       4.096  31.700  49.350  1.00  0.00     0.006 A 
HETATM   33  C   UNL     1       3.825  32.340  48.119  1.00  0.00     0.077 A 
HETATM   34  C   UNL     1       4.848  32.986  47.411  1.00  0.00     0.037 A 
HETATM   35  C   UNL     1       6.154  32.981  47.895  1.00  0.00     0.003 A 
HETATM   36  C   UNL     1       6.445  32.337  49.089  1.00  0.00     0.001 A 
HETATM   37  C   UNL     1       5.427  31.707  49.810  1.00  0.00     0.012 A 
BRANCH  33  38
HETATM   38  O   UNL     1       2.521  32.332  47.691  1.00  0.00    -0.355 OA
HETATM   39  C   UNL     1       1.832  33.580  47.748  1.00  0.00     0.210 C 
ENDBRANCH  33  38
ENDBRANCH   1  32
TORSDOF 7
ENDMDL
MODEL 9
REMARK VINA RESULT:      -9.2      6.426     10.169
REMARK  7 active torsions:
REMARK  status: ('A' for Active; 'I' for Inactive)
REMARK    1  A    between atoms: O_2  and  C_3 
REMARK    2  A    between atoms: C_4  and  C_5 
REMARK    3  A    between atoms: N_10  and  C_12 
REMARK    4  A    between atoms: C_12  and  C_13 
REMARK       I    between atoms: C_13  and  N_14 
REMARK    5  A    between atoms: N_14  and  C_15 
REMARK    6  A    between atoms: C_15  and  C_16 
REMARK    7  A    between atoms: C_16  and  C_17 
ROOT
HETATM    1  C   UNL     1       5.440  26.279  55.400  1.00  0.00     0.190 C 
HETATM    2  O   UNL     1       6.013  26.671  56.663  1.00  0.00    -0.339 OA
HETATM    3  C   UNL     1       7.064  27.532  56.598  1.00  0.00     0.077 A 
HETATM    4  C   UNL     1       6.926  28.840  56.132  1.00  0.00     0.001 A 
HETATM    5  C   UNL     1       5.593  29.378  55.718  1.00  0.00     0.276 C 
HETATM    6  N   UNL     1       4.979  28.692  54.527  1.00  0.00    -0.056 N 
HETATM    7  H   UNL     1       5.690  28.559  53.795  1.00  0.00     0.280 HD
HETATM    8  C   UNL     1       4.423  27.312  54.855  1.00  0.00     0.273 C 
HETATM    9  C   UNL     1       8.284  27.067  57.090  1.00  0.00     0.037 A 
HETATM   10  C   UNL     1       9.402  27.895  57.071  1.00  0.00     0.003 A 
HETATM   11  C   UNL     1       9.293  29.192  56.576  1.00  0.00     0.001 A 
HETATM   12  C   UNL     1       8.063  29.666  56.116  1.00  0.00     0.012 A 
ENDROOT
BRANCH   6  13
HETATM   13  C   UNL     1       3.918  29.588  53.877  1.00  0.00     0.337 C 
BRANCH  13  14
HETATM   14  C   UNL     1       3.968  29.559  52.348  1.00  0.00     0.243 C 
HETATM   15  N   UNL     1       5.227  29.666  51.820  1.00  0.00    -0.359 N 
HETATM   16  H   UNL     1       6.015  29.911  52.421  1.00  0.00     0.162 HD
HETATM   17  O   UNL     1       2.937  29.459  51.688  1.00  0.00    -0.272 OA
BRANCH  15  18
HETATM   18  C   UNL     1       5.483  29.929  50.411  1.00  0.00     0.130 C 
BRANCH  18  19
HETATM   19  C   UNL     1       5.694  28.630  49.630  1.00  0.00     0.098 C 
BRANCH  19  20
HETATM   20  C   UNL     1       4.462  28.214  48.848  1.00  0.00     0.109 A 
HETATM   21  N   UNL     1       3.671  29.099  48.321  1.00  0.00    -0.234 NA
HETATM   22  C   UNL     1       2.539  28.635  47.622  1.00  0.00     0.074 A 
HETATM   23  C   UNL     1       2.222  27.277  47.518  1.00  0.00     0.061 A 
HETATM   24  C   UNL     1       1.700  29.564  47.001  1.00  0.00     0.032 A 
HETATM   25  C   UNL     1       3.128  26.318  48.170  1.00  0.00     0.259 A 
HETATM   26  C   UNL     1       1.092  26.843  46.819  1.00  0.00     0.019 A 
HETATM   27  O   UNL     1       2.928  25.111  48.157  1.00  0.00    -0.267 OA
HETATM   28  N   UNL     1       4.216  26.867  48.801  1.00  0.00    -0.311 N 
HETATM   29  H   UNL     1       4.835  26.197  49.238  1.00  0.00     0.170 HD
HETATM   30  C   UNL     1       0.264  27.783  46.207  1.00  0.00     0.001 A 
HETATM   31  C   UNL     1       0.569  29.142  46.298  1.00  0.00     0.002 A 
ENDBRANCH  19  20
ENDBRANCH  18  19
ENDBRANCH  15  18
ENDBRANCH  13  14
ENDBRANCH   6  13
BRANCH   1  32
HETATM   32  C   UNL     1       6.385  25.637  54.376  1.00  0.00     0.006 A 
HETATM   33  C   UNL     1       7.068  24.441  54.694  1.00  0.00     0.077 A 
HETATM   34  C   UNL     1       7.917  23.835  53.757  1.00  0.00     0.037 A 
HETATM   35  C   UNL     1       8.124  24.418  52.509  1.00  0.00     0.003 A 
HETATM   36  C   UNL     1       7.482  25.605  52.188  1.00  0.00     0.001 A 
HETATM   37  C   UNL     1       6.621  26.206  53.109  1.00  0.00     0.012 A 
BRANCH  33  38
HETATM   38  O   UNL     1       6.820  23.896  55.928  1.00  0.00    -0.355 OA
HETATM   39  C   UNL     1       7.941  23.326  56.601  1.00  0.00     0.210 C 
ENDBRANCH  33  38
ENDBRANCH   1  32
TORSDOF 7
ENDMDL
MODEL 10
REMARK VINA RESULT:      -9.1      2.074     10.847
REMARK  7 active torsions:
REMARK  status: ('A' for Active; 'I' for Inactive)
REMARK    1  A    between atoms: O_2  and  C_3 
REMARK    2  A    between atoms: C_4  and  C_5 
REMARK    3  A    between atoms: N_10  and  C_12 
REMARK    4  A    between atoms: C_12  and  C_13 
REMARK       I    between atoms: C_13  and  N_14 
REMARK    5  A    between atoms: N_14  and  C_15 
REMARK    6  A    between atoms: C_15  and  C_16 
REMARK    7  A    between atoms: C_16  and  C_17 
ROOT
HETATM    1  C   UNL     1       5.213  26.097  55.654  1.00  0.00     0.190 C 
HETATM    2  O   UNL     1       5.480  24.842  56.312  1.00  0.00    -0.339 OA
HETATM    3  C   UNL     1       6.766  24.402  56.253  1.00  0.00     0.077 A 
HETATM    4  C   UNL     1       7.812  25.079  56.883  1.00  0.00     0.001 A 
HETATM    5  C   UNL     1       7.560  26.309  57.696  1.00  0.00     0.276 C 
HETATM    6  N   UNL     1       7.026  27.480  56.917  1.00  0.00    -0.056 N 
HETATM    7  H   UNL     1       7.551  27.587  56.038  1.00  0.00     0.280 HD
HETATM    8  C   UNL     1       5.559  27.322  56.535  1.00  0.00     0.273 C 
HETATM    9  C   UNL     1       6.984  23.194  55.591  1.00  0.00     0.037 A 
HETATM   10  C   UNL     1       8.271  22.673  55.502  1.00  0.00     0.003 A 
HETATM   11  C   UNL     1       9.334  23.351  56.093  1.00  0.00     0.001 A 
HETATM   12  C   UNL     1       9.107  24.543  56.785  1.00  0.00     0.012 A 
ENDROOT
BRANCH   6  13
HETATM   13  C   UNL     1       7.272  28.790  57.675  1.00  0.00     0.337 C 
BRANCH  13  14
HETATM   14  C   UNL     1       6.267  29.886  57.317  1.00  0.00     0.243 C 
HETATM   15  N   UNL     1       5.350  30.157  58.298  1.00  0.00    -0.359 N 
HETATM   16  H   UNL     1       5.276  29.545  59.112  1.00  0.00     0.162 HD
HETATM   17  O   UNL     1       6.305  30.441  56.222  1.00  0.00    -0.272 OA
BRANCH  15  18
HETATM   18  C   UNL     1       4.154  30.956  58.076  1.00  0.00     0.130 C 
BRANCH  18  19
HETATM   19  C   UNL     1       4.381  32.419  58.466  1.00  0.00     0.098 C 
BRANCH  19  20
HETATM   20  C   UNL     1       4.837  32.575  59.905  1.00  0.00     0.109 A 
HETATM   21  N   UNL     1       6.091  32.466  60.227  1.00  0.00    -0.234 NA
HETATM   22  C   UNL     1       6.433  32.609  61.587  1.00  0.00     0.074 A 
HETATM   23  C   UNL     1       5.478  32.814  62.587  1.00  0.00     0.061 A 
HETATM   24  C   UNL     1       7.781  32.548  61.954  1.00  0.00     0.032 A 
HETATM   25  C   UNL     1       4.068  32.887  62.173  1.00  0.00     0.259 A 
HETATM   26  C   UNL     1       5.846  32.952  63.929  1.00  0.00     0.019 A 
HETATM   27  O   UNL     1       3.155  33.041  62.973  1.00  0.00    -0.267 OA
HETATM   28  N   UNL     1       3.840  32.764  60.825  1.00  0.00    -0.311 N 
HETATM   29  H   UNL     1       2.868  32.823  60.553  1.00  0.00     0.170 HD
HETATM   30  C   UNL     1       7.194  32.887  64.279  1.00  0.00     0.001 A 
HETATM   31  C   UNL     1       8.160  32.686  63.292  1.00  0.00     0.002 A 
ENDBRANCH  19  20
ENDBRANCH  18  19
ENDBRANCH  15  18
ENDBRANCH  13  14
ENDBRANCH   6  13
BRANCH   1  32
HETATM   32  C   UNL     1       5.573  26.194  54.166  1.00  0.00     0.006 A 
HETATM   33  C   UNL     1       4.801  27.004  53.301  1.00  0.00     0.077 A 
HETATM   34  C   UNL     1       5.135  27.116  51.944  1.00  0.00     0.037 A 
HETATM   35  C   UNL     1       6.214  26.408  51.420  1.00  0.00     0.003 A 
HETATM   36  C   UNL     1       6.967  25.588  52.248  1.00  0.00     0.001 A 
HETATM   37  C   UNL     1       6.653  25.485  53.605  1.00  0.00     0.012 A 
BRANCH  33  38
HETATM   38  O   UNL     1       3.759  27.694  53.866  1.00  0.00    -0.355 OA
HETATM   39  C   UNL     1       3.799  29.114  53.734  1.00  0.00     0.210 C 
ENDBRANCH  33  38
ENDBRANCH   1  32
TORSDOF 7
ENDMDL
