MODEL 1
REMARK VINA RESULT:      -8.3      0.000      0.000
REMARK  4 active torsions:
REMARK  status: ('A' for Active; 'I' for Inactive)
REMARK    1  A    between atoms: C_9  and  N_10 
REMARK    2  A    between atoms: N_10  and  C_12 
REMARK    3  A    between atoms: C_12  and  C_13 
REMARK    4  A    between atoms: C_14  and  C_15 
ROOT
HETATM    1  C   UNL     1       5.777  25.915  53.367  1.00  0.00     0.016 A 
HETATM    2  C   UNL     1       6.285  27.254  53.334  1.00  0.00     0.096 A 
HETATM    3  N   UNL     1       6.410  27.687  52.075  1.00  0.00    -0.174 NA
HETATM    4  N   UNL     1       5.997  26.675  51.311  1.00  0.00    -0.288 N 
HETATM    5  H   UNL     1       6.002  26.802  50.301  1.00  0.00     0.188 HD
HETATM    6  C   UNL     1       5.590  25.589  52.034  1.00  0.00     0.120 A 
ENDROOT
BRANCH   1   7
HETATM    7  C   UNL     1       5.441  25.126  54.585  1.00  0.00     0.277 C 
BRANCH   7   8
HETATM    8  N   UNL     1       6.544  25.051  55.624  1.00  0.00    -0.065 N 
HETATM    9  H   UNL     1       7.360  25.552  55.256  1.00  0.00     0.280 HD
HETATM   10  C   UNL     1       6.110  25.682  56.926  1.00  0.00     0.270 C 
BRANCH   8  11
HETATM   11  C   UNL     1       6.842  23.603  55.907  1.00  0.00     0.205 C 
HETATM   12  C   UNL     1       8.280  23.255  56.557  1.00  0.00     0.008 C 
HETATM   13  C   UNL     1       8.311  21.942  57.352  1.00  0.00     0.020 C 
HETATM   14  C   UNL     1       9.058  24.326  57.322  1.00  0.00     0.020 C 
HETATM   15  C   UNL     1       8.751  23.168  55.099  1.00  0.00     0.137 C 
HETATM   16  C   UNL     1       7.319  22.733  54.686  1.00  0.00     0.049 C 
HETATM   17  O   UNL     1       9.633  22.209  54.518  1.00  0.00    -0.385 OA
HETATM   18  C   UNL     1       7.710  22.676  53.212  1.00  0.00     0.035 C 
HETATM   19  C   UNL     1       9.026  21.847  53.253  1.00  0.00     0.168 C 
ENDBRANCH   8  11
ENDBRANCH   7   8
ENDBRANCH   1   7
BRANCH   2  20
HETATM   20  C   UNL     1       6.592  28.138  54.455  1.00  0.00    -0.002 A 
HETATM   21  C   UNL     1       7.890  28.225  54.972  1.00  0.00     0.053 A 
HETATM   22  C   UNL     1       8.148  29.034  56.079  1.00  0.00     0.103 A 
HETATM   23  C   UNL     1       7.115  29.759  56.680  1.00  0.00     0.102 A 
HETATM   24  O   UNL     1       9.442  29.053  56.533  1.00  0.00    -0.346 OA
HETATM   25  O   UNL     1       7.294  30.543  57.788  1.00  0.00    -0.346 OA
HETATM   26  C   UNL     1       5.831  29.713  56.144  1.00  0.00     0.040 A 
HETATM   27  C   UNL     1       8.545  30.279  58.432  1.00  0.00     0.202 C 
HETATM   28  C   UNL     1       9.665  30.167  57.411  1.00  0.00     0.202 C 
HETATM   29  C   UNL     1       5.569  28.903  55.035  1.00  0.00     0.017 A 
ENDBRANCH   2  20
TORSDOF 4
ENDMDL
MODEL 2
REMARK VINA RESULT:      -8.3      1.679      6.756
REMARK  4 active torsions:
REMARK  status: ('A' for Active; 'I' for Inactive)
REMARK    1  A    between atoms: C_9  and  N_10 
REMARK    2  A    between atoms: N_10  and  C_12 
REMARK    3  A    between atoms: C_12  and  C_13 
REMARK    4  A    between atoms: C_14  and  C_15 
ROOT
HETATM    1  C   UNL     1       6.578  27.635  54.698  1.00  0.00     0.016 A 
HETATM    2  C   UNL     1       6.363  26.371  54.059  1.00  0.00     0.096 A 
HETATM    3  N   UNL     1       5.623  26.514  52.954  1.00  0.00    -0.174 NA
HETATM    4  N   UNL     1       5.366  27.821  52.868  1.00  0.00    -0.288 N 
HETATM    5  H   UNL     1       4.815  28.152  52.079  1.00  0.00     0.188 HD
HETATM    6  C   UNL     1       5.929  28.544  53.881  1.00  0.00     0.120 A 
ENDROOT
BRANCH   1   7
HETATM    7  C   UNL     1       7.409  27.882  55.910  1.00  0.00     0.277 C 
BRANCH   7   8
HETATM    8  N   UNL     1       6.874  28.948  56.847  1.00  0.00    -0.065 N 
HETATM    9  H   UNL     1       6.819  29.829  56.324  1.00  0.00     0.280 HD
HETATM   10  C   UNL     1       5.503  28.581  57.363  1.00  0.00     0.270 C 
BRANCH   8  11
HETATM   11  C   UNL     1       7.789  29.046  58.038  1.00  0.00     0.205 C 
HETATM   12  C   UNL     1       7.954  30.497  58.729  1.00  0.00     0.008 C 
HETATM   13  C   UNL     1       8.370  30.449  60.206  1.00  0.00     0.020 C 
HETATM   14  C   UNL     1       6.874  31.565  58.544  1.00  0.00     0.020 C 
HETATM   15  C   UNL     1       9.091  30.685  57.717  1.00  0.00     0.137 C 
HETATM   16  C   UNL     1       9.329  29.151  57.734  1.00  0.00     0.049 C 
HETATM   17  O   UNL     1      10.370  31.279  57.935  1.00  0.00    -0.385 OA
HETATM   18  C   UNL     1      10.438  29.262  56.690  1.00  0.00     0.035 C 
HETATM   19  C   UNL     1      11.317  30.409  57.268  1.00  0.00     0.168 C 
ENDBRANCH   8  11
ENDBRANCH   7   8
ENDBRANCH   1   7
BRANCH   2  20
HETATM   20  C   UNL     1       6.886  25.060  54.435  1.00  0.00    -0.002 A 
HETATM   21  C   UNL     1       7.202  24.103  53.463  1.00  0.00     0.053 A 
HETATM   22  C   UNL     1       7.647  22.838  53.848  1.00  0.00     0.103 A 
HETATM   23  C   UNL     1       7.777  22.518  55.203  1.00  0.00     0.102 A 
HETATM   24  O   UNL     1       7.921  21.953  52.837  1.00  0.00    -0.346 OA
HETATM   25  O   UNL     1       8.176  21.286  55.648  1.00  0.00    -0.346 OA
HETATM   26  C   UNL     1       7.509  23.479  56.173  1.00  0.00     0.040 A 
HETATM   27  C   UNL     1       8.122  20.301  54.610  1.00  0.00     0.202 C 
HETATM   28  C   UNL     1       8.702  20.847  53.316  1.00  0.00     0.202 C 
HETATM   29  C   UNL     1       7.063  24.747  55.790  1.00  0.00     0.017 A 
ENDBRANCH   2  20
TORSDOF 4
ENDMDL
MODEL 3
REMARK VINA RESULT:      -8.3      4.011      6.553
REMARK  4 active torsions:
REMARK  status: ('A' for Active; 'I' for Inactive)
REMARK    1  A    between atoms: C_9  and  N_10 
REMARK    2  A    between atoms: N_10  and  C_12 
REMARK    3  A    between atoms: C_12  and  C_13 
REMARK    4  A    between atoms: C_14  and  C_15 
ROOT
HETATM    1  C   UNL     1       9.008  30.055  58.295  1.00  0.00     0.016 A 
HETATM    2  C   UNL     1       9.271  31.245  59.049  1.00  0.00     0.096 A 
HETATM    3  N   UNL     1      10.270  31.947  58.501  1.00  0.00    -0.174 NA
HETATM    4  N   UNL     1      10.646  31.248  57.428  1.00  0.00    -0.288 N 
HETATM    5  H   UNL     1      11.400  31.618  56.853  1.00  0.00     0.188 HD
HETATM    6  C   UNL     1       9.911  30.110  57.247  1.00  0.00     0.120 A 
ENDROOT
BRANCH   1   7
HETATM    7  C   UNL     1       7.927  29.064  58.556  1.00  0.00     0.277 C 
BRANCH   7   8
HETATM    8  N   UNL     1       6.771  29.104  57.575  1.00  0.00    -0.065 N 
HETATM    9  H   UNL     1       5.949  28.703  58.040  1.00  0.00     0.280 HD
HETATM   10  C   UNL     1       6.469  30.520  57.147  1.00  0.00     0.270 C 
BRANCH   8  11
HETATM   11  C   UNL     1       7.160  28.336  56.340  1.00  0.00     0.205 C 
HETATM   12  C   UNL     1       5.973  27.643  55.492  1.00  0.00     0.008 C 
HETATM   13  C   UNL     1       6.306  27.414  54.011  1.00  0.00     0.020 C 
HETATM   14  C   UNL     1       4.539  28.161  55.611  1.00  0.00     0.020 C 
HETATM   15  C   UNL     1       6.206  26.449  56.426  1.00  0.00     0.137 C 
HETATM   16  C   UNL     1       7.693  26.873  56.561  1.00  0.00     0.049 C 
HETATM   17  O   UNL     1       6.225  25.062  56.089  1.00  0.00    -0.385 OA
HETATM   18  C   UNL     1       7.979  25.734  57.536  1.00  0.00     0.035 C 
HETATM   19  C   UNL     1       7.359  24.510  56.801  1.00  0.00     0.168 C 
ENDBRANCH   8  11
ENDBRANCH   7   8
ENDBRANCH   1   7
BRANCH   2  20
HETATM   20  C   UNL     1       8.567  31.752  60.223  1.00  0.00    -0.002 A 
HETATM   21  C   UNL     1       7.329  32.394  60.101  1.00  0.00     0.053 A 
HETATM   22  C   UNL     1       6.701  32.921  61.230  1.00  0.00     0.103 A 
HETATM   23  C   UNL     1       7.303  32.812  62.487  1.00  0.00     0.102 A 
HETATM   24  O   UNL     1       5.498  33.546  61.024  1.00  0.00    -0.346 OA
HETATM   25  O   UNL     1       6.757  33.336  63.628  1.00  0.00    -0.346 OA
HETATM   26  C   UNL     1       8.511  32.135  62.623  1.00  0.00     0.040 A 
HETATM   27  C   UNL     1       5.703  34.261  63.340  1.00  0.00     0.202 C 
HETATM   28  C   UNL     1       4.785  33.715  62.259  1.00  0.00     0.202 C 
HETATM   29  C   UNL     1       9.143  31.607  61.493  1.00  0.00     0.017 A 
ENDBRANCH   2  20
TORSDOF 4
ENDMDL
MODEL 4
REMARK VINA RESULT:      -8.1      4.202      7.632
REMARK  4 active torsions:
REMARK  status: ('A' for Active; 'I' for Inactive)
REMARK    1  A    between atoms: C_9  and  N_10 
REMARK    2  A    between atoms: N_10  and  C_12 
REMARK    3  A    between atoms: C_12  and  C_13 
REMARK    4  A    between atoms: C_14  and  C_15 
ROOT
HETATM    1  C   UNL     1       8.990  30.273  58.459  1.00  0.00     0.016 A 
HETATM    2  C   UNL     1       9.230  31.408  59.300  1.00  0.00     0.096 A 
HETATM    3  N   UNL     1      10.256  32.134  58.843  1.00  0.00    -0.174 NA
HETATM    4  N   UNL     1      10.672  31.503  57.743  1.00  0.00    -0.288 N 
HETATM    5  H   UNL     1      11.453  31.902  57.226  1.00  0.00     0.188 HD
HETATM    6  C   UNL     1       9.937  30.387  57.456  1.00  0.00     0.120 A 
ENDROOT
BRANCH   1   7
HETATM    7  C   UNL     1       7.891  29.279  58.609  1.00  0.00     0.277 C 
BRANCH   7   8
HETATM    8  N   UNL     1       7.541  28.515  57.345  1.00  0.00    -0.065 N 
HETATM    9  H   UNL     1       8.090  28.912  56.575  1.00  0.00     0.280 HD
HETATM   10  C   UNL     1       7.865  27.047  57.490  1.00  0.00     0.270 C 
BRANCH   8  11
HETATM   11  C   UNL     1       6.059  28.626  57.110  1.00  0.00     0.205 C 
HETATM   12  C   UNL     1       5.557  28.717  55.577  1.00  0.00     0.008 C 
HETATM   13  C   UNL     1       4.116  28.235  55.356  1.00  0.00     0.020 C 
HETATM   14  C   UNL     1       6.442  28.194  54.444  1.00  0.00     0.020 C 
HETATM   15  C   UNL     1       5.739  30.229  55.764  1.00  0.00     0.137 C 
HETATM   16  C   UNL     1       5.427  30.056  57.275  1.00  0.00     0.049 C 
HETATM   17  O   UNL     1       4.885  31.278  55.307  1.00  0.00    -0.385 OA
HETATM   18  C   UNL     1       5.642  31.545  57.538  1.00  0.00     0.035 C 
HETATM   19  C   UNL     1       4.787  32.203  56.417  1.00  0.00     0.168 C 
ENDBRANCH   8  11
ENDBRANCH   7   8
ENDBRANCH   1   7
BRANCH   2  20
HETATM   20  C   UNL     1       8.480  31.844  60.475  1.00  0.00    -0.002 A 
HETATM   21  C   UNL     1       7.227  32.455  60.346  1.00  0.00     0.053 A 
HETATM   22  C   UNL     1       6.554  32.914  61.479  1.00  0.00     0.103 A 
HETATM   23  C   UNL     1       7.126  32.770  62.746  1.00  0.00     0.102 A 
HETATM   24  O   UNL     1       5.339  33.513  61.266  1.00  0.00    -0.346 OA
HETATM   25  O   UNL     1       6.535  33.229  63.893  1.00  0.00    -0.346 OA
HETATM   26  C   UNL     1       8.351  32.123  62.887  1.00  0.00     0.040 A 
HETATM   27  C   UNL     1       5.462  34.135  63.615  1.00  0.00     0.202 C 
HETATM   28  C   UNL     1       4.589  33.608  62.487  1.00  0.00     0.202 C 
HETATM   29  C   UNL     1       9.027  31.662  61.754  1.00  0.00     0.017 A 
ENDBRANCH   2  20
TORSDOF 4
ENDMDL
MODEL 5
REMARK VINA RESULT:      -8.1      1.737      6.589
REMARK  4 active torsions:
REMARK  status: ('A' for Active; 'I' for Inactive)
REMARK    1  A    between atoms: C_9  and  N_10 
REMARK    2  A    between atoms: N_10  and  C_12 
REMARK    3  A    between atoms: C_12  and  C_13 
REMARK    4  A    between atoms: C_14  and  C_15 
ROOT
HETATM    1  C   UNL     1       5.675  26.405  53.074  1.00  0.00     0.016 A 
HETATM    2  C   UNL     1       6.571  25.316  52.821  1.00  0.00     0.096 A 
HETATM    3  N   UNL     1       6.907  25.263  51.528  1.00  0.00    -0.174 NA
HETATM    4  N   UNL     1       6.259  26.279  50.953  1.00  0.00    -0.288 N 
HETATM    5  H   UNL     1       6.387  26.427  49.954  1.00  0.00     0.188 HD
HETATM    6  C   UNL     1       5.516  27.008  51.838  1.00  0.00     0.120 A 
ENDROOT
BRANCH   1   7
HETATM    7  C   UNL     1       5.141  26.821  54.401  1.00  0.00     0.277 C 
BRANCH   7   8
HETATM    8  N   UNL     1       4.825  28.299  54.529  1.00  0.00    -0.065 N 
HETATM    9  H   UNL     1       5.611  28.826  54.132  1.00  0.00     0.280 HD
HETATM   10  C   UNL     1       3.557  28.651  53.789  1.00  0.00     0.270 C 
BRANCH   8  11
HETATM   11  C   UNL     1       4.598  28.619  55.982  1.00  0.00     0.205 C 
HETATM   12  C   UNL     1       4.790  30.156  56.442  1.00  0.00     0.008 C 
HETATM   13  C   UNL     1       4.004  30.539  57.704  1.00  0.00     0.020 C 
HETATM   14  C   UNL     1       4.680  31.285  55.417  1.00  0.00     0.020 C 
HETATM   15  C   UNL     1       6.254  29.751  56.659  1.00  0.00     0.137 C 
HETATM   16  C   UNL     1       5.785  28.303  56.965  1.00  0.00     0.049 C 
HETATM   17  O   UNL     1       7.114  30.118  57.738  1.00  0.00    -0.385 OA
HETATM   18  C   UNL     1       7.223  27.825  57.145  1.00  0.00     0.035 C 
HETATM   19  C   UNL     1       7.809  28.901  58.104  1.00  0.00     0.168 C 
ENDBRANCH   8  11
ENDBRANCH   7   8
ENDBRANCH   1   7
BRANCH   2  20
HETATM   20  C   UNL     1       7.154  24.378  53.776  1.00  0.00    -0.002 A 
HETATM   21  C   UNL     1       7.273  23.016  53.470  1.00  0.00     0.053 A 
HETATM   22  C   UNL     1       7.781  22.129  54.420  1.00  0.00     0.103 A 
HETATM   23  C   UNL     1       8.173  22.592  55.679  1.00  0.00     0.102 A 
HETATM   24  O   UNL     1       7.851  20.812  54.048  1.00  0.00    -0.346 OA
HETATM   25  O   UNL     1       8.647  21.771  56.667  1.00  0.00    -0.346 OA
HETATM   26  C   UNL     1       8.101  23.951  55.974  1.00  0.00     0.040 A 
HETATM   27  C   UNL     1       8.390  20.391  56.382  1.00  0.00     0.202 C 
HETATM   28  C   UNL     1       8.707  20.070  54.931  1.00  0.00     0.202 C 
HETATM   29  C   UNL     1       7.592  24.842  55.026  1.00  0.00     0.017 A 
ENDBRANCH   2  20
TORSDOF 4
ENDMDL
MODEL 6
REMARK VINA RESULT:      -7.8      1.663      2.954
REMARK  4 active torsions:
REMARK  status: ('A' for Active; 'I' for Inactive)
REMARK    1  A    between atoms: C_9  and  N_10 
REMARK    2  A    between atoms: N_10  and  C_12 
REMARK    3  A    between atoms: C_12  and  C_13 
REMARK    4  A    between atoms: C_14  and  C_15 
ROOT
HETATM    1  C   UNL     1       5.760  25.591  53.991  1.00  0.00     0.016 A 
HETATM    2  C   UNL     1       5.506  26.863  54.599  1.00  0.00     0.096 A 
HETATM    3  N   UNL     1       4.427  27.443  54.061  1.00  0.00    -0.174 NA
HETATM    4  N   UNL     1       3.988  26.585  53.139  1.00  0.00    -0.288 N 
HETATM    5  H   UNL     1       3.154  26.833  52.610  1.00  0.00     0.188 HD
HETATM    6  C   UNL     1       4.741  25.447  53.065  1.00  0.00     0.120 A 
ENDROOT
BRANCH   1   7
HETATM    7  C   UNL     1       6.829  24.627  54.374  1.00  0.00     0.277 C 
BRANCH   7   8
HETATM    8  N   UNL     1       7.345  23.759  53.241  1.00  0.00    -0.065 N 
HETATM    9  H   UNL     1       6.577  23.153  52.932  1.00  0.00     0.280 HD
HETATM   10  C   UNL     1       7.819  24.603  52.082  1.00  0.00     0.270 C 
BRANCH   8  11
HETATM   11  C   UNL     1       8.529  22.974  53.736  1.00  0.00     0.205 C 
HETATM   12  C   UNL     1       8.410  21.363  53.720  1.00  0.00     0.008 C 
HETATM   13  C   UNL     1       9.758  20.632  53.646  1.00  0.00     0.020 C 
HETATM   14  C   UNL     1       7.412  20.674  52.787  1.00  0.00     0.020 C 
HETATM   15  C   UNL     1       7.818  21.541  55.124  1.00  0.00     0.137 C 
HETATM   16  C   UNL     1       8.672  22.827  55.295  1.00  0.00     0.049 C 
HETATM   17  O   UNL     1       8.065  20.751  56.286  1.00  0.00    -0.385 OA
HETATM   18  C   UNL     1       8.084  23.089  56.679  1.00  0.00     0.035 C 
HETATM   19  C   UNL     1       8.231  21.701  57.367  1.00  0.00     0.168 C 
ENDBRANCH   8  11
ENDBRANCH   7   8
ENDBRANCH   1   7
BRANCH   2  20
HETATM   20  C   UNL     1       6.218  27.503  55.702  1.00  0.00    -0.002 A 
HETATM   21  C   UNL     1       5.957  28.833  56.055  1.00  0.00     0.053 A 
HETATM   22  C   UNL     1       6.689  29.440  57.076  1.00  0.00     0.103 A 
HETATM   23  C   UNL     1       7.686  28.728  57.750  1.00  0.00     0.102 A 
HETATM   24  O   UNL     1       6.383  30.748  57.352  1.00  0.00    -0.346 OA
HETATM   25  O   UNL     1       8.462  29.274  58.736  1.00  0.00    -0.346 OA
HETATM   26  C   UNL     1       7.919  27.392  57.435  1.00  0.00     0.040 A 
HETATM   27  C   UNL     1       8.363  30.703  58.764  1.00  0.00     0.202 C 
HETATM   28  C   UNL     1       6.916  31.146  58.624  1.00  0.00     0.202 C 
HETATM   29  C   UNL     1       7.188  26.781  56.413  1.00  0.00     0.017 A 
ENDBRANCH   2  20
TORSDOF 4
ENDMDL
MODEL 7
REMARK VINA RESULT:      -7.8      5.805      9.247
REMARK  4 active torsions:
REMARK  status: ('A' for Active; 'I' for Inactive)
REMARK    1  A    between atoms: C_9  and  N_10 
REMARK    2  A    between atoms: N_10  and  C_12 
REMARK    3  A    between atoms: C_12  and  C_13 
REMARK    4  A    between atoms: C_14  and  C_15 
ROOT
HETATM    1  C   UNL     1       7.855  31.393  60.867  1.00  0.00     0.016 A 
HETATM    2  C   UNL     1       7.851  31.471  62.298  1.00  0.00     0.096 A 
HETATM    3  N   UNL     1       8.704  30.587  62.827  1.00  0.00    -0.174 NA
HETATM    4  N   UNL     1       9.250  29.956  61.786  1.00  0.00    -0.288 N 
HETATM    5  H   UNL     1       9.947  29.238  61.970  1.00  0.00     0.188 HD
HETATM    6  C   UNL     1       8.789  30.412  60.582  1.00  0.00     0.120 A 
ENDROOT
BRANCH   1   7
HETATM    7  C   UNL     1       7.091  32.266  59.933  1.00  0.00     0.277 C 
BRANCH   7   8
HETATM    8  N   UNL     1       5.826  31.646  59.368  1.00  0.00    -0.065 N 
HETATM    9  H   UNL     1       5.651  30.770  59.872  1.00  0.00     0.280 HD
HETATM   10  C   UNL     1       4.644  32.571  59.538  1.00  0.00     0.270 C 
BRANCH   8  11
HETATM   11  C   UNL     1       6.014  31.428  57.891  1.00  0.00     0.205 C 
HETATM   12  C   UNL     1       4.805  30.721  57.086  1.00  0.00     0.008 C 
HETATM   13  C   UNL     1       4.767  31.052  55.587  1.00  0.00     0.020 C 
HETATM   14  C   UNL     1       3.383  30.757  57.646  1.00  0.00     0.020 C 
HETATM   15  C   UNL     1       5.514  29.415  57.467  1.00  0.00     0.137 C 
HETATM   16  C   UNL     1       6.867  30.176  57.469  1.00  0.00     0.049 C 
HETATM   17  O   UNL     1       5.718  28.259  56.656  1.00  0.00    -0.385 OA
HETATM   18  C   UNL     1       7.626  28.923  57.897  1.00  0.00     0.035 C 
HETATM   19  C   UNL     1       7.088  27.857  56.900  1.00  0.00     0.168 C 
ENDBRANCH   8  11
ENDBRANCH   7   8
ENDBRANCH   1   7
BRANCH   2  20
HETATM   20  C   UNL     1       7.111  32.391  63.157  1.00  0.00    -0.002 A 
HETATM   21  C   UNL     1       5.731  32.574  63.000  1.00  0.00     0.053 A 
HETATM   22  C   UNL     1       5.055  33.500  63.795  1.00  0.00     0.103 A 
HETATM   23  C   UNL     1       5.749  34.251  64.749  1.00  0.00     0.102 A 
HETATM   24  O   UNL     1       3.709  33.630  63.570  1.00  0.00    -0.346 OA
HETATM   25  O   UNL     1       5.153  35.199  65.536  1.00  0.00    -0.346 OA
HETATM   26  C   UNL     1       7.112  34.042  64.942  1.00  0.00     0.040 A 
HETATM   27  C   UNL     1       3.852  35.553  65.053  1.00  0.00     0.202 C 
HETATM   28  C   UNL     1       3.067  34.313  64.658  1.00  0.00     0.202 C 
HETATM   29  C   UNL     1       7.792  33.115  64.147  1.00  0.00     0.017 A 
ENDBRANCH   2  20
TORSDOF 4
ENDMDL
MODEL 8
REMARK VINA RESULT:      -7.8      1.790      5.792
REMARK  4 active torsions:
REMARK  status: ('A' for Active; 'I' for Inactive)
REMARK    1  A    between atoms: C_9  and  N_10 
REMARK    2  A    between atoms: N_10  and  C_12 
REMARK    3  A    between atoms: C_12  and  C_13 
REMARK    4  A    between atoms: C_14  and  C_15 
ROOT
HETATM    1  C   UNL     1       5.219  27.661  51.427  1.00  0.00     0.016 A 
HETATM    2  C   UNL     1       5.380  26.239  51.475  1.00  0.00     0.096 A 
HETATM    3  N   UNL     1       4.656  25.643  50.522  1.00  0.00    -0.174 NA
HETATM    4  N   UNL     1       4.045  26.636  49.871  1.00  0.00    -0.288 N 
HETATM    5  H   UNL     1       3.441  26.397  49.087  1.00  0.00     0.188 HD
HETATM    6  C   UNL     1       4.360  27.871  50.362  1.00  0.00     0.120 A 
ENDROOT
BRANCH   1   7
HETATM    7  C   UNL     1       5.920  28.659  52.283  1.00  0.00     0.277 C 
BRANCH   7   8
HETATM    8  N   UNL     1       5.091  29.222  53.422  1.00  0.00    -0.065 N 
HETATM    9  H   UNL     1       5.302  30.223  53.502  1.00  0.00     0.280 HD
HETATM   10  C   UNL     1       3.615  29.037  53.164  1.00  0.00     0.270 C 
BRANCH   8  11
HETATM   11  C   UNL     1       5.424  28.465  54.680  1.00  0.00     0.205 C 
HETATM   12  C   UNL     1       5.314  29.266  56.078  1.00  0.00     0.008 C 
HETATM   13  C   UNL     1       5.070  28.370  57.301  1.00  0.00     0.020 C 
HETATM   14  C   UNL     1       4.435  30.513  56.184  1.00  0.00     0.020 C 
HETATM   15  C   UNL     1       6.775  29.645  55.804  1.00  0.00     0.137 C 
HETATM   16  C   UNL     1       6.950  28.314  55.025  1.00  0.00     0.049 C 
HETATM   17  O   UNL     1       7.857  29.699  56.734  1.00  0.00    -0.385 OA
HETATM   18  C   UNL     1       8.397  28.654  54.675  1.00  0.00     0.035 C 
HETATM   19  C   UNL     1       8.977  29.080  56.054  1.00  0.00     0.168 C 
ENDBRANCH   8  11
ENDBRANCH   7   8
ENDBRANCH   1   7
BRANCH   2  20
HETATM   20  C   UNL     1       6.240  25.450  52.352  1.00  0.00    -0.002 A 
HETATM   21  C   UNL     1       5.907  25.246  53.697  1.00  0.00     0.053 A 
HETATM   22  C   UNL     1       6.772  24.535  54.531  1.00  0.00     0.103 A 
HETATM   23  C   UNL     1       7.974  24.026  54.031  1.00  0.00     0.102 A 
HETATM   24  O   UNL     1       6.380  24.392  55.837  1.00  0.00    -0.346 OA
HETATM   25  O   UNL     1       8.881  23.350  54.802  1.00  0.00    -0.346 OA
HETATM   26  C   UNL     1       8.290  24.185  52.684  1.00  0.00     0.040 A 
HETATM   27  C   UNL     1       8.619  23.513  56.200  1.00  0.00     0.202 C 
HETATM   28  C   UNL     1       7.135  23.361  56.493  1.00  0.00     0.202 C 
HETATM   29  C   UNL     1       7.426  24.896  51.847  1.00  0.00     0.017 A 
ENDBRANCH   2  20
TORSDOF 4
ENDMDL
MODEL 9
REMARK VINA RESULT:      -7.8      2.865      7.651
REMARK  4 active torsions:
REMARK  status: ('A' for Active; 'I' for Inactive)
REMARK    1  A    between atoms: C_9  and  N_10 
REMARK    2  A    between atoms: N_10  and  C_12 
REMARK    3  A    between atoms: C_12  and  C_13 
REMARK    4  A    between atoms: C_14  and  C_15 
ROOT
HETATM    1  C   UNL     1       6.043  27.242  54.438  1.00  0.00     0.016 A 
HETATM    2  C   UNL     1       7.067  26.369  54.929  1.00  0.00     0.096 A 
HETATM    3  N   UNL     1       7.770  26.957  55.903  1.00  0.00    -0.174 NA
HETATM    4  N   UNL     1       7.227  28.167  56.049  1.00  0.00    -0.288 N 
HETATM    5  H   UNL     1       7.615  28.786  56.758  1.00  0.00     0.188 HD
HETATM    6  C   UNL     1       6.175  28.387  55.205  1.00  0.00     0.120 A 
ENDROOT
BRANCH   1   7
HETATM    7  C   UNL     1       5.020  26.912  53.406  1.00  0.00     0.277 C 
BRANCH   7   8
HETATM    8  N   UNL     1       5.301  27.470  52.023  1.00  0.00    -0.065 N 
HETATM    9  H   UNL     1       6.117  28.089  52.092  1.00  0.00     0.280 HD
HETATM   10  C   UNL     1       5.591  26.362  51.038  1.00  0.00     0.270 C 
BRANCH   8  11
HETATM   11  C   UNL     1       4.075  28.193  51.537  1.00  0.00     0.205 C 
HETATM   12  C   UNL     1       4.295  29.421  50.511  1.00  0.00     0.008 C 
HETATM   13  C   UNL     1       3.087  29.717  49.611  1.00  0.00     0.020 C 
HETATM   14  C   UNL     1       5.576  29.509  49.679  1.00  0.00     0.020 C 
HETATM   15  C   UNL     1       4.408  30.269  51.785  1.00  0.00     0.137 C 
HETATM   16  C   UNL     1       3.463  29.270  52.505  1.00  0.00     0.049 C 
HETATM   17  O   UNL     1       3.862  31.565  52.026  1.00  0.00    -0.385 OA
HETATM   18  C   UNL     1       3.572  30.040  53.819  1.00  0.00     0.035 C 
HETATM   19  C   UNL     1       3.307  31.504  53.363  1.00  0.00     0.168 C 
ENDBRANCH   8  11
ENDBRANCH   7   8
ENDBRANCH   1   7
BRANCH   2  20
HETATM   20  C   UNL     1       7.349  24.990  54.542  1.00  0.00    -0.002 A 
HETATM   21  C   UNL     1       7.384  23.965  55.495  1.00  0.00     0.053 A 
HETATM   22  C   UNL     1       7.711  22.664  55.110  1.00  0.00     0.103 A 
HETATM   23  C   UNL     1       8.007  22.376  53.774  1.00  0.00     0.102 A 
HETATM   24  O   UNL     1       7.738  21.721  56.105  1.00  0.00    -0.346 OA
HETATM   25  O   UNL     1       8.368  21.131  53.337  1.00  0.00    -0.346 OA
HETATM   26  C   UNL     1       7.929  23.381  52.814  1.00  0.00     0.040 A 
HETATM   27  C   UNL     1       8.718  20.265  54.422  1.00  0.00     0.202 C 
HETATM   28  C   UNL     1       7.718  20.393  55.560  1.00  0.00     0.202 C 
HETATM   29  C   UNL     1       7.602  24.685  53.196  1.00  0.00     0.017 A 
ENDBRANCH   2  20
TORSDOF 4
ENDMDL
MODEL 10
REMARK VINA RESULT:      -7.8      1.817      2.901
REMARK  4 active torsions:
REMARK  status: ('A' for Active; 'I' for Inactive)
REMARK    1  A    between atoms: C_9  and  N_10 
REMARK    2  A    between atoms: N_10  and  C_12 
REMARK    3  A    between atoms: C_12  and  C_13 
REMARK    4  A    between atoms: C_14  and  C_15 
ROOT
HETATM    1  C   UNL     1       5.153  27.782  55.546  1.00  0.00     0.016 A 
HETATM    2  C   UNL     1       5.801  29.055  55.649  1.00  0.00     0.096 A 
HETATM    3  N   UNL     1       5.346  29.900  54.718  1.00  0.00    -0.174 NA
HETATM    4  N   UNL     1       4.432  29.211  54.033  1.00  0.00    -0.288 N 
HETATM    5  H   UNL     1       3.947  29.681  53.271  1.00  0.00     0.188 HD
HETATM    6  C   UNL     1       4.263  27.937  54.497  1.00  0.00     0.120 A 
ENDROOT
BRANCH   1   7
HETATM    7  C   UNL     1       5.347  26.615  56.452  1.00  0.00     0.277 C 
BRANCH   7   8
HETATM    8  N   UNL     1       6.697  25.932  56.338  1.00  0.00    -0.065 N 
HETATM    9  H   UNL     1       7.326  26.561  55.828  1.00  0.00     0.280 HD
HETATM   10  C   UNL     1       7.275  25.638  57.702  1.00  0.00     0.270 C 
BRANCH   8  11
HETATM   11  C   UNL     1       6.513  24.614  55.636  1.00  0.00     0.205 C 
HETATM   12  C   UNL     1       7.831  23.713  55.394  1.00  0.00     0.008 C 
HETATM   13  C   UNL     1       7.551  22.210  55.249  1.00  0.00     0.020 C 
HETATM   14  C   UNL     1       9.071  23.911  56.267  1.00  0.00     0.020 C 
HETATM   15  C   UNL     1       7.948  24.504  54.084  1.00  0.00     0.137 C 
HETATM   16  C   UNL     1       6.404  24.662  54.068  1.00  0.00     0.049 C 
HETATM   17  O   UNL     1       8.303  24.013  52.792  1.00  0.00    -0.385 OA
HETATM   18  C   UNL     1       6.455  25.498  52.792  1.00  0.00     0.035 C 
HETATM   19  C   UNL     1       7.374  24.641  51.875  1.00  0.00     0.168 C 
ENDBRANCH   8  11
ENDBRANCH   7   8
ENDBRANCH   1   7
BRANCH   2  20
HETATM   20  C   UNL     1       6.784  29.498  56.634  1.00  0.00    -0.002 A 
HETATM   21  C   UNL     1       6.406  30.290  57.725  1.00  0.00     0.053 A 
HETATM   22  C   UNL     1       7.372  30.748  58.623  1.00  0.00     0.103 A 
HETATM   23  C   UNL     1       8.718  30.422  58.438  1.00  0.00     0.102 A 
HETATM   24  O   UNL     1       6.923  31.531  59.655  1.00  0.00    -0.346 OA
HETATM   25  O   UNL     1       9.718  30.866  59.261  1.00  0.00    -0.346 OA
HETATM   26  C   UNL     1       9.095  29.597  57.382  1.00  0.00     0.040 A 
HETATM   27  C   UNL     1       9.278  31.937  60.105  1.00  0.00     0.202 C 
HETATM   28  C   UNL     1       7.910  31.633  60.693  1.00  0.00     0.202 C 
HETATM   29  C   UNL     1       8.131  29.137  56.481  1.00  0.00     0.017 A 
ENDBRANCH   2  20
TORSDOF 4
ENDMDL
