MODEL 1
REMARK VINA RESULT:     -10.6      0.000      0.000
REMARK  2 active torsions:
REMARK  status: ('A' for Active; 'I' for Inactive)
REMARK    1  A    between atoms: O_1  and  C_2 
REMARK    2  A    between atoms: C_24  and  C_25 
ROOT
HETATM    1  C   UNL     1       6.087  30.230  56.963  1.00  0.00     0.066 A 
HETATM    2  C   UNL     1       7.021  30.107  57.983  1.00  0.00     0.039 A 
HETATM    3  C   UNL     1       7.770  28.935  58.114  1.00  0.00     0.033 A 
HETATM    4  C   UNL     1       7.546  27.903  57.191  1.00  0.00     0.044 A 
HETATM    5  N   UNL     1       8.157  26.656  57.109  1.00  0.00    -0.353 N 
HETATM    6  H   UNL     1       8.872  26.331  57.742  1.00  0.00     0.166 HD
HETATM    7  C   UNL     1       7.641  25.962  56.058  1.00  0.00     0.073 A 
HETATM    8  C   UNL     1       7.903  24.707  55.561  1.00  0.00     0.072 A 
HETATM    9  N   UNL     1       8.762  23.717  55.938  1.00  0.00    -0.353 N 
HETATM   10  H   UNL     1       9.404  23.751  56.716  1.00  0.00     0.166 HD
HETATM   11  C   UNL     1       8.625  22.628  55.078  1.00  0.00     0.043 A 
HETATM   12  C   UNL     1       9.302  21.400  55.088  1.00  0.00     0.030 A 
HETATM   13  C   UNL     1       8.972  20.467  54.101  1.00  0.00     0.002 A 
HETATM   14  C   UNL     1       8.004  20.747  53.140  1.00  0.00     0.001 A 
HETATM   15  C   UNL     1       7.331  21.976  53.135  1.00  0.00     0.014 A 
HETATM   16  C   UNL     1       7.641  22.937  54.116  1.00  0.00     0.004 A 
HETATM   17  C   UNL     1       7.248  24.221  54.478  1.00  0.00     0.014 A 
HETATM   18  C   UNL     1       6.274  25.027  53.849  1.00  0.00    -0.010 A 
HETATM   19  C   UNL     1       5.446  24.717  52.676  1.00  0.00     0.163 A 
HETATM   20  N   UNL     1       4.693  25.948  52.577  1.00  0.00    -0.353 N 
HETATM   21  C   UNL     1       4.972  26.921  53.531  1.00  0.00     0.253 A 
HETATM   22  O   UNL     1       4.385  27.995  53.528  1.00  0.00    -0.268 OA
HETATM   23  C   UNL     1       5.993  26.331  54.353  1.00  0.00     0.054 A 
HETATM   24  C   UNL     1       6.714  26.783  55.492  1.00  0.00     0.022 A 
HETATM   25  C   UNL     1       6.601  28.009  56.146  1.00  0.00     0.007 A 
HETATM   26  C   UNL     1       5.863  29.204  56.042  1.00  0.00     0.051 A 
HETATM   27  H   UNL     1       3.993  26.135  51.875  1.00  0.00     0.163 HD
ENDROOT
BRANCH   1  28
HETATM   28  O   UNL     1       5.348  31.371  56.824  1.00  0.00    -0.361 OA
HETATM   29  H   UNL     1       5.281  31.587  55.879  1.00  0.00     0.217 HD
ENDBRANCH   1  28
TORSDOF 2
ENDMDL
MODEL 2
REMARK VINA RESULT:     -10.5      2.806      7.085
REMARK  2 active torsions:
REMARK  status: ('A' for Active; 'I' for Inactive)
REMARK    1  A    between atoms: O_1  and  C_2 
REMARK    2  A    between atoms: C_24  and  C_25 
ROOT
HETATM    1  C   UNL     1       9.144  20.827  55.202  1.00  0.00     0.066 A 
HETATM    2  C   UNL     1       8.728  20.375  53.957  1.00  0.00     0.039 A 
HETATM    3  C   UNL     1       7.904  21.172  53.157  1.00  0.00     0.033 A 
HETATM    4  C   UNL     1       7.519  22.426  53.654  1.00  0.00     0.044 A 
HETATM    5  N   UNL     1       6.715  23.392  53.057  1.00  0.00    -0.353 N 
HETATM    6  H   UNL     1       6.291  23.296  52.147  1.00  0.00     0.166 HD
HETATM    7  C   UNL     1       6.596  24.464  53.888  1.00  0.00     0.073 A 
HETATM    8  C   UNL     1       5.923  25.657  53.767  1.00  0.00     0.072 A 
HETATM    9  N   UNL     1       5.140  26.189  52.784  1.00  0.00    -0.353 N 
HETATM   10  H   UNL     1       4.908  25.750  51.905  1.00  0.00     0.166 HD
HETATM   11  C   UNL     1       4.695  27.452  53.174  1.00  0.00     0.043 A 
HETATM   12  C   UNL     1       3.875  28.354  52.484  1.00  0.00     0.030 A 
HETATM   13  C   UNL     1       3.575  29.569  53.106  1.00  0.00     0.002 A 
HETATM   14  C   UNL     1       4.076  29.873  54.369  1.00  0.00     0.001 A 
HETATM   15  C   UNL     1       4.896  28.967  55.054  1.00  0.00     0.014 A 
HETATM   16  C   UNL     1       5.216  27.734  54.454  1.00  0.00     0.004 A 
HETATM   17  C   UNL     1       5.953  26.593  54.748  1.00  0.00     0.014 A 
HETATM   18  C   UNL     1       6.695  26.331  55.919  1.00  0.00    -0.010 A 
HETATM   19  C   UNL     1       6.873  27.184  57.101  1.00  0.00     0.163 A 
HETATM   20  N   UNL     1       7.725  26.326  57.896  1.00  0.00    -0.353 N 
HETATM   21  C   UNL     1       8.061  25.099  57.334  1.00  0.00     0.253 A 
HETATM   22  O   UNL     1       8.778  24.307  57.932  1.00  0.00    -0.268 OA
HETATM   23  C   UNL     1       7.399  25.098  56.058  1.00  0.00     0.054 A 
HETATM   24  C   UNL     1       7.328  24.158  54.994  1.00  0.00     0.022 A 
HETATM   25  C   UNL     1       7.931  22.903  54.917  1.00  0.00     0.007 A 
HETATM   26  C   UNL     1       8.761  22.075  55.698  1.00  0.00     0.051 A 
HETATM   27  H   UNL     1       8.079  26.561  58.811  1.00  0.00     0.163 HD
ENDROOT
BRANCH   1  28
HETATM   28  O   UNL     1       9.949  20.057  55.993  1.00  0.00    -0.361 OA
HETATM   29  H   UNL     1      10.773  20.541  56.164  1.00  0.00     0.217 HD
ENDBRANCH   1  28
TORSDOF 2
ENDMDL
MODEL 3
REMARK VINA RESULT:     -10.3      1.937      6.500
REMARK  2 active torsions:
REMARK  status: ('A' for Active; 'I' for Inactive)
REMARK    1  A    between atoms: O_1  and  C_2 
REMARK    2  A    between atoms: C_24  and  C_25 
ROOT
HETATM    1  C   UNL     1       7.936  21.264  53.425  1.00  0.00     0.066 A 
HETATM    2  C   UNL     1       8.973  21.012  54.313  1.00  0.00     0.039 A 
HETATM    3  C   UNL     1       9.329  21.967  55.269  1.00  0.00     0.033 A 
HETATM    4  C   UNL     1       8.611  23.170  55.298  1.00  0.00     0.044 A 
HETATM    5  N   UNL     1       8.770  24.264  56.144  1.00  0.00    -0.353 N 
HETATM    6  H   UNL     1       9.461  24.320  56.875  1.00  0.00     0.166 HD
HETATM    7  C   UNL     1       7.859  25.224  55.826  1.00  0.00     0.073 A 
HETATM    8  C   UNL     1       7.607  26.469  56.352  1.00  0.00     0.072 A 
HETATM    9  N   UNL     1       8.172  27.182  57.369  1.00  0.00    -0.353 N 
HETATM   10  H   UNL     1       8.938  26.881  57.952  1.00  0.00     0.166 HD
HETATM   11  C   UNL     1       7.527  28.413  57.490  1.00  0.00     0.043 A 
HETATM   12  C   UNL     1       7.774  29.457  58.392  1.00  0.00     0.030 A 
HETATM   13  C   UNL     1       6.973  30.599  58.301  1.00  0.00     0.002 A 
HETATM   14  C   UNL     1       5.965  30.696  57.346  1.00  0.00     0.001 A 
HETATM   15  C   UNL     1       5.723  29.649  56.447  1.00  0.00     0.014 A 
HETATM   16  C   UNL     1       6.513  28.485  56.513  1.00  0.00     0.004 A 
HETATM   17  C   UNL     1       6.624  27.263  55.859  1.00  0.00     0.014 A 
HETATM   18  C   UNL     1       5.844  26.796  54.780  1.00  0.00    -0.010 A 
HETATM   19  C   UNL     1       4.739  27.470  54.088  1.00  0.00     0.163 A 
HETATM   20  N   UNL     1       4.404  26.455  53.114  1.00  0.00    -0.353 N 
HETATM   21  C   UNL     1       5.163  25.291  53.150  1.00  0.00     0.253 A 
HETATM   22  O   UNL     1       4.953  24.375  52.365  1.00  0.00    -0.268 OA
HETATM   23  C   UNL     1       6.094  25.506  54.225  1.00  0.00     0.054 A 
HETATM   24  C   UNL     1       7.138  24.721  54.785  1.00  0.00     0.022 A 
HETATM   25  C   UNL     1       7.552  23.446  54.403  1.00  0.00     0.007 A 
HETATM   26  C   UNL     1       7.219  22.463  53.452  1.00  0.00     0.051 A 
HETATM   27  H   UNL     1       3.670  26.541  52.427  1.00  0.00     0.163 HD
ENDROOT
BRANCH   1  28
HETATM   28  O   UNL     1       7.578  20.339  52.485  1.00  0.00    -0.361 OA
HETATM   29  H   UNL     1       7.425  19.488  52.927  1.00  0.00     0.217 HD
ENDBRANCH   1  28
TORSDOF 2
ENDMDL
MODEL 4
REMARK VINA RESULT:     -10.2      1.938      4.006
REMARK  2 active torsions:
REMARK  status: ('A' for Active; 'I' for Inactive)
REMARK    1  A    between atoms: O_1  and  C_2 
REMARK    2  A    between atoms: C_24  and  C_25 
ROOT
HETATM    1  C   UNL     1       5.020  29.353  51.982  1.00  0.00     0.066 A 
HETATM    2  C   UNL     1       5.004  28.848  50.688  1.00  0.00     0.039 A 
HETATM    3  C   UNL     1       5.431  27.541  50.437  1.00  0.00     0.033 A 
HETATM    4  C   UNL     1       5.871  26.772  51.524  1.00  0.00     0.044 A 
HETATM    5  N   UNL     1       6.339  25.461  51.535  1.00  0.00    -0.353 N 
HETATM    6  H   UNL     1       6.422  24.881  50.715  1.00  0.00     0.166 HD
HETATM    7  C   UNL     1       6.661  25.102  52.808  1.00  0.00     0.073 A 
HETATM    8  C   UNL     1       7.157  23.935  53.341  1.00  0.00     0.072 A 
HETATM    9  N   UNL     1       7.502  22.734  52.794  1.00  0.00    -0.353 N 
HETATM   10  H   UNL     1       7.442  22.486  51.817  1.00  0.00     0.166 HD
HETATM   11  C   UNL     1       7.958  21.879  53.796  1.00  0.00     0.043 A 
HETATM   12  C   UNL     1       8.414  20.557  53.693  1.00  0.00     0.030 A 
HETATM   13  C   UNL     1       8.820  19.915  54.866  1.00  0.00     0.002 A 
HETATM   14  C   UNL     1       8.774  20.567  56.096  1.00  0.00     0.001 A 
HETATM   15  C   UNL     1       8.318  21.888  56.193  1.00  0.00     0.014 A 
HETATM   16  C   UNL     1       7.902  22.562  55.028  1.00  0.00     0.004 A 
HETATM   17  C   UNL     1       7.403  23.809  54.669  1.00  0.00     0.014 A 
HETATM   18  C   UNL     1       7.143  24.905  55.519  1.00  0.00    -0.010 A 
HETATM   19  C   UNL     1       7.329  25.001  56.973  1.00  0.00     0.163 A 
HETATM   20  N   UNL     1       6.878  26.359  57.187  1.00  0.00    -0.353 N 
HETATM   21  C   UNL     1       6.458  27.055  56.059  1.00  0.00     0.253 A 
HETATM   22  O   UNL     1       6.060  28.210  56.142  1.00  0.00    -0.268 OA
HETATM   23  C   UNL     1       6.627  26.121  54.980  1.00  0.00     0.054 A 
HETATM   24  C   UNL     1       6.390  26.190  53.580  1.00  0.00     0.022 A 
HETATM   25  C   UNL     1       5.895  27.268  52.847  1.00  0.00     0.007 A 
HETATM   26  C   UNL     1       5.458  28.588  53.066  1.00  0.00     0.051 A 
HETATM   27  H   UNL     1       6.851  26.817  58.086  1.00  0.00     0.163 HD
ENDROOT
BRANCH   1  28
HETATM   28  O   UNL     1       4.605  30.629  52.240  1.00  0.00    -0.361 OA
HETATM   29  H   UNL     1       5.127  31.243  51.699  1.00  0.00     0.217 HD
ENDBRANCH   1  28
TORSDOF 2
ENDMDL
MODEL 5
REMARK VINA RESULT:     -10.1      2.992      6.687
REMARK  2 active torsions:
REMARK  status: ('A' for Active; 'I' for Inactive)
REMARK    1  A    between atoms: O_1  and  C_2 
REMARK    2  A    between atoms: C_24  and  C_25 
ROOT
HETATM    1  C   UNL     1       8.283  21.582  55.893  1.00  0.00     0.066 A 
HETATM    2  C   UNL     1       8.794  21.011  54.735  1.00  0.00     0.039 A 
HETATM    3  C   UNL     1       8.571  21.614  53.495  1.00  0.00     0.033 A 
HETATM    4  C   UNL     1       7.822  22.799  53.464  1.00  0.00     0.044 A 
HETATM    5  N   UNL     1       7.467  23.581  52.369  1.00  0.00    -0.353 N 
HETATM    6  H   UNL     1       7.722  23.372  51.416  1.00  0.00     0.166 HD
HETATM    7  C   UNL     1       6.734  24.649  52.788  1.00  0.00     0.073 A 
HETATM    8  C   UNL     1       6.157  25.696  52.109  1.00  0.00     0.072 A 
HETATM    9  N   UNL     1       6.110  26.038  50.789  1.00  0.00    -0.353 N 
HETATM   10  H   UNL     1       6.531  25.528  50.028  1.00  0.00     0.166 HD
HETATM   11  C   UNL     1       5.381  27.217  50.639  1.00  0.00     0.043 A 
HETATM   12  C   UNL     1       5.079  27.929  49.470  1.00  0.00     0.030 A 
HETATM   13  C   UNL     1       4.322  29.097  49.595  1.00  0.00     0.002 A 
HETATM   14  C   UNL     1       3.882  29.539  50.840  1.00  0.00     0.001 A 
HETATM   15  C   UNL     1       4.186  28.823  52.006  1.00  0.00     0.014 A 
HETATM   16  C   UNL     1       4.948  27.642  51.912  1.00  0.00     0.004 A 
HETATM   17  C   UNL     1       5.460  26.663  52.756  1.00  0.00     0.014 A 
HETATM   18  C   UNL     1       5.327  26.588  54.160  1.00  0.00    -0.010 A 
HETATM   19  C   UNL     1       4.627  27.508  55.064  1.00  0.00     0.163 A 
HETATM   20  N   UNL     1       4.882  26.850  56.327  1.00  0.00    -0.353 N 
HETATM   21  C   UNL     1       5.632  25.680  56.273  1.00  0.00     0.253 A 
HETATM   22  O   UNL     1       5.899  25.054  57.290  1.00  0.00    -0.268 OA
HETATM   23  C   UNL     1       5.922  25.507  54.876  1.00  0.00     0.054 A 
HETATM   24  C   UNL     1       6.639  24.525  54.141  1.00  0.00     0.022 A 
HETATM   25  C   UNL     1       7.293  23.395  54.630  1.00  0.00     0.007 A 
HETATM   26  C   UNL     1       7.537  22.762  55.865  1.00  0.00     0.051 A 
HETATM   27  H   UNL     1       4.555  27.183  57.222  1.00  0.00     0.163 HD
ENDROOT
BRANCH   1  28
HETATM   28  O   UNL     1       8.495  21.002  57.112  1.00  0.00    -0.361 OA
HETATM   29  H   UNL     1       7.688  21.092  57.645  1.00  0.00     0.217 HD
ENDBRANCH   1  28
TORSDOF 2
ENDMDL
MODEL 6
REMARK VINA RESULT:     -10.1      1.646      3.575
REMARK  2 active torsions:
REMARK  status: ('A' for Active; 'I' for Inactive)
REMARK    1  A    between atoms: O_1  and  C_2 
REMARK    2  A    between atoms: C_24  and  C_25 
ROOT
HETATM    1  C   UNL     1       4.303  29.627  54.438  1.00  0.00     0.066 A 
HETATM    2  C   UNL     1       3.860  29.405  53.141  1.00  0.00     0.039 A 
HETATM    3  C   UNL     1       4.175  28.213  52.483  1.00  0.00     0.033 A 
HETATM    4  C   UNL     1       4.945  27.264  53.173  1.00  0.00     0.044 A 
HETATM    5  N   UNL     1       5.384  26.016  52.743  1.00  0.00    -0.353 N 
HETATM    6  H   UNL     1       5.190  25.628  51.832  1.00  0.00     0.166 HD
HETATM    7  C   UNL     1       6.106  25.420  53.732  1.00  0.00     0.073 A 
HETATM    8  C   UNL     1       6.744  24.204  53.805  1.00  0.00     0.072 A 
HETATM    9  N   UNL     1       6.884  23.171  52.925  1.00  0.00    -0.353 N 
HETATM   10  H   UNL     1       6.506  23.131  51.990  1.00  0.00     0.166 HD
HETATM   11  C   UNL     1       7.641  22.158  53.512  1.00  0.00     0.043 A 
HETATM   12  C   UNL     1       8.032  20.922  52.979  1.00  0.00     0.030 A 
HETATM   13  C   UNL     1       8.798  20.077  53.786  1.00  0.00     0.002 A 
HETATM   14  C   UNL     1       9.162  20.451  55.077  1.00  0.00     0.001 A 
HETATM   15  C   UNL     1       8.769  21.688  55.605  1.00  0.00     0.014 A 
HETATM   16  C   UNL     1       7.995  22.561  54.816  1.00  0.00     0.004 A 
HETATM   17  C   UNL     1       7.412  23.819  54.920  1.00  0.00     0.014 A 
HETATM   18  C   UNL     1       7.450  24.691  56.030  1.00  0.00    -0.010 A 
HETATM   19  C   UNL     1       8.104  24.492  57.329  1.00  0.00     0.163 A 
HETATM   20  N   UNL     1       7.755  25.740  57.972  1.00  0.00    -0.353 N 
HETATM   21  C   UNL     1       6.991  26.628  57.222  1.00  0.00     0.253 A 
HETATM   22  O   UNL     1       6.647  27.709  57.682  1.00  0.00    -0.268 OA
HETATM   23  C   UNL     1       6.792  25.954  55.968  1.00  0.00     0.054 A 
HETATM   24  C   UNL     1       6.108  26.300  54.771  1.00  0.00     0.022 A 
HETATM   25  C   UNL     1       5.404  27.471  54.492  1.00  0.00     0.007 A 
HETATM   26  C   UNL     1       5.069  28.683  55.127  1.00  0.00     0.051 A 
HETATM   27  H   UNL     1       8.027  25.996  58.909  1.00  0.00     0.163 HD
ENDROOT
BRANCH   1  28
HETATM   28  O   UNL     1       4.001  30.788  55.092  1.00  0.00    -0.361 OA
HETATM   29  H   UNL     1       3.215  30.641  55.643  1.00  0.00     0.217 HD
ENDBRANCH   1  28
TORSDOF 2
ENDMDL
MODEL 7
REMARK VINA RESULT:      -9.8      2.419      4.577
REMARK  2 active torsions:
REMARK  status: ('A' for Active; 'I' for Inactive)
REMARK    1  A    between atoms: O_1  and  C_2 
REMARK    2  A    between atoms: C_24  and  C_25 
ROOT
HETATM    1  C   UNL     1       3.723  29.351  50.497  1.00  0.00     0.066 A 
HETATM    2  C   UNL     1       4.184  28.855  49.285  1.00  0.00     0.039 A 
HETATM    3  C   UNL     1       4.999  27.721  49.252  1.00  0.00     0.033 A 
HETATM    4  C   UNL     1       5.330  27.112  50.471  1.00  0.00     0.044 A 
HETATM    5  N   UNL     1       6.116  25.987  50.702  1.00  0.00    -0.353 N 
HETATM    6  H   UNL     1       6.565  25.449  49.976  1.00  0.00     0.166 HD
HETATM    7  C   UNL     1       6.178  25.739  52.039  1.00  0.00     0.073 A 
HETATM    8  C   UNL     1       6.814  24.763  52.769  1.00  0.00     0.072 A 
HETATM    9  N   UNL     1       7.602  23.705  52.421  1.00  0.00    -0.353 N 
HETATM   10  H   UNL     1       7.870  23.445  51.484  1.00  0.00     0.166 HD
HETATM   11  C   UNL     1       7.994  23.018  53.570  1.00  0.00     0.043 A 
HETATM   12  C   UNL     1       8.801  21.878  53.689  1.00  0.00     0.030 A 
HETATM   13  C   UNL     1       9.044  21.383  54.973  1.00  0.00     0.002 A 
HETATM   14  C   UNL     1       8.503  22.002  56.097  1.00  0.00     0.001 A 
HETATM   15  C   UNL     1       7.697  23.141  55.972  1.00  0.00     0.014 A 
HETATM   16  C   UNL     1       7.434  23.664  54.692  1.00  0.00     0.004 A 
HETATM   17  C   UNL     1       6.729  24.718  54.122  1.00  0.00     0.014 A 
HETATM   18  C   UNL     1       5.967  25.700  54.792  1.00  0.00    -0.010 A 
HETATM   19  C   UNL     1       5.733  25.853  56.233  1.00  0.00     0.163 A 
HETATM   20  N   UNL     1       4.891  27.029  56.221  1.00  0.00    -0.353 N 
HETATM   21  C   UNL     1       4.610  27.573  54.972  1.00  0.00     0.253 A 
HETATM   22  O   UNL     1       3.906  28.569  54.862  1.00  0.00    -0.268 OA
HETATM   23  C   UNL     1       5.302  26.718  54.046  1.00  0.00     0.054 A 
HETATM   24  C   UNL     1       5.430  26.711  52.631  1.00  0.00     0.022 A 
HETATM   25  C   UNL     1       4.872  27.602  51.715  1.00  0.00     0.007 A 
HETATM   26  C   UNL     1       4.052  28.746  51.713  1.00  0.00     0.051 A 
HETATM   27  H   UNL     1       4.507  27.466  57.045  1.00  0.00     0.163 HD
ENDROOT
BRANCH   1  28
HETATM   28  O   UNL     1       2.925  30.459  50.543  1.00  0.00    -0.361 OA
HETATM   29  H   UNL     1       3.164  31.047  49.808  1.00  0.00     0.217 HD
ENDBRANCH   1  28
TORSDOF 2
ENDMDL
MODEL 8
REMARK VINA RESULT:      -9.8      2.190      2.708
REMARK  2 active torsions:
REMARK  status: ('A' for Active; 'I' for Inactive)
REMARK    1  A    between atoms: O_1  and  C_2 
REMARK    2  A    between atoms: C_24  and  C_25 
ROOT
HETATM    1  C   UNL     1       3.088  30.875  54.674  1.00  0.00     0.066 A 
HETATM    2  C   UNL     1       3.044  30.757  56.057  1.00  0.00     0.039 A 
HETATM    3  C   UNL     1       3.605  29.643  56.687  1.00  0.00     0.033 A 
HETATM    4  C   UNL     1       4.204  28.663  55.882  1.00  0.00     0.044 A 
HETATM    5  N   UNL     1       4.825  27.478  56.264  1.00  0.00    -0.353 N 
HETATM    6  H   UNL     1       4.920  27.169  57.219  1.00  0.00     0.166 HD
HETATM    7  C   UNL     1       5.272  26.819  55.160  1.00  0.00     0.073 A 
HETATM    8  C   UNL     1       5.939  25.627  55.002  1.00  0.00     0.072 A 
HETATM    9  N   UNL     1       6.386  24.686  55.883  1.00  0.00    -0.353 N 
HETATM   10  H   UNL     1       6.289  24.718  56.887  1.00  0.00     0.166 HD
HETATM   11  C   UNL     1       7.008  23.652  55.184  1.00  0.00     0.043 A 
HETATM   12  C   UNL     1       7.609  22.486  55.678  1.00  0.00     0.030 A 
HETATM   13  C   UNL     1       8.167  21.600  54.753  1.00  0.00     0.002 A 
HETATM   14  C   UNL     1       8.128  21.866  53.387  1.00  0.00     0.001 A 
HETATM   15  C   UNL     1       7.527  23.033  52.899  1.00  0.00     0.014 A 
HETATM   16  C   UNL     1       6.955  23.947  53.806  1.00  0.00     0.004 A 
HETATM   17  C   UNL     1       6.288  25.166  53.775  1.00  0.00     0.014 A 
HETATM   18  C   UNL     1       5.956  25.932  52.637  1.00  0.00    -0.010 A 
HETATM   19  C   UNL     1       6.228  25.639  51.224  1.00  0.00     0.163 A 
HETATM   20  N   UNL     1       5.635  26.808  50.613  1.00  0.00    -0.353 N 
HETATM   21  C   UNL     1       5.060  27.732  51.479  1.00  0.00     0.253 A 
HETATM   22  O   UNL     1       4.534  28.753  51.054  1.00  0.00    -0.268 OA
HETATM   23  C   UNL     1       5.266  27.171  52.786  1.00  0.00     0.054 A 
HETATM   24  C   UNL     1       4.928  27.600  54.098  1.00  0.00     0.022 A 
HETATM   25  C   UNL     1       4.259  28.765  54.474  1.00  0.00     0.007 A 
HETATM   26  C   UNL     1       3.684  29.900  53.871  1.00  0.00     0.051 A 
HETATM   27  H   UNL     1       5.614  26.986  49.620  1.00  0.00     0.163 HD
ENDROOT
BRANCH   1  28
HETATM   28  O   UNL     1       2.543  31.958  54.045  1.00  0.00    -0.361 OA
HETATM   29  H   UNL     1       3.191  32.681  54.050  1.00  0.00     0.217 HD
ENDBRANCH   1  28
TORSDOF 2
ENDMDL
MODEL 9
REMARK VINA RESULT:      -9.2      2.596      4.134
REMARK  2 active torsions:
REMARK  status: ('A' for Active; 'I' for Inactive)
REMARK    1  A    between atoms: O_1  and  C_2 
REMARK    2  A    between atoms: C_24  and  C_25 
ROOT
HETATM    1  C   UNL     1       3.615  31.238  52.442  1.00  0.00     0.066 A 
HETATM    2  C   UNL     1       4.041  31.166  51.123  1.00  0.00     0.039 A 
HETATM    3  C   UNL     1       4.771  30.061  50.677  1.00  0.00     0.033 A 
HETATM    4  C   UNL     1       5.054  29.044  51.601  1.00  0.00     0.044 A 
HETATM    5  N   UNL     1       5.754  27.857  51.406  1.00  0.00    -0.353 N 
HETATM    6  H   UNL     1       6.164  27.577  50.528  1.00  0.00     0.166 HD
HETATM    7  C   UNL     1       5.795  27.154  52.571  1.00  0.00     0.073 A 
HETATM    8  C   UNL     1       6.356  25.943  52.900  1.00  0.00     0.072 A 
HETATM    9  N   UNL     1       7.066  25.021  52.187  1.00  0.00    -0.353 N 
HETATM   10  H   UNL     1       7.316  25.087  51.212  1.00  0.00     0.166 HD
HETATM   11  C   UNL     1       7.404  23.951  53.015  1.00  0.00     0.043 A 
HETATM   12  C   UNL     1       8.124  22.788  52.710  1.00  0.00     0.030 A 
HETATM   13  C   UNL     1       8.327  21.860  53.735  1.00  0.00     0.002 A 
HETATM   14  C   UNL     1       7.830  22.083  55.016  1.00  0.00     0.001 A 
HETATM   15  C   UNL     1       7.111  23.247  55.315  1.00  0.00     0.014 A 
HETATM   16  C   UNL     1       6.889  24.202  54.304  1.00  0.00     0.004 A 
HETATM   17  C   UNL     1       6.265  25.435  54.154  1.00  0.00     0.014 A 
HETATM   18  C   UNL     1       5.576  26.171  55.142  1.00  0.00    -0.010 A 
HETATM   19  C   UNL     1       5.350  25.827  56.551  1.00  0.00     0.163 A 
HETATM   20  N   UNL     1       4.596  26.988  56.969  1.00  0.00    -0.353 N 
HETATM   21  C   UNL     1       4.358  27.953  55.995  1.00  0.00     0.253 A 
HETATM   22  O   UNL     1       3.730  28.970  56.255  1.00  0.00    -0.268 OA
HETATM   23  C   UNL     1       4.988  27.429  54.814  1.00  0.00     0.054 A 
HETATM   24  C   UNL     1       5.119  27.908  53.482  1.00  0.00     0.022 A 
HETATM   25  C   UNL     1       4.630  29.099  52.947  1.00  0.00     0.007 A 
HETATM   26  C   UNL     1       3.896  30.226  53.363  1.00  0.00     0.051 A 
HETATM   27  H   UNL     1       4.243  27.136  57.902  1.00  0.00     0.163 HD
ENDROOT
BRANCH   1  28
HETATM   28  O   UNL     1       2.900  32.313  52.890  1.00  0.00    -0.361 OA
HETATM   29  H   UNL     1       1.997  32.256  52.539  1.00  0.00     0.217 HD
ENDBRANCH   1  28
TORSDOF 2
ENDMDL
MODEL 10
REMARK VINA RESULT:      -8.9      6.335     10.372
REMARK  2 active torsions:
REMARK  status: ('A' for Active; 'I' for Inactive)
REMARK    1  A    between atoms: O_1  and  C_2 
REMARK    2  A    between atoms: C_24  and  C_25 
ROOT
HETATM    1  C   UNL     1       5.294  30.320  55.840  1.00  0.00     0.066 A 
HETATM    2  C   UNL     1       3.918  30.455  55.970  1.00  0.00     0.039 A 
HETATM    3  C   UNL     1       3.367  30.933  57.162  1.00  0.00     0.033 A 
HETATM    4  C   UNL     1       4.243  31.265  58.206  1.00  0.00     0.044 A 
HETATM    5  N   UNL     1       3.945  31.756  59.474  1.00  0.00    -0.353 N 
HETATM    6  H   UNL     1       3.011  31.938  59.807  1.00  0.00     0.166 HD
HETATM    7  C   UNL     1       5.098  31.942  60.174  1.00  0.00     0.073 A 
HETATM    8  C   UNL     1       5.341  32.400  61.447  1.00  0.00     0.072 A 
HETATM    9  N   UNL     1       4.527  32.827  62.455  1.00  0.00    -0.353 N 
HETATM   10  H   UNL     1       3.519  32.879  62.424  1.00  0.00     0.166 HD
HETATM   11  C   UNL     1       5.300  33.188  63.558  1.00  0.00     0.043 A 
HETATM   12  C   UNL     1       4.889  33.677  64.805  1.00  0.00     0.030 A 
HETATM   13  C   UNL     1       5.879  33.966  65.749  1.00  0.00     0.002 A 
HETATM   14  C   UNL     1       7.227  33.773  65.460  1.00  0.00     0.001 A 
HETATM   15  C   UNL     1       7.632  33.283  64.212  1.00  0.00     0.014 A 
HETATM   16  C   UNL     1       6.659  32.983  63.239  1.00  0.00     0.004 A 
HETATM   17  C   UNL     1       6.602  32.502  61.936  1.00  0.00     0.014 A 
HETATM   18  C   UNL     1       7.687  32.127  61.114  1.00  0.00    -0.010 A 
HETATM   19  C   UNL     1       9.122  32.151  61.423  1.00  0.00     0.163 A 
HETATM   20  N   UNL     1       9.649  31.653  60.172  1.00  0.00    -0.353 N 
HETATM   21  C   UNL     1       8.717  31.346  59.187  1.00  0.00     0.253 A 
HETATM   22  O   UNL     1       9.069  30.918  58.095  1.00  0.00    -0.268 OA
HETATM   23  C   UNL     1       7.448  31.651  59.791  1.00  0.00     0.054 A 
HETATM   24  C   UNL     1       6.104  31.567  59.336  1.00  0.00     0.022 A 
HETATM   25  C   UNL     1       5.644  31.134  58.093  1.00  0.00     0.007 A 
HETATM   26  C   UNL     1       6.168  30.650  56.879  1.00  0.00     0.051 A 
HETATM   27  H   UNL     1      10.631  31.518  59.978  1.00  0.00     0.163 HD
ENDROOT
BRANCH   1  28
HETATM   28  O   UNL     1       5.845  29.854  54.680  1.00  0.00    -0.361 OA
HETATM   29  H   UNL     1       5.621  30.465  53.960  1.00  0.00     0.217 HD
ENDBRANCH   1  28
TORSDOF 2
ENDMDL
