MODEL 1
REMARK VINA RESULT:     -10.7      0.000      0.000
REMARK  8 active torsions:
REMARK  status: ('A' for Active; 'I' for Inactive)
REMARK    1  A    between atoms: O_2  and  C_3 
REMARK    2  A    between atoms: C_6  and  C_7 
REMARK    3  A    between atoms: C_11  and  C_12 
REMARK       I    between atoms: C_12  and  N_13 
REMARK    4  A    between atoms: N_13  and  N_14 
REMARK       I    between atoms: N_14  and  C_15 
REMARK    5  A    between atoms: C_15  and  C_16 
REMARK    6  A    between atoms: C_16  and  C_17 
REMARK    7  A    between atoms: C_17  and  C_18 
REMARK    8  A    between atoms: N_20  and  C_21 
ROOT
HETATM    1  C   UNL     1       8.213  30.764  59.065  1.00  0.00     0.288 C 
HETATM    2  N   UNL     1       7.267  29.972  58.452  1.00  0.00    -0.262 N 
HETATM    3  O   UNL     1       9.187  31.205  58.457  1.00  0.00    -0.264 OA
HETATM    4  H   UNL     1       6.470  29.560  58.930  1.00  0.00     0.190 HD
ENDROOT
BRANCH   2   5
HETATM    5  N   UNL     1       7.366  29.716  57.079  1.00  0.00    -0.267 N 
HETATM    6  C   UNL     1       7.956  28.532  56.701  1.00  0.00     0.236 C 
HETATM    7  O   UNL     1       8.267  27.673  57.530  1.00  0.00    -0.272 OA
HETATM    8  H   UNL     1       7.283  30.527  56.472  1.00  0.00     0.190 HD
BRANCH   6   9
HETATM    9  C   UNL     1       8.077  28.268  55.213  1.00  0.00     0.109 C 
BRANCH   9  10
HETATM   10  C   UNL     1       6.795  27.927  54.461  1.00  0.00     0.051 C 
BRANCH  10  11
HETATM   11  C   UNL     1       6.635  26.480  54.152  1.00  0.00    -0.021 A 
HETATM   12  C   UNL     1       7.404  25.425  54.599  1.00  0.00     0.127 A 
HETATM   13  N   UNL     1       6.909  24.271  54.024  1.00  0.00    -0.245 N 
HETATM   14  N   UNL     1       5.835  24.547  53.238  1.00  0.00    -0.180 NA
HETATM   15  C   UNL     1       5.684  25.867  53.314  1.00  0.00     0.147 A 
BRANCH  13  16
HETATM   16  C   UNL     1       7.395  22.940  54.162  1.00  0.00     0.058 A 
HETATM   17  C   UNL     1       7.742  22.171  53.042  1.00  0.00     0.031 A 
HETATM   18  C   UNL     1       8.201  20.862  53.208  1.00  0.00     0.002 A 
HETATM   19  C   UNL     1       8.318  20.314  54.484  1.00  0.00     0.000 A 
HETATM   20  C   UNL     1       7.979  21.073  55.601  1.00  0.00     0.002 A 
HETATM   21  C   UNL     1       7.519  22.382  55.444  1.00  0.00     0.031 A 
ENDBRANCH  13  16
ENDBRANCH  10  11
ENDBRANCH   9  10
ENDBRANCH   6   9
ENDBRANCH   2   5
BRANCH   1  22
HETATM   22  C   UNL     1       7.956  31.056  60.449  1.00  0.00     0.121 A 
HETATM   23  N   UNL     1       8.636  30.441  61.463  1.00  0.00    -0.272 N 
HETATM   24  N   UNL     1       8.336  30.905  62.687  1.00  0.00    -0.174 NA
HETATM   25  H   UNL     1       9.346  29.720  61.374  1.00  0.00     0.189 HD
HETATM   26  C   UNL     1       7.384  31.827  62.475  1.00  0.00     0.089 A 
HETATM   27  C   UNL     1       7.103  31.937  61.085  1.00  0.00     0.071 A 
BRANCH  26  28
HETATM   28  C   UNL     1       6.804  32.617  63.561  1.00  0.00    -0.005 A 
HETATM   29  C   UNL     1       5.413  32.753  63.672  1.00  0.00     0.016 A 
HETATM   30  C   UNL     1       4.843  33.432  64.756  1.00  0.00     0.037 A 
HETATM   31  C   UNL     1       5.660  33.989  65.739  1.00  0.00     0.068 A 
HETATM   32  C   UNL     1       7.047  33.899  65.608  1.00  0.00     0.037 A 
HETATM   33  C   UNL     1       7.617  33.212  64.532  1.00  0.00     0.016 A 
BRANCH  31  34
HETATM   34  O   UNL     1       5.226  34.653  66.852  1.00  0.00    -0.356 OA
HETATM   35  C   UNL     1       4.464  35.832  66.615  1.00  0.00     0.210 C 
ENDBRANCH  31  34
ENDBRANCH  26  28
ENDBRANCH   1  22
TORSDOF 8
ENDMDL
MODEL 2
REMARK VINA RESULT:     -10.5      1.545      2.149
REMARK  8 active torsions:
REMARK  status: ('A' for Active; 'I' for Inactive)
REMARK    1  A    between atoms: O_2  and  C_3 
REMARK    2  A    between atoms: C_6  and  C_7 
REMARK    3  A    between atoms: C_11  and  C_12 
REMARK       I    between atoms: C_12  and  N_13 
REMARK    4  A    between atoms: N_13  and  N_14 
REMARK       I    between atoms: N_14  and  C_15 
REMARK    5  A    between atoms: C_15  and  C_16 
REMARK    6  A    between atoms: C_16  and  C_17 
REMARK    7  A    between atoms: C_17  and  C_18 
REMARK    8  A    between atoms: N_20  and  C_21 
ROOT
HETATM    1  C   UNL     1       7.877  31.673  59.926  1.00  0.00     0.288 C 
HETATM    2  N   UNL     1       7.652  30.361  59.571  1.00  0.00    -0.262 N 
HETATM    3  O   UNL     1       8.670  32.387  59.313  1.00  0.00    -0.264 OA
HETATM    4  H   UNL     1       7.033  29.731  60.075  1.00  0.00     0.190 HD
ENDROOT
BRANCH   2   5
HETATM    5  N   UNL     1       8.282  29.834  58.437  1.00  0.00    -0.267 N 
HETATM    6  C   UNL     1       7.474  29.338  57.441  1.00  0.00     0.236 C 
HETATM    7  O   UNL     1       6.248  29.467  57.482  1.00  0.00    -0.272 OA
HETATM    8  H   UNL     1       9.259  29.577  58.554  1.00  0.00     0.190 HD
BRANCH   6   9
HETATM    9  C   UNL     1       8.162  28.752  56.224  1.00  0.00     0.109 C 
BRANCH   9  10
HETATM   10  C   UNL     1       7.297  27.954  55.254  1.00  0.00     0.051 C 
BRANCH  10  11
HETATM   11  C   UNL     1       7.285  26.488  55.512  1.00  0.00    -0.021 A 
HETATM   12  C   UNL     1       7.636  25.470  54.650  1.00  0.00     0.127 A 
HETATM   13  N   UNL     1       7.431  24.273  55.308  1.00  0.00    -0.245 N 
HETATM   14  N   UNL     1       6.977  24.490  56.570  1.00  0.00    -0.180 NA
HETATM   15  C   UNL     1       6.886  25.812  56.681  1.00  0.00     0.147 A 
BRANCH  13  16
HETATM   16  C   UNL     1       7.622  22.952  54.813  1.00  0.00     0.058 A 
HETATM   17  C   UNL     1       7.671  21.850  55.677  1.00  0.00     0.031 A 
HETATM   18  C   UNL     1       7.876  20.566  55.163  1.00  0.00     0.002 A 
HETATM   19  C   UNL     1       8.032  20.375  53.791  1.00  0.00     0.000 A 
HETATM   20  C   UNL     1       7.980  21.465  52.926  1.00  0.00     0.002 A 
HETATM   21  C   UNL     1       7.776  22.750  53.432  1.00  0.00     0.031 A 
ENDBRANCH  13  16
ENDBRANCH  10  11
ENDBRANCH   9  10
ENDBRANCH   6   9
ENDBRANCH   2   5
BRANCH   1  22
HETATM   22  C   UNL     1       7.095  32.145  61.036  1.00  0.00     0.121 A 
HETATM   23  N   UNL     1       5.729  32.114  61.031  1.00  0.00    -0.272 N 
HETATM   24  N   UNL     1       5.165  32.503  62.187  1.00  0.00    -0.174 NA
HETATM   25  H   UNL     1       5.127  31.801  60.275  1.00  0.00     0.189 HD
HETATM   26  C   UNL     1       6.200  32.851  62.966  1.00  0.00     0.089 A 
HETATM   27  C   UNL     1       7.428  32.660  62.273  1.00  0.00     0.071 A 
BRANCH  26  28
HETATM   28  C   UNL     1       6.024  33.297  64.348  1.00  0.00    -0.005 A 
HETATM   29  C   UNL     1       7.139  33.567  65.153  1.00  0.00     0.016 A 
HETATM   30  C   UNL     1       6.982  34.080  66.447  1.00  0.00     0.037 A 
HETATM   31  C   UNL     1       5.706  34.322  66.953  1.00  0.00     0.068 A 
HETATM   32  C   UNL     1       4.591  34.008  66.175  1.00  0.00     0.037 A 
HETATM   33  C   UNL     1       4.745  33.507  64.879  1.00  0.00     0.016 A 
BRANCH  31  34
HETATM   34  O   UNL     1       5.424  34.838  68.187  1.00  0.00    -0.356 OA
HETATM   35  C   UNL     1       6.549  35.156  68.999  1.00  0.00     0.210 C 
ENDBRANCH  31  34
ENDBRANCH  26  28
ENDBRANCH   1  22
TORSDOF 8
ENDMDL
MODEL 3
REMARK VINA RESULT:     -10.5      2.457     12.601
REMARK  8 active torsions:
REMARK  status: ('A' for Active; 'I' for Inactive)
REMARK    1  A    between atoms: O_2  and  C_3 
REMARK    2  A    between atoms: C_6  and  C_7 
REMARK    3  A    between atoms: C_11  and  C_12 
REMARK       I    between atoms: C_12  and  N_13 
REMARK    4  A    between atoms: N_13  and  N_14 
REMARK       I    between atoms: N_14  and  C_15 
REMARK    5  A    between atoms: C_15  and  C_16 
REMARK    6  A    between atoms: C_16  and  C_17 
REMARK    7  A    between atoms: C_17  and  C_18 
REMARK    8  A    between atoms: N_20  and  C_21 
ROOT
HETATM    1  C   UNL     1       6.961  29.503  57.420  1.00  0.00     0.288 C 
HETATM    2  N   UNL     1       7.942  29.374  58.379  1.00  0.00    -0.262 N 
HETATM    3  O   UNL     1       6.108  30.388  57.477  1.00  0.00    -0.264 OA
HETATM    4  H   UNL     1       8.640  28.635  58.386  1.00  0.00     0.190 HD
ENDROOT
BRANCH   2   5
HETATM    5  N   UNL     1       8.025  30.314  59.413  1.00  0.00    -0.267 N 
HETATM    6  C   UNL     1       9.064  31.213  59.363  1.00  0.00     0.236 C 
HETATM    7  O   UNL     1       9.814  31.278  58.387  1.00  0.00    -0.272 OA
HETATM    8  H   UNL     1       7.518  30.081  60.264  1.00  0.00     0.190 HD
BRANCH   6   9
HETATM    9  C   UNL     1       9.161  32.217  60.496  1.00  0.00     0.109 C 
BRANCH   9  10
HETATM   10  C   UNL     1       9.103  31.669  61.917  1.00  0.00     0.051 C 
BRANCH  10  11
HETATM   11  C   UNL     1       7.892  32.078  62.680  1.00  0.00    -0.021 A 
HETATM   12  C   UNL     1       7.826  32.849  63.822  1.00  0.00     0.127 A 
HETATM   13  N   UNL     1       6.499  32.935  64.195  1.00  0.00    -0.245 N 
HETATM   14  N   UNL     1       5.708  32.261  63.319  1.00  0.00    -0.180 NA
HETATM   15  C   UNL     1       6.547  31.746  62.424  1.00  0.00     0.147 A 
BRANCH  13  16
HETATM   16  C   UNL     1       5.943  33.597  65.325  1.00  0.00     0.058 A 
HETATM   17  C   UNL     1       6.734  33.940  66.431  1.00  0.00     0.031 A 
HETATM   18  C   UNL     1       6.156  34.576  67.534  1.00  0.00     0.002 A 
HETATM   19  C   UNL     1       4.795  34.874  67.541  1.00  0.00     0.000 A 
HETATM   20  C   UNL     1       4.004  34.540  66.444  1.00  0.00     0.002 A 
HETATM   21  C   UNL     1       4.573  33.904  65.339  1.00  0.00     0.031 A 
ENDBRANCH  13  16
ENDBRANCH  10  11
ENDBRANCH   9  10
ENDBRANCH   6   9
ENDBRANCH   2   5
BRANCH   1  22
HETATM   22  C   UNL     1       7.035  28.554  56.344  1.00  0.00     0.121 A 
HETATM   23  N   UNL     1       7.163  28.939  55.038  1.00  0.00    -0.272 N 
HETATM   24  N   UNL     1       7.314  27.921  54.176  1.00  0.00    -0.174 NA
HETATM   25  H   UNL     1       7.190  29.890  54.682  1.00  0.00     0.189 HD
HETATM   26  C   UNL     1       7.232  26.819  54.937  1.00  0.00     0.089 A 
HETATM   27  C   UNL     1       7.036  27.174  56.301  1.00  0.00     0.071 A 
BRANCH  26  28
HETATM   28  C   UNL     1       7.392  25.474  54.387  1.00  0.00    -0.005 A 
HETATM   29  C   UNL     1       7.681  25.295  53.027  1.00  0.00     0.016 A 
HETATM   30  C   UNL     1       7.923  24.017  52.507  1.00  0.00     0.037 A 
HETATM   31  C   UNL     1       7.873  22.902  53.342  1.00  0.00     0.068 A 
HETATM   32  C   UNL     1       7.537  23.068  54.686  1.00  0.00     0.037 A 
HETATM   33  C   UNL     1       7.305  24.344  55.210  1.00  0.00     0.016 A 
BRANCH  31  34
HETATM   34  O   UNL     1       8.112  21.611  52.961  1.00  0.00    -0.356 OA
HETATM   35  C   UNL     1       7.849  20.614  53.941  1.00  0.00     0.210 C 
ENDBRANCH  31  34
ENDBRANCH  26  28
ENDBRANCH   1  22
TORSDOF 8
ENDMDL
MODEL 4
REMARK VINA RESULT:     -10.3      1.557      2.042
REMARK  8 active torsions:
REMARK  status: ('A' for Active; 'I' for Inactive)
REMARK    1  A    between atoms: O_2  and  C_3 
REMARK    2  A    between atoms: C_6  and  C_7 
REMARK    3  A    between atoms: C_11  and  C_12 
REMARK       I    between atoms: C_12  and  N_13 
REMARK    4  A    between atoms: N_13  and  N_14 
REMARK       I    between atoms: N_14  and  C_15 
REMARK    5  A    between atoms: C_15  and  C_16 
REMARK    6  A    between atoms: C_16  and  C_17 
REMARK    7  A    between atoms: C_17  and  C_18 
REMARK    8  A    between atoms: N_20  and  C_21 
ROOT
HETATM    1  C   UNL     1       8.620  30.040  57.397  1.00  0.00     0.288 C 
HETATM    2  N   UNL     1       7.365  29.815  56.875  1.00  0.00    -0.262 N 
HETATM    3  O   UNL     1       9.637  29.606  56.857  1.00  0.00    -0.264 OA
HETATM    4  H   UNL     1       6.501  30.127  57.312  1.00  0.00     0.190 HD
ENDROOT
BRANCH   2   5
HETATM    5  N   UNL     1       7.234  29.137  55.658  1.00  0.00    -0.267 N 
HETATM    6  C   UNL     1       6.019  28.550  55.392  1.00  0.00     0.236 C 
HETATM    7  O   UNL     1       5.045  28.722  56.129  1.00  0.00    -0.272 OA
HETATM    8  H   UNL     1       8.105  28.865  55.208  1.00  0.00     0.190 HD
BRANCH   6   9
HETATM    9  C   UNL     1       5.888  27.801  54.080  1.00  0.00     0.109 C 
BRANCH   9  10
HETATM   10  C   UNL     1       7.178  27.457  53.345  1.00  0.00     0.051 C 
BRANCH  10  11
HETATM   11  C   UNL     1       7.489  26.002  53.308  1.00  0.00    -0.021 A 
HETATM   12  C   UNL     1       7.482  25.103  54.355  1.00  0.00     0.127 A 
HETATM   13  N   UNL     1       7.872  23.875  53.858  1.00  0.00    -0.245 N 
HETATM   14  N   UNL     1       8.110  23.951  52.522  1.00  0.00    -0.180 NA
HETATM   15  C   UNL     1       7.888  25.224  52.204  1.00  0.00     0.147 A 
BRANCH  13  16
HETATM   16  C   UNL     1       8.044  22.653  54.566  1.00  0.00     0.058 A 
HETATM   17  C   UNL     1       8.044  21.419  53.901  1.00  0.00     0.031 A 
HETATM   18  C   UNL     1       8.199  20.234  54.626  1.00  0.00     0.002 A 
HETATM   19  C   UNL     1       8.355  20.271  56.010  1.00  0.00     0.000 A 
HETATM   20  C   UNL     1       8.361  21.494  56.677  1.00  0.00     0.002 A 
HETATM   21  C   UNL     1       8.206  22.682  55.960  1.00  0.00     0.031 A 
ENDBRANCH  13  16
ENDBRANCH  10  11
ENDBRANCH   9  10
ENDBRANCH   6   9
ENDBRANCH   2   5
BRANCH   1  22
HETATM   22  C   UNL     1       8.648  30.843  58.589  1.00  0.00     0.121 A 
HETATM   23  N   UNL     1       9.653  31.733  58.846  1.00  0.00    -0.272 N 
HETATM   24  N   UNL     1       9.468  32.466  59.956  1.00  0.00    -0.174 NA
HETATM   25  H   UNL     1      10.474  31.909  58.275  1.00  0.00     0.189 HD
HETATM   26  C   UNL     1       8.322  32.004  60.478  1.00  0.00     0.089 A 
HETATM   27  C   UNL     1       7.787  30.971  59.661  1.00  0.00     0.071 A 
BRANCH  26  28
HETATM   28  C   UNL     1       7.729  32.572  61.689  1.00  0.00    -0.005 A 
HETATM   29  C   UNL     1       6.481  33.208  61.635  1.00  0.00     0.016 A 
HETATM   30  C   UNL     1       5.863  33.676  62.801  1.00  0.00     0.037 A 
HETATM   31  C   UNL     1       6.492  33.520  64.036  1.00  0.00     0.068 A 
HETATM   32  C   UNL     1       7.757  32.933  64.090  1.00  0.00     0.037 A 
HETATM   33  C   UNL     1       8.370  32.454  62.928  1.00  0.00     0.016 A 
BRANCH  31  34
HETATM   34  O   UNL     1       5.984  33.913  65.243  1.00  0.00    -0.356 OA
HETATM   35  C   UNL     1       4.571  33.822  65.381  1.00  0.00     0.210 C 
ENDBRANCH  31  34
ENDBRANCH  26  28
ENDBRANCH   1  22
TORSDOF 8
ENDMDL
MODEL 5
REMARK VINA RESULT:      -9.6      2.706     12.417
REMARK  8 active torsions:
REMARK  status: ('A' for Active; 'I' for Inactive)
REMARK    1  A    between atoms: O_2  and  C_3 
REMARK    2  A    between atoms: C_6  and  C_7 
REMARK    3  A    between atoms: C_11  and  C_12 
REMARK       I    between atoms: C_12  and  N_13 
REMARK    4  A    between atoms: N_13  and  N_14 
REMARK       I    between atoms: N_14  and  C_15 
REMARK    5  A    between atoms: C_15  and  C_16 
REMARK    6  A    between atoms: C_16  and  C_17 
REMARK    7  A    between atoms: C_17  and  C_18 
REMARK    8  A    between atoms: N_20  and  C_21 
ROOT
HETATM    1  C   UNL     1       6.786  29.140  57.536  1.00  0.00     0.288 C 
HETATM    2  N   UNL     1       7.556  29.022  58.673  1.00  0.00    -0.262 N 
HETATM    3  O   UNL     1       6.250  30.201  57.221  1.00  0.00    -0.264 OA
HETATM    4  H   UNL     1       7.984  28.154  58.985  1.00  0.00     0.190 HD
ENDROOT
BRANCH   2   5
HETATM    5  N   UNL     1       7.804  30.152  59.460  1.00  0.00    -0.267 N 
HETATM    6  C   UNL     1       9.061  30.706  59.388  1.00  0.00     0.236 C 
HETATM    7  O   UNL     1       9.895  30.308  58.571  1.00  0.00    -0.272 OA
HETATM    8  H   UNL     1       7.165  30.297  60.238  1.00  0.00     0.190 HD
BRANCH   6   9
HETATM    9  C   UNL     1       9.330  31.919  60.257  1.00  0.00     0.109 C 
BRANCH   9  10
HETATM   10  C   UNL     1       9.233  31.728  61.766  1.00  0.00     0.051 C 
BRANCH  10  11
HETATM   11  C   UNL     1       8.183  32.556  62.420  1.00  0.00    -0.021 A 
HETATM   12  C   UNL     1       7.214  33.331  61.818  1.00  0.00     0.127 A 
HETATM   13  N   UNL     1       6.487  33.948  62.818  1.00  0.00    -0.245 N 
HETATM   14  N   UNL     1       6.946  33.579  64.042  1.00  0.00    -0.180 NA
HETATM   15  C   UNL     1       7.962  32.755  63.796  1.00  0.00     0.147 A 
BRANCH  13  16
HETATM   16  C   UNL     1       5.408  34.865  62.684  1.00  0.00     0.058 A 
HETATM   17  C   UNL     1       4.188  34.477  62.113  1.00  0.00     0.031 A 
HETATM   18  C   UNL     1       3.151  35.405  61.980  1.00  0.00     0.002 A 
HETATM   19  C   UNL     1       3.322  36.718  62.414  1.00  0.00     0.000 A 
HETATM   20  C   UNL     1       4.530  37.110  62.986  1.00  0.00     0.002 A 
HETATM   21  C   UNL     1       5.571  36.189  63.122  1.00  0.00     0.031 A 
ENDBRANCH  13  16
ENDBRANCH  10  11
ENDBRANCH   9  10
ENDBRANCH   6   9
ENDBRANCH   2   5
BRANCH   1  22
HETATM   22  C   UNL     1       6.689  27.946  56.741  1.00  0.00     0.121 A 
HETATM   23  N   UNL     1       5.955  27.895  55.589  1.00  0.00    -0.272 N 
HETATM   24  N   UNL     1       6.054  26.732  54.925  1.00  0.00    -0.174 NA
HETATM   25  H   UNL     1       5.395  28.641  55.188  1.00  0.00     0.189 HD
HETATM   26  C   UNL     1       6.844  25.969  55.696  1.00  0.00     0.089 A 
HETATM   27  C   UNL     1       7.247  26.688  56.855  1.00  0.00     0.071 A 
BRANCH  26  28
HETATM   28  C   UNL     1       7.247  24.618  55.308  1.00  0.00    -0.005 A 
HETATM   29  C   UNL     1       7.631  23.686  56.283  1.00  0.00     0.016 A 
HETATM   30  C   UNL     1       7.932  22.364  55.932  1.00  0.00     0.037 A 
HETATM   31  C   UNL     1       7.860  21.961  54.599  1.00  0.00     0.068 A 
HETATM   32  C   UNL     1       7.527  22.896  53.619  1.00  0.00     0.037 A 
HETATM   33  C   UNL     1       7.214  24.213  53.968  1.00  0.00     0.016 A 
BRANCH  31  34
HETATM   34  O   UNL     1       8.108  20.699  54.136  1.00  0.00    -0.356 OA
HETATM   35  C   UNL     1       8.290  20.578  52.729  1.00  0.00     0.210 C 
ENDBRANCH  31  34
ENDBRANCH  26  28
ENDBRANCH   1  22
TORSDOF 8
ENDMDL
MODEL 6
REMARK VINA RESULT:      -9.6      2.449      2.820
REMARK  8 active torsions:
REMARK  status: ('A' for Active; 'I' for Inactive)
REMARK    1  A    between atoms: O_2  and  C_3 
REMARK    2  A    between atoms: C_6  and  C_7 
REMARK    3  A    between atoms: C_11  and  C_12 
REMARK       I    between atoms: C_12  and  N_13 
REMARK    4  A    between atoms: N_13  and  N_14 
REMARK       I    between atoms: N_14  and  C_15 
REMARK    5  A    between atoms: C_15  and  C_16 
REMARK    6  A    between atoms: C_16  and  C_17 
REMARK    7  A    between atoms: C_17  and  C_18 
REMARK    8  A    between atoms: N_20  and  C_21 
ROOT
HETATM    1  C   UNL     1       4.102  31.932  59.079  1.00  0.00     0.288 C 
HETATM    2  N   UNL     1       4.878  30.814  58.869  1.00  0.00    -0.262 N 
HETATM    3  O   UNL     1       3.134  32.196  58.366  1.00  0.00    -0.264 OA
HETATM    4  H   UNL     1       5.705  30.583  59.413  1.00  0.00     0.190 HD
ENDROOT
BRANCH   2   5
HETATM    5  N   UNL     1       4.523  29.904  57.866  1.00  0.00    -0.267 N 
HETATM    6  C   UNL     1       5.542  29.215  57.251  1.00  0.00     0.236 C 
HETATM    7  O   UNL     1       6.706  29.294  57.652  1.00  0.00    -0.272 OA
HETATM    8  H   UNL     1       3.601  30.037  57.456  1.00  0.00     0.190 HD
BRANCH   6   9
HETATM    9  C   UNL     1       5.154  28.245  56.153  1.00  0.00     0.109 C 
BRANCH   9  10
HETATM   10  C   UNL     1       5.056  26.771  56.530  1.00  0.00     0.051 C 
BRANCH  10  11
HETATM   11  C   UNL     1       5.976  25.884  55.766  1.00  0.00    -0.021 A 
HETATM   12  C   UNL     1       6.015  24.505  55.757  1.00  0.00     0.127 A 
HETATM   13  N   UNL     1       7.055  24.120  54.934  1.00  0.00    -0.245 N 
HETATM   14  N   UNL     1       7.673  25.206  54.399  1.00  0.00    -0.180 NA
HETATM   15  C   UNL     1       7.029  26.253  54.907  1.00  0.00     0.147 A 
BRANCH  13  16
HETATM   16  C   UNL     1       7.502  22.801  54.638  1.00  0.00     0.058 A 
HETATM   17  C   UNL     1       7.700  21.855  55.653  1.00  0.00     0.031 A 
HETATM   18  C   UNL     1       8.155  20.572  55.334  1.00  0.00     0.002 A 
HETATM   19  C   UNL     1       8.412  20.226  54.008  1.00  0.00     0.000 A 
HETATM   20  C   UNL     1       8.213  21.160  52.994  1.00  0.00     0.002 A 
HETATM   21  C   UNL     1       7.759  22.444  53.305  1.00  0.00     0.031 A 
ENDBRANCH  13  16
ENDBRANCH  10  11
ENDBRANCH   9  10
ENDBRANCH   6   9
ENDBRANCH   2   5
BRANCH   1  22
HETATM   22  C   UNL     1       4.489  32.738  60.204  1.00  0.00     0.121 A 
HETATM   23  N   UNL     1       4.348  34.098  60.211  1.00  0.00    -0.272 N 
HETATM   24  N   UNL     1       4.670  34.679  61.378  1.00  0.00    -0.174 NA
HETATM   25  H   UNL     1       4.001  34.680  59.454  1.00  0.00     0.189 HD
HETATM   26  C   UNL     1       5.087  33.668  62.155  1.00  0.00     0.089 A 
HETATM   27  C   UNL     1       5.008  32.436  61.448  1.00  0.00     0.071 A 
BRANCH  26  28
HETATM   28  C   UNL     1       5.493  33.866  63.546  1.00  0.00    -0.005 A 
HETATM   29  C   UNL     1       4.538  34.163  64.527  1.00  0.00     0.016 A 
HETATM   30  C   UNL     1       4.902  34.267  65.875  1.00  0.00     0.037 A 
HETATM   31  C   UNL     1       6.231  34.081  66.256  1.00  0.00     0.068 A 
HETATM   32  C   UNL     1       7.195  33.834  65.278  1.00  0.00     0.037 A 
HETATM   33  C   UNL     1       6.831  33.719  63.933  1.00  0.00     0.016 A 
BRANCH  31  34
HETATM   34  O   UNL     1       6.706  34.135  67.537  1.00  0.00    -0.356 OA
HETATM   35  C   UNL     1       5.759  34.494  68.536  1.00  0.00     0.210 C 
ENDBRANCH  31  34
ENDBRANCH  26  28
ENDBRANCH   1  22
TORSDOF 8
ENDMDL
MODEL 7
REMARK VINA RESULT:      -9.4      2.748     12.828
REMARK  8 active torsions:
REMARK  status: ('A' for Active; 'I' for Inactive)
REMARK    1  A    between atoms: O_2  and  C_3 
REMARK    2  A    between atoms: C_6  and  C_7 
REMARK    3  A    between atoms: C_11  and  C_12 
REMARK       I    between atoms: C_12  and  N_13 
REMARK    4  A    between atoms: N_13  and  N_14 
REMARK       I    between atoms: N_14  and  C_15 
REMARK    5  A    between atoms: C_15  and  C_16 
REMARK    6  A    between atoms: C_16  and  C_17 
REMARK    7  A    between atoms: C_17  and  C_18 
REMARK    8  A    between atoms: N_20  and  C_21 
ROOT
HETATM    1  C   UNL     1       7.146  28.830  57.768  1.00  0.00     0.288 C 
HETATM    2  N   UNL     1       6.154  29.783  57.853  1.00  0.00    -0.262 N 
HETATM    3  O   UNL     1       8.110  28.825  58.532  1.00  0.00    -0.264 OA
HETATM    4  H   UNL     1       5.363  29.841  57.217  1.00  0.00     0.190 HD
ENDROOT
BRANCH   2   5
HETATM    5  N   UNL     1       6.195  30.733  58.880  1.00  0.00    -0.267 N 
HETATM    6  C   UNL     1       5.423  31.861  58.724  1.00  0.00     0.236 C 
HETATM    7  O   UNL     1       4.629  31.974  57.787  1.00  0.00    -0.272 OA
HETATM    8  H   UNL     1       6.998  30.678  59.501  1.00  0.00     0.190 HD
BRANCH   6   9
HETATM    9  C   UNL     1       5.484  32.896  59.830  1.00  0.00     0.109 C 
BRANCH   9  10
HETATM   10  C   UNL     1       4.169  33.541  60.253  1.00  0.00     0.051 C 
BRANCH  10  11
HETATM   11  C   UNL     1       4.002  33.678  61.725  1.00  0.00    -0.021 A 
HETATM   12  C   UNL     1       4.984  33.842  62.681  1.00  0.00     0.127 A 
HETATM   13  N   UNL     1       4.365  33.884  63.915  1.00  0.00    -0.245 N 
HETATM   14  N   UNL     1       3.018  33.773  63.782  1.00  0.00    -0.180 NA
HETATM   15  C   UNL     1       2.810  33.642  62.475  1.00  0.00     0.147 A 
BRANCH  13  16
HETATM   16  C   UNL     1       4.969  34.009  65.198  1.00  0.00     0.058 A 
HETATM   17  C   UNL     1       4.196  34.200  66.352  1.00  0.00     0.031 A 
HETATM   18  C   UNL     1       4.818  34.335  67.596  1.00  0.00     0.002 A 
HETATM   19  C   UNL     1       6.207  34.278  67.698  1.00  0.00     0.000 A 
HETATM   20  C   UNL     1       6.981  34.084  66.557  1.00  0.00     0.002 A 
HETATM   21  C   UNL     1       6.367  33.949  65.310  1.00  0.00     0.031 A 
ENDBRANCH  13  16
ENDBRANCH  10  11
ENDBRANCH   9  10
ENDBRANCH   6   9
ENDBRANCH   2   5
BRANCH   1  22
HETATM   22  C   UNL     1       6.949  27.836  56.749  1.00  0.00     0.121 A 
HETATM   23  N   UNL     1       6.222  28.084  55.619  1.00  0.00    -0.272 N 
HETATM   24  N   UNL     1       6.222  27.077  54.732  1.00  0.00    -0.174 NA
HETATM   25  H   UNL     1       5.732  28.943  55.384  1.00  0.00     0.189 HD
HETATM   26  C   UNL     1       6.936  26.107  55.323  1.00  0.00     0.089 A 
HETATM   27  C   UNL     1       7.393  26.537  56.600  1.00  0.00     0.071 A 
BRANCH  26  28
HETATM   28  C   UNL     1       7.220  24.832  54.665  1.00  0.00    -0.005 A 
HETATM   29  C   UNL     1       7.459  24.785  53.285  1.00  0.00     0.016 A 
HETATM   30  C   UNL     1       7.819  23.585  52.659  1.00  0.00     0.037 A 
HETATM   31  C   UNL     1       7.937  22.415  53.408  1.00  0.00     0.068 A 
HETATM   32  C   UNL     1       7.651  22.444  54.773  1.00  0.00     0.037 A 
HETATM   33  C   UNL     1       7.302  23.644  55.402  1.00  0.00     0.016 A 
BRANCH  31  34
HETATM   34  O   UNL     1       8.301  21.191  52.919  1.00  0.00    -0.356 OA
HETATM   35  C   UNL     1       8.557  20.184  53.892  1.00  0.00     0.210 C 
ENDBRANCH  31  34
ENDBRANCH  26  28
ENDBRANCH   1  22
TORSDOF 8
ENDMDL
MODEL 8
REMARK VINA RESULT:      -9.4      2.881     12.393
REMARK  8 active torsions:
REMARK  status: ('A' for Active; 'I' for Inactive)
REMARK    1  A    between atoms: O_2  and  C_3 
REMARK    2  A    between atoms: C_6  and  C_7 
REMARK    3  A    between atoms: C_11  and  C_12 
REMARK       I    between atoms: C_12  and  N_13 
REMARK    4  A    between atoms: N_13  and  N_14 
REMARK       I    between atoms: N_14  and  C_15 
REMARK    5  A    between atoms: C_15  and  C_16 
REMARK    6  A    between atoms: C_16  and  C_17 
REMARK    7  A    between atoms: C_17  and  C_18 
REMARK    8  A    between atoms: N_20  and  C_21 
ROOT
HETATM    1  C   UNL     1       5.138  29.077  56.595  1.00  0.00     0.288 C 
HETATM    2  N   UNL     1       4.984  29.539  57.884  1.00  0.00    -0.262 N 
HETATM    3  O   UNL     1       5.087  29.829  55.623  1.00  0.00    -0.264 OA
HETATM    4  H   UNL     1       4.983  28.943  58.708  1.00  0.00     0.190 HD
ENDROOT
BRANCH   2   5
HETATM    5  N   UNL     1       4.839  30.912  58.112  1.00  0.00    -0.267 N 
HETATM    6  C   UNL     1       3.706  31.323  58.775  1.00  0.00     0.236 C 
HETATM    7  O   UNL     1       2.915  30.513  59.263  1.00  0.00    -0.272 OA
HETATM    8  H   UNL     1       5.402  31.520  57.523  1.00  0.00     0.190 HD
BRANCH   6   9
HETATM    9  C   UNL     1       3.544  32.813  59.004  1.00  0.00     0.109 C 
BRANCH   9  10
HETATM   10  C   UNL     1       4.791  33.593  59.408  1.00  0.00     0.051 C 
BRANCH  10  11
HETATM   11  C   UNL     1       5.298  33.271  60.769  1.00  0.00    -0.021 A 
HETATM   12  C   UNL     1       4.998  33.900  61.960  1.00  0.00     0.127 A 
HETATM   13  N   UNL     1       5.730  33.284  62.957  1.00  0.00    -0.245 N 
HETATM   14  N   UNL     1       6.475  32.268  62.448  1.00  0.00    -0.180 NA
HETATM   15  C   UNL     1       6.218  32.272  61.143  1.00  0.00     0.147 A 
BRANCH  13  16
HETATM   16  C   UNL     1       5.775  33.606  64.342  1.00  0.00     0.058 A 
HETATM   17  C   UNL     1       6.995  33.768  65.013  1.00  0.00     0.031 A 
HETATM   18  C   UNL     1       7.008  34.069  66.378  1.00  0.00     0.002 A 
HETATM   19  C   UNL     1       5.812  34.210  67.079  1.00  0.00     0.000 A 
HETATM   20  C   UNL     1       4.596  34.055  66.418  1.00  0.00     0.002 A 
HETATM   21  C   UNL     1       4.574  33.754  65.054  1.00  0.00     0.031 A 
ENDBRANCH  13  16
ENDBRANCH  10  11
ENDBRANCH   9  10
ENDBRANCH   6   9
ENDBRANCH   2   5
BRANCH   1  22
HETATM   22  C   UNL     1       5.393  27.667  56.481  1.00  0.00     0.121 A 
HETATM   23  N   UNL     1       4.556  26.729  57.018  1.00  0.00    -0.272 N 
HETATM   24  N   UNL     1       4.896  25.461  56.733  1.00  0.00    -0.174 NA
HETATM   25  H   UNL     1       3.714  26.900  57.560  1.00  0.00     0.189 HD
HETATM   26  C   UNL     1       6.029  25.567  56.023  1.00  0.00     0.089 A 
HETATM   27  C   UNL     1       6.385  26.934  55.861  1.00  0.00     0.071 A 
BRANCH  26  28
HETATM   28  C   UNL     1       6.718  24.401  55.470  1.00  0.00    -0.005 A 
HETATM   29  C   UNL     1       6.657  24.128  54.097  1.00  0.00     0.016 A 
HETATM   30  C   UNL     1       7.384  23.066  53.544  1.00  0.00     0.037 A 
HETATM   31  C   UNL     1       8.175  22.261  54.361  1.00  0.00     0.068 A 
HETATM   32  C   UNL     1       8.201  22.496  55.736  1.00  0.00     0.037 A 
HETATM   33  C   UNL     1       7.485  23.562  56.289  1.00  0.00     0.016 A 
BRANCH  31  34
HETATM   34  O   UNL     1       8.945  21.213  53.939  1.00  0.00    -0.356 OA
HETATM   35  C   UNL     1       8.447  20.486  52.822  1.00  0.00     0.210 C 
ENDBRANCH  31  34
ENDBRANCH  26  28
ENDBRANCH   1  22
TORSDOF 8
ENDMDL
MODEL 9
REMARK VINA RESULT:      -9.3      3.132     12.059
REMARK  8 active torsions:
REMARK  status: ('A' for Active; 'I' for Inactive)
REMARK    1  A    between atoms: O_2  and  C_3 
REMARK    2  A    between atoms: C_6  and  C_7 
REMARK    3  A    between atoms: C_11  and  C_12 
REMARK       I    between atoms: C_12  and  N_13 
REMARK    4  A    between atoms: N_13  and  N_14 
REMARK       I    between atoms: N_14  and  C_15 
REMARK    5  A    between atoms: C_15  and  C_16 
REMARK    6  A    between atoms: C_16  and  C_17 
REMARK    7  A    between atoms: C_17  and  C_18 
REMARK    8  A    between atoms: N_20  and  C_21 
ROOT
HETATM    1  C   UNL     1       4.598  28.894  54.432  1.00  0.00     0.288 C 
HETATM    2  N   UNL     1       5.531  29.576  55.182  1.00  0.00    -0.262 N 
HETATM    3  O   UNL     1       3.593  29.446  53.986  1.00  0.00    -0.264 OA
HETATM    4  H   UNL     1       6.354  29.146  55.598  1.00  0.00     0.190 HD
ENDROOT
BRANCH   2   5
HETATM    5  N   UNL     1       5.381  30.952  55.388  1.00  0.00    -0.267 N 
HETATM    6  C   UNL     1       5.121  31.372  56.672  1.00  0.00     0.236 C 
HETATM    7  O   UNL     1       5.147  30.589  57.624  1.00  0.00    -0.272 OA
HETATM    8  H   UNL     1       5.171  31.502  54.559  1.00  0.00     0.190 HD
BRANCH   6   9
HETATM    9  C   UNL     1       4.940  32.862  56.886  1.00  0.00     0.109 C 
BRANCH   9  10
HETATM   10  C   UNL     1       3.739  33.305  57.713  1.00  0.00     0.051 C 
BRANCH  10  11
HETATM   11  C   UNL     1       3.987  33.339  59.180  1.00  0.00    -0.021 A 
HETATM   12  C   UNL     1       5.200  33.344  59.837  1.00  0.00     0.127 A 
HETATM   13  N   UNL     1       4.943  33.341  61.194  1.00  0.00    -0.245 N 
HETATM   14  N   UNL     1       3.605  33.354  61.430  1.00  0.00    -0.180 NA
HETATM   15  C   UNL     1       3.042  33.345  60.224  1.00  0.00     0.147 A 
BRANCH  13  16
HETATM   16  C   UNL     1       5.877  33.313  62.267  1.00  0.00     0.058 A 
HETATM   17  C   UNL     1       5.724  34.138  63.390  1.00  0.00     0.031 A 
HETATM   18  C   UNL     1       6.667  34.099  64.421  1.00  0.00     0.002 A 
HETATM   19  C   UNL     1       7.762  33.241  64.341  1.00  0.00     0.000 A 
HETATM   20  C   UNL     1       7.919  32.415  63.231  1.00  0.00     0.002 A 
HETATM   21  C   UNL     1       6.981  32.448  62.196  1.00  0.00     0.031 A 
ENDBRANCH  13  16
ENDBRANCH  10  11
ENDBRANCH   9  10
ENDBRANCH   6   9
ENDBRANCH   2   5
BRANCH   1  22
HETATM   22  C   UNL     1       4.907  27.512  54.188  1.00  0.00     0.121 A 
HETATM   23  N   UNL     1       4.233  26.767  53.261  1.00  0.00    -0.272 N 
HETATM   24  N   UNL     1       4.716  25.525  53.097  1.00  0.00    -0.174 NA
HETATM   25  H   UNL     1       3.454  27.069  52.684  1.00  0.00     0.189 HD
HETATM   26  C   UNL     1       5.716  25.431  53.986  1.00  0.00     0.089 A 
HETATM   27  C   UNL     1       5.855  26.651  54.705  1.00  0.00     0.071 A 
BRANCH  26  28
HETATM   28  C   UNL     1       6.549  24.235  54.104  1.00  0.00    -0.005 A 
HETATM   29  C   UNL     1       7.087  23.630  52.960  1.00  0.00     0.016 A 
HETATM   30  C   UNL     1       7.957  22.538  53.067  1.00  0.00     0.037 A 
HETATM   31  C   UNL     1       8.294  22.034  54.322  1.00  0.00     0.068 A 
HETATM   32  C   UNL     1       7.722  22.599  55.463  1.00  0.00     0.037 A 
HETATM   33  C   UNL     1       6.862  23.697  55.358  1.00  0.00     0.016 A 
BRANCH  31  34
HETATM   34  O   UNL     1       9.146  20.991  54.558  1.00  0.00    -0.356 OA
HETATM   35  C   UNL     1       9.210  20.533  55.904  1.00  0.00     0.210 C 
ENDBRANCH  31  34
ENDBRANCH  26  28
ENDBRANCH   1  22
TORSDOF 8
ENDMDL
MODEL 10
REMARK VINA RESULT:      -8.9      3.244     11.139
REMARK  8 active torsions:
REMARK  status: ('A' for Active; 'I' for Inactive)
REMARK    1  A    between atoms: O_2  and  C_3 
REMARK    2  A    between atoms: C_6  and  C_7 
REMARK    3  A    between atoms: C_11  and  C_12 
REMARK       I    between atoms: C_12  and  N_13 
REMARK    4  A    between atoms: N_13  and  N_14 
REMARK       I    between atoms: N_14  and  C_15 
REMARK    5  A    between atoms: C_15  and  C_16 
REMARK    6  A    between atoms: C_16  and  C_17 
REMARK    7  A    between atoms: C_17  and  C_18 
REMARK    8  A    between atoms: N_20  and  C_21 
ROOT
HETATM    1  C   UNL     1       6.429  29.544  56.127  1.00  0.00     0.288 C 
HETATM    2  N   UNL     1       5.500  29.928  55.184  1.00  0.00    -0.262 N 
HETATM    3  O   UNL     1       6.777  30.291  57.040  1.00  0.00    -0.264 OA
HETATM    4  H   UNL     1       5.216  29.354  54.395  1.00  0.00     0.190 HD
ENDROOT
BRANCH   2   5
HETATM    5  N   UNL     1       4.873  31.174  55.301  1.00  0.00    -0.267 N 
HETATM    6  C   UNL     1       3.648  31.206  55.925  1.00  0.00     0.236 C 
HETATM    7  O   UNL     1       3.179  30.207  56.475  1.00  0.00    -0.272 OA
HETATM    8  H   UNL     1       5.204  31.896  54.666  1.00  0.00     0.190 HD
BRANCH   6   9
HETATM    9  C   UNL     1       2.964  32.555  56.032  1.00  0.00     0.109 C 
BRANCH   9  10
HETATM   10  C   UNL     1       3.665  33.625  56.862  1.00  0.00     0.051 C 
BRANCH  10  11
HETATM   11  C   UNL     1       4.257  33.123  58.131  1.00  0.00    -0.021 A 
HETATM   12  C   UNL     1       5.582  33.135  58.516  1.00  0.00     0.127 A 
HETATM   13  N   UNL     1       5.666  32.530  59.755  1.00  0.00    -0.245 N 
HETATM   14  N   UNL     1       4.436  32.148  60.187  1.00  0.00    -0.180 NA
HETATM   15  C   UNL     1       3.603  32.497  59.210  1.00  0.00     0.147 A 
BRANCH  13  16
HETATM   16  C   UNL     1       6.829  32.284  60.537  1.00  0.00     0.058 A 
HETATM   17  C   UNL     1       6.749  32.102  61.924  1.00  0.00     0.031 A 
HETATM   18  C   UNL     1       7.911  31.877  62.669  1.00  0.00     0.002 A 
HETATM   19  C   UNL     1       9.153  31.832  62.037  1.00  0.00     0.000 A 
HETATM   20  C   UNL     1       9.239  32.008  60.659  1.00  0.00     0.002 A 
HETATM   21  C   UNL     1       8.083  32.233  59.908  1.00  0.00     0.031 A 
ENDBRANCH  13  16
ENDBRANCH  10  11
ENDBRANCH   9  10
ENDBRANCH   6   9
ENDBRANCH   2   5
BRANCH   1  22
HETATM   22  C   UNL     1       6.927  28.204  55.977  1.00  0.00     0.121 A 
HETATM   23  N   UNL     1       7.532  27.532  57.003  1.00  0.00    -0.272 N 
HETATM   24  N   UNL     1       7.848  26.259  56.716  1.00  0.00    -0.174 NA
HETATM   25  H   UNL     1       7.723  27.885  57.936  1.00  0.00     0.189 HD
HETATM   26  C   UNL     1       7.483  26.101  55.434  1.00  0.00     0.089 A 
HETATM   27  C   UNL     1       6.919  27.305  54.929  1.00  0.00     0.071 A 
BRANCH  26  28
HETATM   28  C   UNL     1       7.616  24.824  54.734  1.00  0.00    -0.005 A 
HETATM   29  C   UNL     1       7.585  24.777  53.334  1.00  0.00     0.016 A 
HETATM   30  C   UNL     1       7.800  23.574  52.651  1.00  0.00     0.037 A 
HETATM   31  C   UNL     1       8.041  22.400  53.364  1.00  0.00     0.068 A 
HETATM   32  C   UNL     1       8.023  22.430  54.758  1.00  0.00     0.037 A 
HETATM   33  C   UNL     1       7.820  23.633  55.442  1.00  0.00     0.016 A 
BRANCH  31  34
HETATM   34  O   UNL     1       8.287  21.172  52.814  1.00  0.00    -0.356 OA
HETATM   35  C   UNL     1       8.612  20.134  53.732  1.00  0.00     0.210 C 
ENDBRANCH  31  34
ENDBRANCH  26  28
ENDBRANCH   1  22
TORSDOF 8
ENDMDL
