MODEL 1
REMARK VINA RESULT:      -9.8      0.000      0.000
REMARK  3 active torsions:
REMARK  status: ('A' for Active; 'I' for Inactive)
REMARK    1  A    between atoms: O_2  and  C_3 
REMARK    2  A    between atoms: C_9  and  C_10 
REMARK       I    between atoms: C_10  and  N_11 
REMARK    3  A    between atoms: N_11  and  C_12 
ROOT
HETATM    1  C   UNL     1       5.600  34.395  66.923  1.00  0.00     0.068 A 
HETATM    2  C   UNL     1       6.709  33.933  66.208  1.00  0.00     0.044 A 
HETATM    3  C   UNL     1       6.573  33.475  64.891  1.00  0.00    -0.043 A 
HETATM    4  C   UNL     1       5.291  33.455  64.296  1.00  0.00    -0.001 A 
HETATM    5  C   UNL     1       5.224  32.983  62.923  1.00  0.00     0.069 A 
HETATM    6  C   UNL     1       6.322  32.764  62.120  1.00  0.00     0.007 A 
HETATM    7  C   UNL     1       5.805  32.344  60.871  1.00  0.00     0.153 A 
HETATM    8  N   UNL     1       4.452  32.277  60.912  1.00  0.00    -0.168 NA
HETATM    9  N   UNL     1       4.140  32.668  62.166  1.00  0.00    -0.276 N 
HETATM   10  H   UNL     1       3.162  32.693  62.433  1.00  0.00     0.189 HD
HETATM   11  C   UNL     1       7.704  33.023  62.606  1.00  0.00     0.048 C 
HETATM   12  C   UNL     1       7.780  32.912  64.149  1.00  0.00     0.044 C 
HETATM   13  C   UNL     1       4.184  33.909  65.012  1.00  0.00     0.017 A 
HETATM   14  C   UNL     1       4.340  34.380  66.321  1.00  0.00     0.037 A 
ENDROOT
BRANCH   7  15
HETATM   15  C   UNL     1       6.552  32.023  59.637  1.00  0.00     0.277 C 
HETATM   16  N   UNL     1       7.409  30.957  59.826  1.00  0.00    -0.322 N 
HETATM   17  H   UNL     1       7.382  30.592  60.776  1.00  0.00     0.169 HD
HETATM   18  O   UNL     1       6.388  32.653  58.596  1.00  0.00    -0.266 OA
BRANCH  16  19
HETATM   19  C   UNL     1       8.256  30.334  58.896  1.00  0.00     0.037 A 
HETATM   20  C   UNL     1       9.559  30.754  58.628  1.00  0.00     0.071 A 
HETATM   21  C   UNL     1      10.320  30.076  57.678  1.00  0.00     0.118 A 
HETATM   22  F   UNL     1      11.570  30.486  57.422  1.00  0.00    -0.206 F 
HETATM   23  C   UNL     1       9.810  28.984  56.988  1.00  0.00     0.042 A 
HETATM   24  C   UNL     1       8.512  28.556  57.250  1.00  0.00     0.005 A 
HETATM   25  C   UNL     1       7.739  29.230  58.201  1.00  0.00     0.029 A 
ENDBRANCH  16  19
ENDBRANCH   7  15
BRANCH   1  26
HETATM   26  O   UNL     1       5.879  34.825  68.192  1.00  0.00    -0.356 OA
HETATM   27  C   UNL     1       7.215  34.662  68.649  1.00  0.00     0.210 C 
ENDBRANCH   1  26
TORSDOF 3
ENDMDL
MODEL 2
REMARK VINA RESULT:      -9.4      5.149     11.089
REMARK  3 active torsions:
REMARK  status: ('A' for Active; 'I' for Inactive)
REMARK    1  A    between atoms: O_2  and  C_3 
REMARK    2  A    between atoms: C_9  and  C_10 
REMARK       I    between atoms: C_10  and  N_11 
REMARK    3  A    between atoms: N_11  and  C_12 
ROOT
HETATM    1  C   UNL     1       8.478  22.126  53.874  1.00  0.00     0.068 A 
HETATM    2  C   UNL     1       8.604  22.607  55.181  1.00  0.00     0.044 A 
HETATM    3  C   UNL     1       8.234  23.920  55.501  1.00  0.00    -0.043 A 
HETATM    4  C   UNL     1       7.756  24.771  54.479  1.00  0.00    -0.001 A 
HETATM    5  C   UNL     1       7.375  26.114  54.883  1.00  0.00     0.069 A 
HETATM    6  C   UNL     1       7.251  26.528  56.190  1.00  0.00     0.007 A 
HETATM    7  C   UNL     1       6.838  27.881  56.126  1.00  0.00     0.153 A 
HETATM    8  N   UNL     1       6.742  28.290  54.838  1.00  0.00    -0.168 NA
HETATM    9  N   UNL     1       7.075  27.198  54.119  1.00  0.00    -0.276 N 
HETATM   10  H   UNL     1       7.076  27.269  53.107  1.00  0.00     0.189 HD
HETATM   11  C   UNL     1       7.485  25.596  57.327  1.00  0.00     0.048 C 
HETATM   12  C   UNL     1       8.440  24.449  56.916  1.00  0.00     0.044 C 
HETATM   13  C   UNL     1       7.636  24.293  53.174  1.00  0.00     0.017 A 
HETATM   14  C   UNL     1       7.995  22.973  52.874  1.00  0.00     0.037 A 
ENDROOT
BRANCH   7  15
HETATM   15  C   UNL     1       6.514  28.789  57.246  1.00  0.00     0.277 C 
HETATM   16  N   UNL     1       7.643  29.423  57.727  1.00  0.00    -0.322 N 
HETATM   17  H   UNL     1       8.491  29.146  57.237  1.00  0.00     0.169 HD
HETATM   18  O   UNL     1       5.366  28.933  57.654  1.00  0.00    -0.266 OA
BRANCH  16  19
HETATM   19  C   UNL     1       7.746  30.377  58.752  1.00  0.00     0.037 A 
HETATM   20  C   UNL     1       8.752  30.375  59.718  1.00  0.00     0.071 A 
HETATM   21  C   UNL     1       8.765  31.361  60.703  1.00  0.00     0.118 A 
HETATM   22  F   UNL     1       9.732  31.352  61.630  1.00  0.00    -0.206 F 
HETATM   23  C   UNL     1       7.793  32.353  60.745  1.00  0.00     0.042 A 
HETATM   24  C   UNL     1       6.787  32.364  59.784  1.00  0.00     0.005 A 
HETATM   25  C   UNL     1       6.765  31.379  58.792  1.00  0.00     0.029 A 
ENDBRANCH  16  19
ENDBRANCH   7  15
BRANCH   1  26
HETATM   26  O   UNL     1       8.863  20.824  53.707  1.00  0.00    -0.356 OA
HETATM   27  C   UNL     1       8.749  19.967  54.836  1.00  0.00     0.210 C 
ENDBRANCH   1  26
TORSDOF 3
ENDMDL
MODEL 3
REMARK VINA RESULT:      -8.9      6.193     11.430
REMARK  3 active torsions:
REMARK  status: ('A' for Active; 'I' for Inactive)
REMARK    1  A    between atoms: O_2  and  C_3 
REMARK    2  A    between atoms: C_9  and  C_10 
REMARK       I    between atoms: C_10  and  N_11 
REMARK    3  A    between atoms: N_11  and  C_12 
ROOT
HETATM    1  C   UNL     1       8.144  21.226  54.817  1.00  0.00     0.068 A 
HETATM    2  C   UNL     1       7.706  22.347  54.105  1.00  0.00     0.044 A 
HETATM    3  C   UNL     1       7.597  23.596  54.730  1.00  0.00    -0.043 A 
HETATM    4  C   UNL     1       7.908  23.710  56.104  1.00  0.00    -0.001 A 
HETATM    5  C   UNL     1       7.788  25.036  56.686  1.00  0.00     0.069 A 
HETATM    6  C   UNL     1       7.605  26.191  55.959  1.00  0.00     0.007 A 
HETATM    7  C   UNL     1       7.573  27.241  56.909  1.00  0.00     0.153 A 
HETATM    8  N   UNL     1       7.700  26.751  58.166  1.00  0.00    -0.168 NA
HETATM    9  N   UNL     1       7.825  25.418  57.990  1.00  0.00    -0.276 N 
HETATM   10  H   UNL     1       7.931  24.832  58.811  1.00  0.00     0.189 HD
HETATM   11  C   UNL     1       7.535  26.172  54.473  1.00  0.00     0.048 C 
HETATM   12  C   UNL     1       7.053  24.793  53.958  1.00  0.00     0.044 C 
HETATM   13  C   UNL     1       8.339  22.590  56.816  1.00  0.00     0.017 A 
HETATM   14  C   UNL     1       8.459  21.352  56.171  1.00  0.00     0.037 A 
ENDROOT
BRANCH   7  15
HETATM   15  C   UNL     1       7.446  28.692  56.660  1.00  0.00     0.277 C 
HETATM   16  N   UNL     1       6.267  29.192  57.175  1.00  0.00    -0.322 N 
HETATM   17  H   UNL     1       5.695  28.478  57.620  1.00  0.00     0.169 HD
HETATM   18  O   UNL     1       8.314  29.328  56.071  1.00  0.00    -0.266 OA
BRANCH  16  19
HETATM   19  C   UNL     1       5.800  30.517  57.174  1.00  0.00     0.037 A 
HETATM   20  C   UNL     1       5.843  31.358  58.286  1.00  0.00     0.071 A 
HETATM   21  C   UNL     1       5.345  32.655  58.190  1.00  0.00     0.118 A 
HETATM   22  F   UNL     1       5.387  33.458  59.261  1.00  0.00    -0.206 F 
HETATM   23  C   UNL     1       4.803  33.135  57.004  1.00  0.00     0.042 A 
HETATM   24  C   UNL     1       4.757  32.305  55.889  1.00  0.00     0.005 A 
HETATM   25  C   UNL     1       5.254  31.000  55.975  1.00  0.00     0.029 A 
ENDBRANCH  16  19
ENDBRANCH   7  15
BRANCH   1  26
HETATM   26  O   UNL     1       8.217  20.076  54.079  1.00  0.00    -0.356 OA
HETATM   27  C   UNL     1       8.374  20.219  52.674  1.00  0.00     0.210 C 
ENDBRANCH   1  26
TORSDOF 3
ENDMDL
MODEL 4
REMARK VINA RESULT:      -8.9      6.087      9.157
REMARK  3 active torsions:
REMARK  status: ('A' for Active; 'I' for Inactive)
REMARK    1  A    between atoms: O_2  and  C_3 
REMARK    2  A    between atoms: C_9  and  C_10 
REMARK       I    between atoms: C_10  and  N_11 
REMARK    3  A    between atoms: N_11  and  C_12 
ROOT
HETATM    1  C   UNL     1       7.399  30.998  58.523  1.00  0.00     0.068 A 
HETATM    2  C   UNL     1       7.905  29.695  58.544  1.00  0.00     0.044 A 
HETATM    3  C   UNL     1       7.439  28.731  57.641  1.00  0.00    -0.043 A 
HETATM    4  C   UNL     1       6.425  29.079  56.720  1.00  0.00    -0.001 A 
HETATM    5  C   UNL     1       6.000  28.036  55.802  1.00  0.00     0.069 A 
HETATM    6  C   UNL     1       6.651  26.834  55.634  1.00  0.00     0.007 A 
HETATM    7  C   UNL     1       5.925  26.142  54.635  1.00  0.00     0.153 A 
HETATM    8  N   UNL     1       4.857  26.871  54.228  1.00  0.00    -0.168 NA
HETATM    9  N   UNL     1       4.936  28.005  54.956  1.00  0.00    -0.276 N 
HETATM   10  H   UNL     1       4.224  28.715  54.821  1.00  0.00     0.189 HD
HETATM   11  C   UNL     1       7.891  26.509  56.389  1.00  0.00     0.048 C 
HETATM   12  C   UNL     1       7.953  27.297  57.720  1.00  0.00     0.044 C 
HETATM   13  C   UNL     1       5.916  30.378  56.704  1.00  0.00     0.017 A 
HETATM   14  C   UNL     1       6.404  31.334  57.602  1.00  0.00     0.037 A 
ENDROOT
BRANCH   7  15
HETATM   15  C   UNL     1       6.222  24.821  54.042  1.00  0.00     0.277 C 
HETATM   16  N   UNL     1       7.021  24.061  54.874  1.00  0.00    -0.322 N 
HETATM   17  H   UNL     1       7.270  24.545  55.734  1.00  0.00     0.169 HD
HETATM   18  O   UNL     1       5.783  24.487  52.946  1.00  0.00    -0.266 OA
BRANCH  16  19
HETATM   19  C   UNL     1       7.488  22.751  54.686  1.00  0.00     0.037 A 
HETATM   20  C   UNL     1       7.755  22.191  53.437  1.00  0.00     0.071 A 
HETATM   21  C   UNL     1       8.207  20.876  53.352  1.00  0.00     0.118 A 
HETATM   22  F   UNL     1       8.460  20.343  52.149  1.00  0.00    -0.206 F 
HETATM   23  C   UNL     1       8.402  20.104  54.490  1.00  0.00     0.042 A 
HETATM   24  C   UNL     1       8.141  20.654  55.741  1.00  0.00     0.005 A 
HETATM   25  C   UNL     1       7.685  21.973  55.837  1.00  0.00     0.029 A 
ENDBRANCH  16  19
ENDBRANCH   7  15
BRANCH   1  26
HETATM   26  O   UNL     1       7.953  31.839  59.450  1.00  0.00    -0.356 OA
HETATM   27  C   UNL     1       9.260  31.521  59.910  1.00  0.00     0.210 C 
ENDBRANCH   1  26
TORSDOF 3
ENDMDL
MODEL 5
REMARK VINA RESULT:      -8.8      2.629      3.732
REMARK  3 active torsions:
REMARK  status: ('A' for Active; 'I' for Inactive)
REMARK    1  A    between atoms: O_2  and  C_3 
REMARK    2  A    between atoms: C_9  and  C_10 
REMARK       I    between atoms: C_10  and  N_11 
REMARK    3  A    between atoms: N_11  and  C_12 
ROOT
HETATM    1  C   UNL     1       5.956  34.552  64.573  1.00  0.00     0.068 A 
HETATM    2  C   UNL     1       5.556  34.436  63.239  1.00  0.00     0.044 A 
HETATM    3  C   UNL     1       6.247  33.600  62.353  1.00  0.00    -0.043 A 
HETATM    4  C   UNL     1       7.380  32.890  62.814  1.00  0.00    -0.001 A 
HETATM    5  C   UNL     1       8.041  32.029  61.848  1.00  0.00     0.069 A 
HETATM    6  C   UNL     1       7.524  31.705  60.613  1.00  0.00     0.007 A 
HETATM    7  C   UNL     1       8.468  30.832  60.020  1.00  0.00     0.153 A 
HETATM    8  N   UNL     1       9.532  30.650  60.841  1.00  0.00    -0.168 NA
HETATM    9  N   UNL     1       9.237  31.390  61.931  1.00  0.00    -0.276 N 
HETATM   10  H   UNL     1       9.906  31.410  62.693  1.00  0.00     0.189 HD
HETATM   11  C   UNL     1       6.198  32.211  60.167  1.00  0.00     0.048 C 
HETATM   12  C   UNL     1       5.839  33.536  60.885  1.00  0.00     0.044 C 
HETATM   13  C   UNL     1       7.782  33.011  64.144  1.00  0.00     0.017 A 
HETATM   14  C   UNL     1       7.070  33.838  65.021  1.00  0.00     0.037 A 
ENDROOT
BRANCH   7  15
HETATM   15  C   UNL     1       8.383  30.150  58.712  1.00  0.00     0.277 C 
HETATM   16  N   UNL     1       7.488  29.099  58.747  1.00  0.00    -0.322 N 
HETATM   17  H   UNL     1       7.059  28.974  59.661  1.00  0.00     0.169 HD
HETATM   18  O   UNL     1       9.041  30.517  57.744  1.00  0.00    -0.266 OA
BRANCH  16  19
HETATM   19  C   UNL     1       7.105  28.236  57.706  1.00  0.00     0.037 A 
HETATM   20  C   UNL     1       7.836  27.114  57.318  1.00  0.00     0.071 A 
HETATM   21  C   UNL     1       7.378  26.323  56.265  1.00  0.00     0.118 A 
HETATM   22  F   UNL     1       8.086  25.248  55.894  1.00  0.00    -0.206 F 
HETATM   23  C   UNL     1       6.203  26.627  55.591  1.00  0.00     0.042 A 
HETATM   24  C   UNL     1       5.465  27.744  55.973  1.00  0.00     0.005 A 
HETATM   25  C   UNL     1       5.916  28.545  57.027  1.00  0.00     0.029 A 
ENDBRANCH  16  19
ENDBRANCH   7  15
BRANCH   1  26
HETATM   26  O   UNL     1       5.183  35.391  65.329  1.00  0.00    -0.356 OA
HETATM   27  C   UNL     1       4.125  36.069  64.663  1.00  0.00     0.210 C 
ENDBRANCH   1  26
TORSDOF 3
ENDMDL
MODEL 6
REMARK VINA RESULT:      -8.8     11.140     13.014
REMARK  3 active torsions:
REMARK  status: ('A' for Active; 'I' for Inactive)
REMARK    1  A    between atoms: O_2  and  C_3 
REMARK    2  A    between atoms: C_9  and  C_10 
REMARK       I    between atoms: C_10  and  N_11 
REMARK    3  A    between atoms: N_11  and  C_12 
ROOT
HETATM    1  C   UNL     1       8.640  22.142  55.692  1.00  0.00     0.068 A 
HETATM    2  C   UNL     1       8.534  22.451  54.333  1.00  0.00     0.044 A 
HETATM    3  C   UNL     1       7.757  23.535  53.902  1.00  0.00    -0.043 A 
HETATM    4  C   UNL     1       7.052  24.301  54.857  1.00  0.00    -0.001 A 
HETATM    5  C   UNL     1       6.278  25.420  54.344  1.00  0.00     0.069 A 
HETATM    6  C   UNL     1       6.358  25.895  53.054  1.00  0.00     0.007 A 
HETATM    7  C   UNL     1       5.470  26.995  52.995  1.00  0.00     0.153 A 
HETATM    8  N   UNL     1       4.848  27.171  54.186  1.00  0.00    -0.168 NA
HETATM    9  N   UNL     1       5.360  26.201  54.973  1.00  0.00    -0.276 N 
HETATM   10  H   UNL     1       5.032  26.134  55.930  1.00  0.00     0.189 HD
HETATM   11  C   UNL     1       7.288  25.293  52.060  1.00  0.00     0.048 C 
HETATM   12  C   UNL     1       7.598  23.818  52.412  1.00  0.00     0.044 C 
HETATM   13  C   UNL     1       7.152  23.989  56.213  1.00  0.00     0.017 A 
HETATM   14  C   UNL     1       7.947  22.913  56.628  1.00  0.00     0.037 A 
ENDROOT
BRANCH   7  15
HETATM   15  C   UNL     1       5.208  27.895  51.853  1.00  0.00     0.277 C 
HETATM   16  N   UNL     1       4.364  27.309  50.930  1.00  0.00    -0.322 N 
HETATM   17  H   UNL     1       4.084  26.366  51.192  1.00  0.00     0.169 HD
HETATM   18  O   UNL     1       5.697  29.018  51.784  1.00  0.00    -0.266 OA
BRANCH  16  19
HETATM   19  C   UNL     1       3.854  27.849  49.738  1.00  0.00     0.037 A 
HETATM   20  C   UNL     1       2.681  28.599  49.663  1.00  0.00     0.071 A 
HETATM   21  C   UNL     1       2.250  29.085  48.430  1.00  0.00     0.118 A 
HETATM   22  F   UNL     1       1.121  29.803  48.364  1.00  0.00    -0.206 F 
HETATM   23  C   UNL     1       2.966  28.839  47.266  1.00  0.00     0.042 A 
HETATM   24  C   UNL     1       4.140  28.094  47.331  1.00  0.00     0.005 A 
HETATM   25  C   UNL     1       4.580  27.601  48.563  1.00  0.00     0.029 A 
ENDBRANCH  16  19
ENDBRANCH   7  15
BRANCH   1  26
HETATM   26  O   UNL     1       9.441  21.069  55.971  1.00  0.00    -0.356 OA
HETATM   27  C   UNL     1       9.094  19.830  55.367  1.00  0.00     0.210 C 
ENDBRANCH   1  26
TORSDOF 3
ENDMDL
MODEL 7
REMARK VINA RESULT:      -8.8     11.237     13.433
REMARK  3 active torsions:
REMARK  status: ('A' for Active; 'I' for Inactive)
REMARK    1  A    between atoms: O_2  and  C_3 
REMARK    2  A    between atoms: C_9  and  C_10 
REMARK       I    between atoms: C_10  and  N_11 
REMARK    3  A    between atoms: N_11  and  C_12 
ROOT
HETATM    1  C   UNL     1       4.458  29.922  48.399  1.00  0.00     0.068 A 
HETATM    2  C   UNL     1       4.494  28.529  48.507  1.00  0.00     0.044 A 
HETATM    3  C   UNL     1       4.959  27.912  49.675  1.00  0.00    -0.043 A 
HETATM    4  C   UNL     1       5.424  28.714  50.742  1.00  0.00    -0.001 A 
HETATM    5  C   UNL     1       5.877  28.010  51.930  1.00  0.00     0.069 A 
HETATM    6  C   UNL     1       5.689  26.665  52.157  1.00  0.00     0.007 A 
HETATM    7  C   UNL     1       6.253  26.408  53.430  1.00  0.00     0.153 A 
HETATM    8  N   UNL     1       6.791  27.538  53.950  1.00  0.00    -0.168 NA
HETATM    9  N   UNL     1       6.547  28.481  53.016  1.00  0.00    -0.276 N 
HETATM   10  H   UNL     1       6.869  29.426  53.190  1.00  0.00     0.189 HD
HETATM   11  C   UNL     1       4.965  25.805  51.182  1.00  0.00     0.048 C 
HETATM   12  C   UNL     1       5.055  26.391  49.751  1.00  0.00     0.044 C 
HETATM   13  C   UNL     1       5.394  30.104  50.632  1.00  0.00     0.017 A 
HETATM   14  C   UNL     1       4.910  30.705  49.464  1.00  0.00     0.037 A 
ENDROOT
BRANCH   7  15
HETATM   15  C   UNL     1       6.279  25.132  54.175  1.00  0.00     0.277 C 
HETATM   16  N   UNL     1       7.178  24.242  53.622  1.00  0.00    -0.322 N 
HETATM   17  H   UNL     1       7.650  24.614  52.800  1.00  0.00     0.169 HD
HETATM   18  O   UNL     1       5.576  24.942  55.162  1.00  0.00    -0.266 OA
BRANCH  16  19
HETATM   19  C   UNL     1       7.516  22.950  54.056  1.00  0.00     0.037 A 
HETATM   20  C   UNL     1       7.610  22.580  55.398  1.00  0.00     0.071 A 
HETATM   21  C   UNL     1       7.962  21.274  55.731  1.00  0.00     0.118 A 
HETATM   22  F   UNL     1       8.054  20.925  57.021  1.00  0.00    -0.206 F 
HETATM   23  C   UNL     1       8.222  20.323  54.751  1.00  0.00     0.042 A 
HETATM   24  C   UNL     1       8.127  20.682  53.410  1.00  0.00     0.005 A 
HETATM   25  C   UNL     1       7.776  21.991  53.066  1.00  0.00     0.029 A 
ENDBRANCH  16  19
ENDBRANCH   7  15
BRANCH   1  26
HETATM   26  O   UNL     1       3.969  30.389  47.210  1.00  0.00    -0.356 OA
HETATM   27  C   UNL     1       2.651  29.992  46.855  1.00  0.00     0.210 C 
ENDBRANCH   1  26
TORSDOF 3
ENDMDL
MODEL 8
REMARK VINA RESULT:      -8.8      3.678      9.599
REMARK  3 active torsions:
REMARK  status: ('A' for Active; 'I' for Inactive)
REMARK    1  A    between atoms: O_2  and  C_3 
REMARK    2  A    between atoms: C_9  and  C_10 
REMARK       I    between atoms: C_10  and  N_11 
REMARK    3  A    between atoms: N_11  and  C_12 
ROOT
HETATM    1  C   UNL     1       5.588  26.830  54.096  1.00  0.00     0.068 A 
HETATM    2  C   UNL     1       4.996  27.630  55.076  1.00  0.00     0.044 A 
HETATM    3  C   UNL     1       5.782  28.349  55.987  1.00  0.00    -0.043 A 
HETATM    4  C   UNL     1       7.189  28.236  55.924  1.00  0.00    -0.001 A 
HETATM    5  C   UNL     1       7.944  29.020  56.887  1.00  0.00     0.069 A 
HETATM    6  C   UNL     1       7.402  30.000  57.688  1.00  0.00     0.007 A 
HETATM    7  C   UNL     1       8.483  30.521  58.440  1.00  0.00     0.153 A 
HETATM    8  N   UNL     1       9.633  29.871  58.137  1.00  0.00    -0.168 NA
HETATM    9  N   UNL     1       9.266  28.972  57.199  1.00  0.00    -0.276 N 
HETATM   10  H   UNL     1       9.977  28.358  56.817  1.00  0.00     0.189 HD
HETATM   11  C   UNL     1       5.959  30.356  57.614  1.00  0.00     0.048 C 
HETATM   12  C   UNL     1       5.119  29.164  57.093  1.00  0.00     0.044 C 
HETATM   13  C   UNL     1       7.780  27.432  54.949  1.00  0.00     0.017 A 
HETATM   14  C   UNL     1       6.980  26.733  54.036  1.00  0.00     0.037 A 
ENDROOT
BRANCH   7  15
HETATM   15  C   UNL     1       8.462  31.626  59.420  1.00  0.00     0.277 C 
HETATM   16  N   UNL     1       7.572  31.377  60.446  1.00  0.00    -0.322 N 
HETATM   17  H   UNL     1       7.084  30.489  60.340  1.00  0.00     0.169 HD
HETATM   18  O   UNL     1       9.173  32.618  59.296  1.00  0.00    -0.266 OA
BRANCH  16  19
HETATM   19  C   UNL     1       7.292  32.161  61.577  1.00  0.00     0.037 A 
HETATM   20  C   UNL     1       6.248  33.083  61.645  1.00  0.00     0.071 A 
HETATM   21  C   UNL     1       6.055  33.823  62.810  1.00  0.00     0.118 A 
HETATM   22  F   UNL     1       5.053  34.709  62.869  1.00  0.00    -0.206 F 
HETATM   23  C   UNL     1       6.883  33.661  63.914  1.00  0.00     0.042 A 
HETATM   24  C   UNL     1       7.926  32.742  63.857  1.00  0.00     0.005 A 
HETATM   25  C   UNL     1       8.128  31.995  62.692  1.00  0.00     0.029 A 
ENDBRANCH  16  19
ENDBRANCH   7  15
BRANCH   1  26
HETATM   26  O   UNL     1       4.703  26.196  53.266  1.00  0.00    -0.356 OA
HETATM   27  C   UNL     1       5.189  25.074  52.541  1.00  0.00     0.210 C 
ENDBRANCH   1  26
TORSDOF 3
ENDMDL
MODEL 9
REMARK VINA RESULT:      -8.8      6.357      8.588
REMARK  3 active torsions:
REMARK  status: ('A' for Active; 'I' for Inactive)
REMARK    1  A    between atoms: O_2  and  C_3 
REMARK    2  A    between atoms: C_9  and  C_10 
REMARK       I    between atoms: C_10  and  N_11 
REMARK    3  A    between atoms: N_11  and  C_12 
ROOT
HETATM    1  C   UNL     1       3.940  32.065  57.538  1.00  0.00     0.068 A 
HETATM    2  C   UNL     1       3.654  30.827  56.956  1.00  0.00     0.044 A 
HETATM    3  C   UNL     1       4.629  29.822  56.892  1.00  0.00    -0.043 A 
HETATM    4  C   UNL     1       5.923  30.083  57.398  1.00  0.00    -0.001 A 
HETATM    5  C   UNL     1       6.881  28.993  57.315  1.00  0.00     0.069 A 
HETATM    6  C   UNL     1       6.557  27.696  56.982  1.00  0.00     0.007 A 
HETATM    7  C   UNL     1       7.770  26.969  57.050  1.00  0.00     0.153 A 
HETATM    8  N   UNL     1       8.799  27.787  57.380  1.00  0.00    -0.168 NA
HETATM    9  N   UNL     1       8.223  28.998  57.529  1.00  0.00    -0.276 N 
HETATM   10  H   UNL     1       8.813  29.785  57.778  1.00  0.00     0.189 HD
HETATM   11  C   UNL     1       5.153  27.294  56.693  1.00  0.00     0.048 C 
HETATM   12  C   UNL     1       4.322  28.501  56.195  1.00  0.00     0.044 C 
HETATM   13  C   UNL     1       6.210  31.321  57.973  1.00  0.00     0.017 A 
HETATM   14  C   UNL     1       5.219  32.308  58.044  1.00  0.00     0.037 A 
ENDROOT
BRANCH   7  15
HETATM   15  C   UNL     1       7.979  25.522  56.832  1.00  0.00     0.277 C 
HETATM   16  N   UNL     1       7.626  25.148  55.551  1.00  0.00    -0.322 N 
HETATM   17  H   UNL     1       7.277  25.925  54.993  1.00  0.00     0.169 HD
HETATM   18  O   UNL     1       8.422  24.790  57.711  1.00  0.00    -0.266 OA
BRANCH  16  19
HETATM   19  C   UNL     1       7.711  23.881  54.950  1.00  0.00     0.037 A 
HETATM   20  C   UNL     1       7.600  22.680  55.650  1.00  0.00     0.071 A 
HETATM   21  C   UNL     1       7.707  21.470  54.967  1.00  0.00     0.118 A 
HETATM   22  F   UNL     1       7.602  20.320  55.645  1.00  0.00    -0.206 F 
HETATM   23  C   UNL     1       7.922  21.432  53.595  1.00  0.00     0.042 A 
HETATM   24  C   UNL     1       8.032  22.625  52.888  1.00  0.00     0.005 A 
HETATM   25  C   UNL     1       7.926  23.844  53.564  1.00  0.00     0.029 A 
ENDBRANCH  16  19
ENDBRANCH   7  15
BRANCH   1  26
HETATM   26  O   UNL     1       2.893  32.946  57.545  1.00  0.00    -0.356 OA
HETATM   27  C   UNL     1       3.117  34.210  58.157  1.00  0.00     0.210 C 
ENDBRANCH   1  26
TORSDOF 3
ENDMDL
MODEL 10
REMARK VINA RESULT:      -8.7      5.335     11.315
REMARK  3 active torsions:
REMARK  status: ('A' for Active; 'I' for Inactive)
REMARK    1  A    between atoms: O_2  and  C_3 
REMARK    2  A    between atoms: C_9  and  C_10 
REMARK       I    between atoms: C_10  and  N_11 
REMARK    3  A    between atoms: N_11  and  C_12 
ROOT
HETATM    1  C   UNL     1       7.625  22.186  53.928  1.00  0.00     0.068 A 
HETATM    2  C   UNL     1       7.819  22.554  55.262  1.00  0.00     0.044 A 
HETATM    3  C   UNL     1       7.806  23.902  55.644  1.00  0.00    -0.043 A 
HETATM    4  C   UNL     1       7.621  24.897  54.657  1.00  0.00    -0.001 A 
HETATM    5  C   UNL     1       7.602  26.273  55.123  1.00  0.00     0.069 A 
HETATM    6  C   UNL     1       7.538  26.645  56.447  1.00  0.00     0.007 A 
HETATM    7  C   UNL     1       7.511  28.061  56.446  1.00  0.00     0.153 A 
HETATM    8  N   UNL     1       7.585  28.539  55.180  1.00  0.00    -0.168 NA
HETATM    9  N   UNL     1       7.640  27.431  54.412  1.00  0.00    -0.276 N 
HETATM   10  H   UNL     1       7.705  27.545  53.406  1.00  0.00     0.189 HD
HETATM   11  C   UNL     1       7.461  25.635  57.537  1.00  0.00     0.048 C 
HETATM   12  C   UNL     1       8.086  24.290  57.092  1.00  0.00     0.044 C 
HETATM   13  C   UNL     1       7.433  24.529  53.325  1.00  0.00     0.017 A 
HETATM   14  C   UNL     1       7.433  23.177  52.963  1.00  0.00     0.037 A 
ENDROOT
BRANCH   7  15
HETATM   15  C   UNL     1       7.397  28.971  57.605  1.00  0.00     0.277 C 
HETATM   16  N   UNL     1       6.417  29.924  57.406  1.00  0.00    -0.322 N 
HETATM   17  H   UNL     1       5.959  29.838  56.500  1.00  0.00     0.169 HD
HETATM   18  O   UNL     1       8.104  28.848  58.600  1.00  0.00    -0.266 OA
BRANCH  16  19
HETATM   19  C   UNL     1       5.985  30.936  58.278  1.00  0.00     0.037 A 
HETATM   20  C   UNL     1       4.658  31.348  58.394  1.00  0.00     0.071 A 
HETATM   21  C   UNL     1       4.328  32.370  59.282  1.00  0.00     0.118 A 
HETATM   22  F   UNL     1       3.052  32.764  59.388  1.00  0.00    -0.206 F 
HETATM   23  C   UNL     1       5.296  32.992  60.061  1.00  0.00     0.042 A 
HETATM   24  C   UNL     1       6.622  32.586  59.954  1.00  0.00     0.005 A 
HETATM   25  C   UNL     1       6.964  31.562  59.064  1.00  0.00     0.029 A 
ENDBRANCH  16  19
ENDBRANCH   7  15
BRANCH   1  26
HETATM   26  O   UNL     1       7.649  20.836  53.700  1.00  0.00    -0.356 OA
HETATM   27  C   UNL     1       8.514  20.371  52.672  1.00  0.00     0.210 C 
ENDBRANCH   1  26
TORSDOF 3
ENDMDL
