MODEL 1
REMARK VINA RESULT:     -11.2      0.000      0.000
REMARK  6 active torsions:
REMARK  status: ('A' for Active; 'I' for Inactive)
REMARK    1  A    between atoms: C_4  and  C_5 
REMARK    2  A    between atoms: C_7  and  N_8 
REMARK    3  A    between atoms: N_11  and  C_13 
REMARK    4  A    between atoms: C_13  and  C_14 
REMARK       I    between atoms: C_14  and  N_15 
REMARK    5  A    between atoms: N_15  and  N_16 
REMARK       I    between atoms: N_16  and  C_17 
REMARK    6  A    between atoms: C_17  and  C_18 
ROOT
HETATM    1  N   UNL     1       6.337  27.370  56.031  1.00  0.00    -0.357 N 
HETATM    2  C   UNL     1       6.112  28.789  55.714  1.00  0.00     0.152 C 
HETATM    3  C   UNL     1       7.379  29.613  56.031  1.00  0.00     0.255 C 
HETATM    4  N   UNL     1       7.791  29.393  57.492  1.00  0.00    -0.060 N 
HETATM    5  H   UNL     1       6.993  29.727  58.057  1.00  0.00     0.280 HD
HETATM    6  C   UNL     1       8.001  27.909  57.790  1.00  0.00     0.255 C 
HETATM    7  C   UNL     1       6.724  27.119  57.431  1.00  0.00     0.152 C 
ENDROOT
BRANCH   4   8
HETATM    8  C   UNL     1       8.964  30.272  57.914  1.00  0.00     0.338 C 
BRANCH   8   9
HETATM    9  C   UNL     1       8.587  31.140  59.118  1.00  0.00     0.262 C 
HETATM   10  N   UNL     1       7.661  30.581  59.972  1.00  0.00    -0.266 N 
HETATM   11  H   UNL     1       7.481  29.573  59.955  1.00  0.00     0.190 HD
HETATM   12  O   UNL     1       9.094  32.254  59.265  1.00  0.00    -0.270 OA
BRANCH  10  13
HETATM   13  N   UNL     1       7.589  31.108  61.277  1.00  0.00    -0.263 N 
HETATM   14  C   UNL     1       6.513  31.936  61.541  1.00  0.00     0.270 C 
HETATM   15  O   UNL     1       5.668  32.156  60.674  1.00  0.00    -0.266 OA
HETATM   16  H   UNL     1       8.373  30.951  61.907  1.00  0.00     0.190 HD
BRANCH  14  17
HETATM   17  C   UNL     1       6.429  32.566  62.886  1.00  0.00     0.033 A 
HETATM   18  C   UNL     1       7.564  32.875  63.648  1.00  0.00     0.018 A 
HETATM   19  C   UNL     1       7.419  33.456  64.913  1.00  0.00     0.020 A 
HETATM   20  C   UNL     1       6.145  33.724  65.416  1.00  0.00     0.011 A 
HETATM   21 BR   UNL     1       5.957  34.504  67.126  1.00  0.00    -0.051 Br
HETATM   22  C   UNL     1       5.012  33.412  64.670  1.00  0.00     0.020 A 
HETATM   23  C   UNL     1       5.154  32.830  63.407  1.00  0.00     0.018 A 
ENDBRANCH  14  17
ENDBRANCH  10  13
ENDBRANCH   8   9
ENDBRANCH   4   8
BRANCH   1  24
HETATM   24  C   UNL     1       6.842  26.515  55.086  1.00  0.00     0.169 A 
HETATM   25  N   UNL     1       7.077  25.244  55.331  1.00  0.00    -0.223 NA
HETATM   26  C   UNL     1       7.495  24.575  54.186  1.00  0.00     0.076 A 
HETATM   27  C   UNL     1       7.628  25.379  53.073  1.00  0.00     0.085 A 
HETATM   28  S   UNL     1       7.204  26.987  53.461  1.00  0.00    -0.062 SA
BRANCH  26  29
HETATM   29  C   UNL     1       7.720  23.133  54.183  1.00  0.00    -0.007 A 
HETATM   30  C   UNL     1       7.676  22.425  55.394  1.00  0.00     0.014 A 
HETATM   31  C   UNL     1       7.852  21.038  55.417  1.00  0.00     0.001 A 
HETATM   32  C   UNL     1       8.080  20.343  54.233  1.00  0.00     0.000 A 
HETATM   33  C   UNL     1       8.138  21.034  53.023  1.00  0.00     0.001 A 
HETATM   34  C   UNL     1       7.961  22.421  52.998  1.00  0.00     0.014 A 
ENDBRANCH  26  29
ENDBRANCH   1  24
TORSDOF 6
ENDMDL
MODEL 2
REMARK VINA RESULT:     -10.6      1.367      2.034
REMARK  6 active torsions:
REMARK  status: ('A' for Active; 'I' for Inactive)
REMARK    1  A    between atoms: C_4  and  C_5 
REMARK    2  A    between atoms: C_7  and  N_8 
REMARK    3  A    between atoms: N_11  and  C_13 
REMARK    4  A    between atoms: C_13  and  C_14 
REMARK       I    between atoms: C_14  and  N_15 
REMARK    5  A    between atoms: N_15  and  N_16 
REMARK       I    between atoms: N_16  and  C_17 
REMARK    6  A    between atoms: C_17  and  C_18 
ROOT
HETATM    1  N   UNL     1       7.233  28.431  55.467  1.00  0.00    -0.357 N 
HETATM    2  C   UNL     1       8.672  28.719  55.377  1.00  0.00     0.152 C 
HETATM    3  C   UNL     1       9.261  28.940  56.788  1.00  0.00     0.255 C 
HETATM    4  N   UNL     1       8.481  30.047  57.510  1.00  0.00    -0.060 N 
HETATM    5  H   UNL     1       8.605  30.894  56.931  1.00  0.00     0.280 HD
HETATM    6  C   UNL     1       6.989  29.722  57.571  1.00  0.00     0.255 C 
HETATM    7  C   UNL     1       6.449  29.479  56.145  1.00  0.00     0.152 C 
ENDROOT
BRANCH   4   8
HETATM    8  C   UNL     1       9.083  30.407  58.864  1.00  0.00     0.338 C 
BRANCH   8   9
HETATM    9  C   UNL     1       8.221  31.450  59.582  1.00  0.00     0.262 C 
HETATM   10  N   UNL     1       7.180  30.934  60.323  1.00  0.00    -0.266 N 
HETATM   11  H   UNL     1       7.178  29.948  60.601  1.00  0.00     0.190 HD
HETATM   12  O   UNL     1       8.472  32.651  59.467  1.00  0.00    -0.270 OA
BRANCH  10  13
HETATM   13  N   UNL     1       6.628  31.764  61.320  1.00  0.00    -0.263 N 
HETATM   14  C   UNL     1       7.282  31.771  62.539  1.00  0.00     0.270 C 
HETATM   15  O   UNL     1       8.303  31.103  62.702  1.00  0.00    -0.266 OA
HETATM   16  H   UNL     1       5.734  32.213  61.135  1.00  0.00     0.190 HD
BRANCH  14  17
HETATM   17  C   UNL     1       6.699  32.582  63.640  1.00  0.00     0.033 A 
HETATM   18  C   UNL     1       5.324  32.825  63.754  1.00  0.00     0.018 A 
HETATM   19  C   UNL     1       4.837  33.608  64.808  1.00  0.00     0.020 A 
HETATM   20  C   UNL     1       5.722  34.148  65.742  1.00  0.00     0.011 A 
HETATM   21 BR   UNL     1       5.059  35.208  67.158  1.00  0.00    -0.051 Br
HETATM   22  C   UNL     1       7.091  33.919  65.632  1.00  0.00     0.020 A 
HETATM   23  C   UNL     1       7.579  33.139  64.580  1.00  0.00     0.018 A 
ENDBRANCH  14  17
ENDBRANCH  10  13
ENDBRANCH   8   9
ENDBRANCH   4   8
BRANCH   1  24
HETATM   24  C   UNL     1       6.786  27.142  55.597  1.00  0.00     0.169 A 
HETATM   25  N   UNL     1       7.293  26.141  54.909  1.00  0.00    -0.223 NA
HETATM   26  C   UNL     1       6.733  24.926  55.292  1.00  0.00     0.076 A 
HETATM   27  C   UNL     1       5.746  25.031  56.250  1.00  0.00     0.085 A 
HETATM   28  S   UNL     1       5.532  26.666  56.690  1.00  0.00    -0.062 SA
BRANCH  26  29
HETATM   29  C   UNL     1       7.207  23.661  54.741  1.00  0.00    -0.007 A 
HETATM   30  C   UNL     1       7.440  23.551  53.362  1.00  0.00     0.014 A 
HETATM   31  C   UNL     1       7.929  22.363  52.812  1.00  0.00     0.001 A 
HETATM   32  C   UNL     1       8.184  21.267  53.632  1.00  0.00     0.000 A 
HETATM   33  C   UNL     1       7.947  21.356  55.003  1.00  0.00     0.001 A 
HETATM   34  C   UNL     1       7.459  22.545  55.555  1.00  0.00     0.014 A 
ENDBRANCH  26  29
ENDBRANCH   1  24
TORSDOF 6
ENDMDL
MODEL 3
REMARK VINA RESULT:     -10.1      1.372      1.994
REMARK  6 active torsions:
REMARK  status: ('A' for Active; 'I' for Inactive)
REMARK    1  A    between atoms: C_4  and  C_5 
REMARK    2  A    between atoms: C_7  and  N_8 
REMARK    3  A    between atoms: N_11  and  C_13 
REMARK    4  A    between atoms: C_13  and  C_14 
REMARK       I    between atoms: C_14  and  N_15 
REMARK    5  A    between atoms: N_15  and  N_16 
REMARK       I    between atoms: N_16  and  C_17 
REMARK    6  A    between atoms: C_17  and  C_18 
ROOT
HETATM    1  N   UNL     1       6.147  26.929  55.533  1.00  0.00    -0.357 N 
HETATM    2  C   UNL     1       6.125  28.298  54.996  1.00  0.00     0.152 C 
HETATM    3  C   UNL     1       7.559  28.868  54.930  1.00  0.00     0.255 C 
HETATM    4  N   UNL     1       8.215  28.787  56.314  1.00  0.00    -0.060 N 
HETATM    5  H   UNL     1       7.626  29.366  56.934  1.00  0.00     0.280 HD
HETATM    6  C   UNL     1       8.207  27.354  56.847  1.00  0.00     0.255 C 
HETATM    7  C   UNL     1       6.761  26.813  56.868  1.00  0.00     0.152 C 
ENDROOT
BRANCH   4   8
HETATM    8  C   UNL     1       9.591  29.445  56.356  1.00  0.00     0.338 C 
BRANCH   8   9
HETATM    9  C   UNL     1       9.751  30.288  57.625  1.00  0.00     0.262 C 
HETATM   10  N   UNL     1       8.648  31.038  57.969  1.00  0.00    -0.266 N 
HETATM   11  H   UNL     1       7.726  30.814  57.582  1.00  0.00     0.190 HD
HETATM   12  O   UNL     1      10.812  30.271  58.253  1.00  0.00    -0.270 OA
BRANCH  10  13
HETATM   13  N   UNL     1       8.565  31.486  59.303  1.00  0.00    -0.263 N 
HETATM   14  C   UNL     1       7.293  31.747  59.781  1.00  0.00     0.270 C 
HETATM   15  O   UNL     1       6.308  31.560  59.066  1.00  0.00    -0.266 OA
HETATM   16  H   UNL     1       9.429  31.700  59.797  1.00  0.00     0.190 HD
BRANCH  14  17
HETATM   17  C   UNL     1       7.161  32.282  61.162  1.00  0.00     0.033 A 
HETATM   18  C   UNL     1       6.100  33.108  61.555  1.00  0.00     0.018 A 
HETATM   19  C   UNL     1       6.038  33.590  62.868  1.00  0.00     0.020 A 
HETATM   20  C   UNL     1       7.036  33.251  63.783  1.00  0.00     0.011 A 
HETATM   21 BR   UNL     1       6.950  33.909  65.551  1.00  0.00    -0.051 Br
HETATM   22  C   UNL     1       8.099  32.438  63.399  1.00  0.00     0.020 A 
HETATM   23  C   UNL     1       8.164  31.957  62.088  1.00  0.00     0.018 A 
ENDBRANCH  14  17
ENDBRANCH  10  13
ENDBRANCH   8   9
ENDBRANCH   4   8
BRANCH   1  24
HETATM   24  C   UNL     1       6.282  25.853  54.694  1.00  0.00     0.169 A 
HETATM   25  N   UNL     1       6.979  24.784  55.015  1.00  0.00    -0.223 NA
HETATM   26  C   UNL     1       6.882  23.801  54.036  1.00  0.00     0.076 A 
HETATM   27  C   UNL     1       6.137  24.167  52.933  1.00  0.00     0.085 A 
HETATM   28  S   UNL     1       5.537  25.752  53.134  1.00  0.00    -0.062 SA
BRANCH  26  29
HETATM   29  C   UNL     1       7.487  22.485  54.213  1.00  0.00    -0.007 A 
HETATM   30  C   UNL     1       7.959  21.785  53.092  1.00  0.00     0.014 A 
HETATM   31  C   UNL     1       8.576  20.539  53.235  1.00  0.00     0.001 A 
HETATM   32  C   UNL     1       8.724  19.975  54.499  1.00  0.00     0.000 A 
HETATM   33  C   UNL     1       8.251  20.652  55.621  1.00  0.00     0.001 A 
HETATM   34  C   UNL     1       7.634  21.899  55.480  1.00  0.00     0.014 A 
ENDBRANCH  26  29
ENDBRANCH   1  24
TORSDOF 6
ENDMDL
MODEL 4
REMARK VINA RESULT:      -9.9      1.514      1.889
REMARK  6 active torsions:
REMARK  status: ('A' for Active; 'I' for Inactive)
REMARK    1  A    between atoms: C_4  and  C_5 
REMARK    2  A    between atoms: C_7  and  N_8 
REMARK    3  A    between atoms: N_11  and  C_13 
REMARK    4  A    between atoms: C_13  and  C_14 
REMARK       I    between atoms: C_14  and  N_15 
REMARK    5  A    between atoms: N_15  and  N_16 
REMARK       I    between atoms: N_16  and  C_17 
REMARK    6  A    between atoms: C_17  and  C_18 
ROOT
HETATM    1  N   UNL     1       5.210  27.074  55.531  1.00  0.00    -0.357 N 
HETATM    2  C   UNL     1       4.718  28.364  55.024  1.00  0.00     0.152 C 
HETATM    3  C   UNL     1       5.716  29.490  55.374  1.00  0.00     0.255 C 
HETATM    4  N   UNL     1       5.969  29.509  56.887  1.00  0.00    -0.060 N 
HETATM    5  H   UNL     1       5.049  29.695  57.319  1.00  0.00     0.280 HD
HETATM    6  C   UNL     1       6.464  28.150  57.382  1.00  0.00     0.255 C 
HETATM    7  C   UNL     1       5.455  27.051  56.985  1.00  0.00     0.152 C 
ENDROOT
BRANCH   4   8
HETATM    8  C   UNL     1       6.850  30.675  57.325  1.00  0.00     0.338 C 
BRANCH   8   9
HETATM    9  C   UNL     1       6.047  31.678  58.159  1.00  0.00     0.262 C 
HETATM   10  N   UNL     1       5.619  31.208  59.381  1.00  0.00    -0.266 N 
HETATM   11  H   UNL     1       6.054  30.381  59.802  1.00  0.00     0.190 HD
HETATM   12  O   UNL     1       5.819  32.808  57.723  1.00  0.00    -0.270 OA
BRANCH  10  13
HETATM   13  N   UNL     1       5.263  32.167  60.351  1.00  0.00    -0.263 N 
HETATM   14  C   UNL     1       6.122  32.294  61.428  1.00  0.00     0.270 C 
HETATM   15  O   UNL     1       7.147  31.615  61.490  1.00  0.00    -0.266 OA
HETATM   16  H   UNL     1       4.356  32.623  60.271  1.00  0.00     0.190 HD
BRANCH  14  17
HETATM   17  C   UNL     1       5.755  33.248  62.506  1.00  0.00     0.033 A 
HETATM   18  C   UNL     1       5.871  34.637  62.360  1.00  0.00     0.018 A 
HETATM   19  C   UNL     1       5.520  35.484  63.418  1.00  0.00     0.020 A 
HETATM   20  C   UNL     1       5.058  34.944  64.619  1.00  0.00     0.011 A 
HETATM   21 BR   UNL     1       4.590  36.092  66.045  1.00  0.00    -0.051 Br
HETATM   22  C   UNL     1       4.947  33.565  64.777  1.00  0.00     0.020 A 
HETATM   23  C   UNL     1       5.299  32.718  63.723  1.00  0.00     0.018 A 
ENDBRANCH  14  17
ENDBRANCH  10  13
ENDBRANCH   8   9
ENDBRANCH   4   8
BRANCH   1  24
HETATM   24  C   UNL     1       6.014  26.280  54.755  1.00  0.00     0.169 A 
HETATM   25  N   UNL     1       6.324  25.045  55.086  1.00  0.00    -0.223 NA
HETATM   26  C   UNL     1       7.072  24.425  54.089  1.00  0.00     0.076 A 
HETATM   27  C   UNL     1       7.371  25.236  53.015  1.00  0.00     0.085 A 
HETATM   28  S   UNL     1       6.693  26.785  53.246  1.00  0.00    -0.062 SA
BRANCH  26  29
HETATM   29  C   UNL     1       7.449  23.018  54.182  1.00  0.00    -0.007 A 
HETATM   30  C   UNL     1       7.787  22.316  53.016  1.00  0.00     0.014 A 
HETATM   31  C   UNL     1       8.188  20.978  53.078  1.00  0.00     0.001 A 
HETATM   32  C   UNL     1       8.248  20.324  54.306  1.00  0.00     0.000 A 
HETATM   33  C   UNL     1       7.904  21.005  55.472  1.00  0.00     0.001 A 
HETATM   34  C   UNL     1       7.504  22.343  55.412  1.00  0.00     0.014 A 
ENDBRANCH  26  29
ENDBRANCH   1  24
TORSDOF 6
ENDMDL
MODEL 5
REMARK VINA RESULT:      -9.8      4.791     11.487
REMARK  6 active torsions:
REMARK  status: ('A' for Active; 'I' for Inactive)
REMARK    1  A    between atoms: C_4  and  C_5 
REMARK    2  A    between atoms: C_7  and  N_8 
REMARK    3  A    between atoms: N_11  and  C_13 
REMARK    4  A    between atoms: C_13  and  C_14 
REMARK       I    between atoms: C_14  and  N_15 
REMARK    5  A    between atoms: N_15  and  N_16 
REMARK       I    between atoms: N_16  and  C_17 
REMARK    6  A    between atoms: C_17  and  C_18 
ROOT
HETATM    1  N   UNL     1       5.630  32.287  58.400  1.00  0.00    -0.357 N 
HETATM    2  C   UNL     1       4.864  32.792  57.251  1.00  0.00     0.152 C 
HETATM    3  C   UNL     1       3.934  31.688  56.703  1.00  0.00     0.255 C 
HETATM    4  N   UNL     1       4.755  30.437  56.362  1.00  0.00    -0.060 N 
HETATM    5  H   UNL     1       5.426  30.737  55.635  1.00  0.00     0.280 HD
HETATM    6  C   UNL     1       5.549  29.950  57.573  1.00  0.00     0.255 C 
HETATM    7  C   UNL     1       6.441  31.091  58.107  1.00  0.00     0.152 C 
ENDROOT
BRANCH   4   8
HETATM    8  C   UNL     1       3.922  29.346  55.699  1.00  0.00     0.338 C 
BRANCH   8   9
HETATM    9  C   UNL     1       4.822  28.241  55.137  1.00  0.00     0.262 C 
HETATM   10  N   UNL     1       4.855  27.082  55.882  1.00  0.00    -0.266 N 
HETATM   11  H   UNL     1       4.120  26.884  56.567  1.00  0.00     0.190 HD
HETATM   12  O   UNL     1       5.458  28.425  54.097  1.00  0.00    -0.270 OA
BRANCH  10  13
HETATM   13  N   UNL     1       5.299  25.912  55.232  1.00  0.00    -0.263 N 
HETATM   14  C   UNL     1       6.355  25.247  55.830  1.00  0.00     0.270 C 
HETATM   15  O   UNL     1       6.836  25.662  56.884  1.00  0.00    -0.266 OA
HETATM   16  H   UNL     1       4.909  25.687  54.320  1.00  0.00     0.190 HD
BRANCH  14  17
HETATM   17  C   UNL     1       6.899  24.044  55.147  1.00  0.00     0.033 A 
HETATM   18  C   UNL     1       7.354  22.918  55.846  1.00  0.00     0.018 A 
HETATM   19  C   UNL     1       7.868  21.820  55.146  1.00  0.00     0.020 A 
HETATM   20  C   UNL     1       7.928  21.848  53.752  1.00  0.00     0.011 A 
HETATM   21 BR   UNL     1       8.626  20.365  52.813  1.00  0.00    -0.051 Br
HETATM   22  C   UNL     1       7.486  22.966  53.049  1.00  0.00     0.020 A 
HETATM   23  C   UNL     1       6.976  24.065  53.746  1.00  0.00     0.018 A 
ENDBRANCH  14  17
ENDBRANCH  10  13
ENDBRANCH   8   9
ENDBRANCH   4   8
BRANCH   1  24
HETATM   24  C   UNL     1       5.135  32.402  59.673  1.00  0.00     0.169 A 
HETATM   25  N   UNL     1       5.907  32.605  60.720  1.00  0.00    -0.223 NA
HETATM   26  C   UNL     1       5.156  32.779  61.878  1.00  0.00     0.076 A 
HETATM   27  C   UNL     1       3.794  32.650  61.698  1.00  0.00     0.085 A 
HETATM   28  S   UNL     1       3.450  32.326  60.059  1.00  0.00    -0.062 SA
BRANCH  26  29
HETATM   29  C   UNL     1       5.784  33.119  63.151  1.00  0.00    -0.007 A 
HETATM   30  C   UNL     1       4.979  33.444  64.253  1.00  0.00     0.014 A 
HETATM   31  C   UNL     1       5.552  33.738  65.494  1.00  0.00     0.001 A 
HETATM   32  C   UNL     1       6.936  33.716  65.647  1.00  0.00     0.000 A 
HETATM   33  C   UNL     1       7.749  33.406  64.559  1.00  0.00     0.001 A 
HETATM   34  C   UNL     1       7.178  33.111  63.317  1.00  0.00     0.014 A 
ENDBRANCH  26  29
ENDBRANCH   1  24
TORSDOF 6
ENDMDL
MODEL 6
REMARK VINA RESULT:      -9.7      1.822      2.410
REMARK  6 active torsions:
REMARK  status: ('A' for Active; 'I' for Inactive)
REMARK    1  A    between atoms: C_4  and  C_5 
REMARK    2  A    between atoms: C_7  and  N_8 
REMARK    3  A    between atoms: N_11  and  C_13 
REMARK    4  A    between atoms: C_13  and  C_14 
REMARK       I    between atoms: C_14  and  N_15 
REMARK    5  A    between atoms: N_15  and  N_16 
REMARK       I    between atoms: N_16  and  C_17 
REMARK    6  A    between atoms: C_17  and  C_18 
ROOT
HETATM    1  N   UNL     1       7.719  27.304  56.127  1.00  0.00    -0.357 N 
HETATM    2  C   UNL     1       7.207  27.513  57.490  1.00  0.00     0.152 C 
HETATM    3  C   UNL     1       5.985  28.457  57.461  1.00  0.00     0.255 C 
HETATM    4  N   UNL     1       6.358  29.771  56.763  1.00  0.00    -0.060 N 
HETATM    5  H   UNL     1       7.116  30.181  57.332  1.00  0.00     0.280 HD
HETATM    6  C   UNL     1       6.900  29.515  55.357  1.00  0.00     0.255 C 
HETATM    7  C   UNL     1       8.099  28.545  55.428  1.00  0.00     0.152 C 
ENDROOT
BRANCH   4   8
HETATM    8  C   UNL     1       5.235  30.802  56.806  1.00  0.00     0.338 C 
BRANCH   8   9
HETATM    9  C   UNL     1       5.298  31.620  58.099  1.00  0.00     0.262 C 
HETATM   10  N   UNL     1       4.278  31.376  58.993  1.00  0.00    -0.266 N 
HETATM   11  H   UNL     1       3.717  30.523  58.920  1.00  0.00     0.190 HD
HETATM   12  O   UNL     1       6.209  32.431  58.279  1.00  0.00    -0.270 OA
BRANCH  10  13
HETATM   13  N   UNL     1       4.494  31.753  60.334  1.00  0.00    -0.263 N 
HETATM   14  C   UNL     1       3.569  32.626  60.878  1.00  0.00     0.270 C 
HETATM   15  O   UNL     1       2.606  33.009  60.213  1.00  0.00    -0.266 OA
HETATM   16  H   UNL     1       5.359  31.465  60.785  1.00  0.00     0.190 HD
BRANCH  14  17
HETATM   17  C   UNL     1       3.790  33.101  62.269  1.00  0.00     0.033 A 
HETATM   18  C   UNL     1       2.914  33.983  62.916  1.00  0.00     0.018 A 
HETATM   19  C   UNL     1       3.184  34.404  64.224  1.00  0.00     0.020 A 
HETATM   20  C   UNL     1       4.327  33.947  64.881  1.00  0.00     0.011 A 
HETATM   21 BR   UNL     1       4.688  34.522  66.644  1.00  0.00    -0.051 Br
HETATM   22  C   UNL     1       5.208  33.077  64.243  1.00  0.00     0.020 A 
HETATM   23  C   UNL     1       4.942  32.658  62.937  1.00  0.00     0.018 A 
ENDBRANCH  14  17
ENDBRANCH  10  13
ENDBRANCH   8   9
ENDBRANCH   4   8
BRANCH   1  24
HETATM   24  C   UNL     1       7.243  26.278  55.353  1.00  0.00     0.169 A 
HETATM   25  N   UNL     1       7.861  25.121  55.248  1.00  0.00    -0.223 NA
HETATM   26  C   UNL     1       7.128  24.221  54.482  1.00  0.00     0.076 A 
HETATM   27  C   UNL     1       5.961  24.738  53.957  1.00  0.00     0.085 A 
HETATM   28  S   UNL     1       5.771  26.362  54.446  1.00  0.00    -0.062 SA
BRANCH  26  29
HETATM   29  C   UNL     1       7.560  22.838  54.307  1.00  0.00    -0.007 A 
HETATM   30  C   UNL     1       7.712  22.014  55.432  1.00  0.00     0.014 A 
HETATM   31  C   UNL     1       8.089  20.675  55.293  1.00  0.00     0.001 A 
HETATM   32  C   UNL     1       8.325  20.146  54.027  1.00  0.00     0.000 A 
HETATM   33  C   UNL     1       8.189  20.954  52.900  1.00  0.00     0.001 A 
HETATM   34  C   UNL     1       7.811  22.293  53.038  1.00  0.00     0.014 A 
ENDBRANCH  26  29
ENDBRANCH   1  24
TORSDOF 6
ENDMDL
MODEL 7
REMARK VINA RESULT:      -9.6      6.971     10.412
REMARK  6 active torsions:
REMARK  status: ('A' for Active; 'I' for Inactive)
REMARK    1  A    between atoms: C_4  and  C_5 
REMARK    2  A    between atoms: C_7  and  N_8 
REMARK    3  A    between atoms: N_11  and  C_13 
REMARK    4  A    between atoms: C_13  and  C_14 
REMARK       I    between atoms: C_14  and  N_15 
REMARK    5  A    between atoms: N_15  and  N_16 
REMARK       I    between atoms: N_16  and  C_17 
REMARK    6  A    between atoms: C_17  and  C_18 
ROOT
HETATM    1  N   UNL     1       7.550  27.750  54.954  1.00  0.00    -0.357 N 
HETATM    2  C   UNL     1       7.274  28.930  55.787  1.00  0.00     0.152 C 
HETATM    3  C   UNL     1       5.763  29.249  55.776  1.00  0.00     0.255 C 
HETATM    4  N   UNL     1       5.278  29.420  54.330  1.00  0.00    -0.060 N 
HETATM    5  H   UNL     1       5.817  30.216  53.950  1.00  0.00     0.280 HD
HETATM    6  C   UNL     1       5.595  28.183  53.491  1.00  0.00     0.255 C 
HETATM    7  C   UNL     1       7.108  27.883  53.554  1.00  0.00     0.152 C 
ENDROOT
BRANCH   4   8
HETATM    8  C   UNL     1       3.820  29.859  54.244  1.00  0.00     0.338 C 
BRANCH   8   9
HETATM    9  C   UNL     1       3.344  29.879  52.788  1.00  0.00     0.262 C 
HETATM   10  N   UNL     1       2.690  28.739  52.374  1.00  0.00    -0.266 N 
HETATM   11  H   UNL     1       2.304  28.083  53.060  1.00  0.00     0.190 HD
HETATM   12  O   UNL     1       3.561  30.861  52.076  1.00  0.00    -0.270 OA
BRANCH  10  13
HETATM   13  N   UNL     1       1.874  28.845  51.230  1.00  0.00    -0.263 N 
HETATM   14  C   UNL     1       2.425  28.391  50.044  1.00  0.00     0.270 C 
HETATM   15  O   UNL     1       3.553  27.899  50.029  1.00  0.00    -0.266 OA
HETATM   16  H   UNL     1       0.990  29.344  51.309  1.00  0.00     0.190 HD
BRANCH  14  17
HETATM   17  C   UNL     1       1.625  28.541  48.800  1.00  0.00     0.033 A 
HETATM   18  C   UNL     1       1.128  29.777  48.365  1.00  0.00     0.018 A 
HETATM   19  C   UNL     1       0.370  29.851  47.190  1.00  0.00     0.020 A 
HETATM   20  C   UNL     1       0.108  28.695  46.455  1.00  0.00     0.011 A 
HETATM   21 BR   UNL     1      -0.919  28.801  44.873  1.00  0.00    -0.051 Br
HETATM   22  C   UNL     1       0.590  27.461  46.884  1.00  0.00     0.020 A 
HETATM   23  C   UNL     1       1.345  27.384  48.058  1.00  0.00     0.018 A 
ENDBRANCH  14  17
ENDBRANCH  10  13
ENDBRANCH   8   9
ENDBRANCH   4   8
BRANCH   1  24
HETATM   24  C   UNL     1       7.522  26.492  55.496  1.00  0.00     0.169 A 
HETATM   25  N   UNL     1       7.581  25.400  54.763  1.00  0.00    -0.223 NA
HETATM   26  C   UNL     1       7.630  24.258  55.555  1.00  0.00     0.076 A 
HETATM   27  C   UNL     1       7.551  24.501  56.910  1.00  0.00     0.085 A 
HETATM   28  S   UNL     1       7.434  26.180  57.196  1.00  0.00    -0.062 SA
BRANCH  26  29
HETATM   29  C   UNL     1       7.801  22.931  54.971  1.00  0.00    -0.007 A 
HETATM   30  C   UNL     1       7.935  21.818  55.814  1.00  0.00     0.014 A 
HETATM   31  C   UNL     1       8.063  20.531  55.283  1.00  0.00     0.001 A 
HETATM   32  C   UNL     1       8.066  20.342  53.904  1.00  0.00     0.000 A 
HETATM   33  C   UNL     1       7.946  21.439  53.053  1.00  0.00     0.001 A 
HETATM   34  C   UNL     1       7.816  22.727  53.582  1.00  0.00     0.014 A 
ENDBRANCH  26  29
ENDBRANCH   1  24
TORSDOF 6
ENDMDL
MODEL 8
REMARK VINA RESULT:      -9.4      1.874      2.282
REMARK  6 active torsions:
REMARK  status: ('A' for Active; 'I' for Inactive)
REMARK    1  A    between atoms: C_4  and  C_5 
REMARK    2  A    between atoms: C_7  and  N_8 
REMARK    3  A    between atoms: N_11  and  C_13 
REMARK    4  A    between atoms: C_13  and  C_14 
REMARK       I    between atoms: C_14  and  N_15 
REMARK    5  A    between atoms: N_15  and  N_16 
REMARK       I    between atoms: N_16  and  C_17 
REMARK    6  A    between atoms: C_17  and  C_18 
ROOT
HETATM    1  N   UNL     1       6.596  27.928  54.100  1.00  0.00    -0.357 N 
HETATM    2  C   UNL     1       7.961  28.438  54.300  1.00  0.00     0.152 C 
HETATM    3  C   UNL     1       8.422  28.173  55.750  1.00  0.00     0.255 C 
HETATM    4  N   UNL     1       7.414  28.780  56.735  1.00  0.00    -0.060 N 
HETATM    5  H   UNL     1       7.411  29.794  56.538  1.00  0.00     0.280 HD
HETATM    6  C   UNL     1       6.006  28.240  56.489  1.00  0.00     0.255 C 
HETATM    7  C   UNL     1       5.597  28.498  55.023  1.00  0.00     0.152 C 
ENDROOT
BRANCH   4   8
HETATM    8  C   UNL     1       7.866  28.666  58.188  1.00  0.00     0.338 C 
BRANCH   8   9
HETATM    9  C   UNL     1       7.937  30.048  58.844  1.00  0.00     0.262 C 
HETATM   10  N   UNL     1       6.718  30.649  59.070  1.00  0.00    -0.266 N 
HETATM   11  H   UNL     1       5.857  30.094  59.071  1.00  0.00     0.190 HD
HETATM   12  O   UNL     1       9.028  30.549  59.124  1.00  0.00    -0.270 OA
BRANCH  10  13
HETATM   13  N   UNL     1       6.678  31.686  60.023  1.00  0.00    -0.263 N 
HETATM   14  C   UNL     1       5.515  32.434  60.062  1.00  0.00     0.270 C 
HETATM   15  O   UNL     1       4.575  32.165  59.315  1.00  0.00    -0.266 OA
HETATM   16  H   UNL     1       7.528  31.901  60.541  1.00  0.00     0.190 HD
BRANCH  14  17
HETATM   17  C   UNL     1       5.452  33.579  61.009  1.00  0.00     0.033 A 
HETATM   18  C   UNL     1       6.293  33.685  62.124  1.00  0.00     0.018 A 
HETATM   19  C   UNL     1       6.177  34.782  62.987  1.00  0.00     0.020 A 
HETATM   20  C   UNL     1       5.221  35.767  62.736  1.00  0.00     0.011 A 
HETATM   21 BR   UNL     1       5.065  37.242  63.906  1.00  0.00    -0.051 Br
HETATM   22  C   UNL     1       4.375  35.666  61.635  1.00  0.00     0.020 A 
HETATM   23  C   UNL     1       4.488  34.571  60.774  1.00  0.00     0.018 A 
ENDBRANCH  14  17
ENDBRANCH  10  13
ENDBRANCH   8   9
ENDBRANCH   4   8
BRANCH   1  24
HETATM   24  C   UNL     1       6.387  26.640  53.680  1.00  0.00     0.169 A 
HETATM   25  N   UNL     1       7.137  25.633  54.075  1.00  0.00    -0.223 NA
HETATM   26  C   UNL     1       6.661  24.422  53.582  1.00  0.00     0.076 A 
HETATM   27  C   UNL     1       5.562  24.535  52.757  1.00  0.00     0.085 A 
HETATM   28  S   UNL     1       5.107  26.174  52.612  1.00  0.00    -0.062 SA
BRANCH  26  29
HETATM   29  C   UNL     1       7.268  23.151  53.966  1.00  0.00    -0.007 A 
HETATM   30  C   UNL     1       7.774  22.300  52.973  1.00  0.00     0.014 A 
HETATM   31  C   UNL     1       8.393  21.093  53.313  1.00  0.00     0.001 A 
HETATM   32  C   UNL     1       8.507  20.720  54.650  1.00  0.00     0.000 A 
HETATM   33  C   UNL     1       7.999  21.550  55.648  1.00  0.00     0.001 A 
HETATM   34  C   UNL     1       7.381  22.758  55.309  1.00  0.00     0.014 A 
ENDBRANCH  26  29
ENDBRANCH   1  24
TORSDOF 6
ENDMDL
MODEL 9
REMARK VINA RESULT:      -9.3      2.028      3.077
REMARK  6 active torsions:
REMARK  status: ('A' for Active; 'I' for Inactive)
REMARK    1  A    between atoms: C_4  and  C_5 
REMARK    2  A    between atoms: C_7  and  N_8 
REMARK    3  A    between atoms: N_11  and  C_13 
REMARK    4  A    between atoms: C_13  and  C_14 
REMARK       I    between atoms: C_14  and  N_15 
REMARK    5  A    between atoms: N_15  and  N_16 
REMARK       I    between atoms: N_16  and  C_17 
REMARK    6  A    between atoms: C_17  and  C_18 
ROOT
HETATM    1  N   UNL     1       7.053  27.619  53.288  1.00  0.00    -0.357 N 
HETATM    2  C   UNL     1       7.512  28.156  54.577  1.00  0.00     0.152 C 
HETATM    3  C   UNL     1       6.305  28.625  55.420  1.00  0.00     0.255 C 
HETATM    4  N   UNL     1       5.474  29.636  54.620  1.00  0.00    -0.060 N 
HETATM    5  H   UNL     1       6.110  30.428  54.431  1.00  0.00     0.280 HD
HETATM    6  C   UNL     1       5.028  29.050  53.282  1.00  0.00     0.255 C 
HETATM    7  C   UNL     1       6.259  28.568  52.486  1.00  0.00     0.152 C 
ENDROOT
BRANCH   4   8
HETATM    8  C   UNL     1       4.333  30.238  55.434  1.00  0.00     0.338 C 
BRANCH   8   9
HETATM    9  C   UNL     1       4.749  30.425  56.897  1.00  0.00     0.262 C 
HETATM   10  N   UNL     1       5.441  31.587  57.161  1.00  0.00    -0.266 N 
HETATM   11  H   UNL     1       5.409  32.372  56.504  1.00  0.00     0.190 HD
HETATM   12  O   UNL     1       4.470  29.568  57.737  1.00  0.00    -0.270 OA
BRANCH  10  13
HETATM   13  N   UNL     1       5.479  32.023  58.501  1.00  0.00    -0.263 N 
HETATM   14  C   UNL     1       6.721  32.018  59.109  1.00  0.00     0.270 C 
HETATM   15  O   UNL     1       7.722  31.676  58.478  1.00  0.00    -0.266 OA
HETATM   16  H   UNL     1       4.597  32.203  58.977  1.00  0.00     0.190 HD
BRANCH  14  17
HETATM   17  C   UNL     1       6.800  32.409  60.541  1.00  0.00     0.033 A 
HETATM   18  C   UNL     1       5.767  33.092  61.196  1.00  0.00     0.018 A 
HETATM   19  C   UNL     1       5.907  33.444  62.544  1.00  0.00     0.020 A 
HETATM   20  C   UNL     1       7.076  33.118  63.233  1.00  0.00     0.011 A 
HETATM   21 BR   UNL     1       7.260  33.600  65.050  1.00  0.00    -0.051 Br
HETATM   22  C   UNL     1       8.111  32.447  62.587  1.00  0.00     0.020 A 
HETATM   23  C   UNL     1       7.975  32.096  61.241  1.00  0.00     0.018 A 
ENDBRANCH  14  17
ENDBRANCH  10  13
ENDBRANCH   8   9
ENDBRANCH   4   8
BRANCH   1  24
HETATM   24  C   UNL     1       6.747  26.289  53.155  1.00  0.00     0.169 A 
HETATM   25  N   UNL     1       7.457  25.336  53.721  1.00  0.00    -0.223 NA
HETATM   26  C   UNL     1       6.885  24.085  53.513  1.00  0.00     0.076 A 
HETATM   27  C   UNL     1       5.752  24.101  52.727  1.00  0.00     0.085 A 
HETATM   28  S   UNL     1       5.387  25.702  52.260  1.00  0.00    -0.062 SA
BRANCH  26  29
HETATM   29  C   UNL     1       7.436  22.883  54.130  1.00  0.00    -0.007 A 
HETATM   30  C   UNL     1       7.578  22.824  55.524  1.00  0.00     0.014 A 
HETATM   31  C   UNL     1       8.068  21.672  56.146  1.00  0.00     0.001 A 
HETATM   32  C   UNL     1       8.429  20.567  55.380  1.00  0.00     0.000 A 
HETATM   33  C   UNL     1       8.305  20.613  53.993  1.00  0.00     0.001 A 
HETATM   34  C   UNL     1       7.814  21.764  53.370  1.00  0.00     0.014 A 
ENDBRANCH  26  29
ENDBRANCH   1  24
TORSDOF 6
ENDMDL
MODEL 10
REMARK VINA RESULT:      -9.2      3.844      5.131
REMARK  6 active torsions:
REMARK  status: ('A' for Active; 'I' for Inactive)
REMARK    1  A    between atoms: C_4  and  C_5 
REMARK    2  A    between atoms: C_7  and  N_8 
REMARK    3  A    between atoms: N_11  and  C_13 
REMARK    4  A    between atoms: C_13  and  C_14 
REMARK       I    between atoms: C_14  and  N_15 
REMARK    5  A    between atoms: N_15  and  N_16 
REMARK       I    between atoms: N_16  and  C_17 
REMARK    6  A    between atoms: C_17  and  C_18 
ROOT
HETATM    1  N   UNL     1       4.339  28.118  54.328  1.00  0.00    -0.357 N 
HETATM    2  C   UNL     1       4.326  28.993  55.511  1.00  0.00     0.152 C 
HETATM    3  C   UNL     1       5.714  29.642  55.708  1.00  0.00     0.255 C 
HETATM    4  N   UNL     1       6.791  28.553  55.791  1.00  0.00    -0.060 N 
HETATM    5  H   UNL     1       6.542  27.980  56.613  1.00  0.00     0.280 HD
HETATM    6  C   UNL     1       6.765  27.655  54.555  1.00  0.00     0.255 C 
HETATM    7  C   UNL     1       5.356  27.051  54.377  1.00  0.00     0.152 C 
ENDROOT
BRANCH   4   8
HETATM    8  C   UNL     1       8.174  29.113  56.109  1.00  0.00     0.338 C 
BRANCH   8   9
HETATM    9  C   UNL     1       8.365  29.258  57.622  1.00  0.00     0.262 C 
HETATM   10  N   UNL     1       8.912  30.456  58.028  1.00  0.00    -0.266 N 
HETATM   11  H   UNL     1       8.905  31.268  57.404  1.00  0.00     0.190 HD
HETATM   12  O   UNL     1       8.047  28.340  58.381  1.00  0.00    -0.270 OA
BRANCH  10  13
HETATM   13  N   UNL     1       8.726  30.825  59.376  1.00  0.00    -0.263 N 
HETATM   14  C   UNL     1       7.776  31.801  59.615  1.00  0.00     0.270 C 
HETATM   15  O   UNL     1       7.124  32.278  58.686  1.00  0.00    -0.266 OA
HETATM   16  H   UNL     1       9.365  30.449  60.073  1.00  0.00     0.190 HD
BRANCH  14  17
HETATM   17  C   UNL     1       7.590  32.267  61.015  1.00  0.00     0.033 A 
HETATM   18  C   UNL     1       8.467  31.918  62.051  1.00  0.00     0.018 A 
HETATM   19  C   UNL     1       8.231  32.379  63.352  1.00  0.00     0.020 A 
HETATM   20  C   UNL     1       7.121  33.182  63.616  1.00  0.00     0.011 A 
HETATM   21 BR   UNL     1       6.806  33.796  65.374  1.00  0.00    -0.051 Br
HETATM   22  C   UNL     1       6.240  33.527  62.595  1.00  0.00     0.020 A 
HETATM   23  C   UNL     1       6.472  33.067  61.296  1.00  0.00     0.018 A 
ENDBRANCH  14  17
ENDBRANCH  10  13
ENDBRANCH   8   9
ENDBRANCH   4   8
BRANCH   1  24
HETATM   24  C   UNL     1       4.020  28.613  53.091  1.00  0.00     0.169 A 
HETATM   25  N   UNL     1       4.050  27.876  52.001  1.00  0.00    -0.223 NA
HETATM   26  C   UNL     1       3.594  28.586  50.895  1.00  0.00     0.076 A 
HETATM   27  C   UNL     1       3.269  29.901  51.157  1.00  0.00     0.085 A 
HETATM   28  S   UNL     1       3.517  30.245  52.810  1.00  0.00    -0.062 SA
BRANCH  26  29
HETATM   29  C   UNL     1       3.439  27.950  49.590  1.00  0.00    -0.007 A 
HETATM   30  C   UNL     1       4.407  27.037  49.148  1.00  0.00     0.014 A 
HETATM   31  C   UNL     1       4.266  26.385  47.919  1.00  0.00     0.001 A 
HETATM   32  C   UNL     1       3.158  26.644  47.115  1.00  0.00     0.000 A 
HETATM   33  C   UNL     1       2.194  27.557  47.536  1.00  0.00     0.001 A 
HETATM   34  C   UNL     1       2.333  28.209  48.765  1.00  0.00     0.014 A 
ENDBRANCH  26  29
ENDBRANCH   1  24
TORSDOF 6
ENDMDL
