MODEL 1
REMARK VINA RESULT:      -9.3      0.000      0.000
REMARK  5 active torsions:
REMARK  status: ('A' for Active; 'I' for Inactive)
REMARK    1  A    between atoms: C_2  and  C_3 
REMARK    2  A    between atoms: C_11  and  N_12 
REMARK       I    between atoms: N_12  and  C_13 
REMARK    3  A    between atoms: C_13  and  C_14 
REMARK    4  A    between atoms: C_16  and  O_17 
REMARK    5  A    between atoms: O_17  and  C_18 
ROOT
HETATM    1  N   UNL     1       7.822  30.978  60.963  1.00  0.00    -0.323 N 
HETATM    2  C   UNL     1       8.480  31.498  59.862  1.00  0.00     0.256 C 
HETATM    3  O   UNL     1       8.759  32.675  59.667  1.00  0.00    -0.267 OA
HETATM    4  H   UNL     1       7.600  29.993  60.958  1.00  0.00     0.169 HD
ENDROOT
BRANCH   1   5
HETATM    5  C   UNL     1       7.318  31.701  62.067  1.00  0.00     0.035 A 
HETATM    6  C   UNL     1       5.961  31.904  62.317  1.00  0.00     0.030 A 
HETATM    7  C   UNL     1       5.537  32.596  63.461  1.00  0.00     0.016 A 
HETATM    8  C   UNL     1       6.462  33.106  64.378  1.00  0.00    -0.005 A 
HETATM    9  C   UNL     1       7.825  32.924  64.109  1.00  0.00     0.016 A 
HETATM   10  C   UNL     1       8.248  32.227  62.970  1.00  0.00     0.030 A 
BRANCH   8  11
HETATM   11  C   UNL     1       6.025  33.800  65.595  1.00  0.00     0.088 A 
HETATM   12  N   UNL     1       6.896  34.167  66.553  1.00  0.00    -0.175 NA
HETATM   13  N   UNL     1       6.143  34.751  67.496  1.00  0.00    -0.289 N 
HETATM   14  H   UNL     1       6.606  35.111  68.324  1.00  0.00     0.188 HD
HETATM   15  C   UNL     1       4.817  34.775  67.198  1.00  0.00     0.111 A 
HETATM   16  C   UNL     1       4.701  34.168  65.973  1.00  0.00     0.053 A 
ENDBRANCH   8  11
ENDBRANCH   1   5
BRANCH   2  17
HETATM   17  C   UNL     1       8.854  30.518  58.802  1.00  0.00     0.037 A 
HETATM   18  C   UNL     1       7.956  29.485  58.533  1.00  0.00     0.075 A 
HETATM   19  C   UNL     1       8.277  28.587  57.537  1.00  0.00     0.165 A 
HETATM   20  N   UNL     1       9.412  28.642  56.811  1.00  0.00    -0.237 NA
HETATM   21  C   UNL     1      10.259  29.657  57.084  1.00  0.00     0.120 A 
HETATM   22  C   UNL     1      10.028  30.617  58.056  1.00  0.00     0.036 A 
BRANCH  19  23
HETATM   23  O   UNL     1       7.360  27.583  57.293  1.00  0.00    -0.329 OA
BRANCH  23  24
HETATM   24  C   UNL     1       7.861  26.403  56.634  1.00  0.00     0.130 C 
HETATM   25  C   UNL     1       8.348  25.238  57.536  1.00  0.00     0.032 C 
HETATM   26  C   UNL     1       7.689  24.271  56.536  1.00  0.00     0.005 C 
HETATM   27  C   UNL     1       6.760  25.430  56.134  1.00  0.00     0.032 C 
ENDBRANCH  23  24
ENDBRANCH  19  23
ENDBRANCH   2  17
TORSDOF 5
ENDMDL
MODEL 2
REMARK VINA RESULT:      -9.1      3.464     10.733
REMARK  5 active torsions:
REMARK  status: ('A' for Active; 'I' for Inactive)
REMARK    1  A    between atoms: C_2  and  C_3 
REMARK    2  A    between atoms: C_11  and  N_12 
REMARK       I    between atoms: N_12  and  C_13 
REMARK    3  A    between atoms: C_13  and  C_14 
REMARK    4  A    between atoms: C_16  and  O_17 
REMARK    5  A    between atoms: O_17  and  C_18 
ROOT
HETATM    1  N   UNL     1       7.396  27.406  56.802  1.00  0.00    -0.323 N 
HETATM    2  C   UNL     1       8.338  28.368  57.121  1.00  0.00     0.256 C 
HETATM    3  O   UNL     1       9.552  28.275  56.982  1.00  0.00    -0.267 OA
HETATM    4  H   UNL     1       6.432  27.594  57.033  1.00  0.00     0.169 HD
ENDROOT
BRANCH   1   5
HETATM    5  C   UNL     1       7.647  26.117  56.279  1.00  0.00     0.035 A 
HETATM    6  C   UNL     1       8.164  25.057  57.025  1.00  0.00     0.030 A 
HETATM    7  C   UNL     1       8.343  23.793  56.445  1.00  0.00     0.016 A 
HETATM    8  C   UNL     1       8.013  23.561  55.105  1.00  0.00    -0.005 A 
HETATM    9  C   UNL     1       7.520  24.635  54.353  1.00  0.00     0.016 A 
HETATM   10  C   UNL     1       7.335  25.897  54.934  1.00  0.00     0.030 A 
BRANCH   8  11
HETATM   11  C   UNL     1       8.164  22.231  54.503  1.00  0.00     0.088 A 
HETATM   12  N   UNL     1       8.622  21.182  55.210  1.00  0.00    -0.175 NA
HETATM   13  N   UNL     1       8.636  20.161  54.340  1.00  0.00    -0.289 N 
HETATM   14  H   UNL     1       8.951  19.255  54.670  1.00  0.00     0.188 HD
HETATM   15  C   UNL     1       8.213  20.502  53.094  1.00  0.00     0.111 A 
HETATM   16  C   UNL     1       7.898  21.835  53.161  1.00  0.00     0.053 A 
ENDBRANCH   8  11
ENDBRANCH   1   5
BRANCH   2  17
HETATM   17  C   UNL     1       7.809  29.627  57.718  1.00  0.00     0.037 A 
HETATM   18  C   UNL     1       8.715  30.458  58.379  1.00  0.00     0.075 A 
HETATM   19  C   UNL     1       8.244  31.639  58.913  1.00  0.00     0.165 A 
HETATM   20  N   UNL     1       6.958  32.036  58.844  1.00  0.00    -0.237 NA
HETATM   21  C   UNL     1       6.104  31.220  58.191  1.00  0.00     0.120 A 
HETATM   22  C   UNL     1       6.475  30.018  57.610  1.00  0.00     0.036 A 
BRANCH  19  23
HETATM   23  O   UNL     1       9.172  32.439  59.552  1.00  0.00    -0.329 OA
BRANCH  23  24
HETATM   24  C   UNL     1       9.239  32.323  60.987  1.00  0.00     0.130 C 
HETATM   25  C   UNL     1       7.907  32.448  61.773  1.00  0.00     0.032 C 
HETATM   26  C   UNL     1       8.409  31.310  62.682  1.00  0.00     0.005 C 
HETATM   27  C   UNL     1       9.301  30.862  61.510  1.00  0.00     0.032 C 
ENDBRANCH  23  24
ENDBRANCH  19  23
ENDBRANCH   2  17
TORSDOF 5
ENDMDL
MODEL 3
REMARK VINA RESULT:      -8.5     10.439     12.832
REMARK  5 active torsions:
REMARK  status: ('A' for Active; 'I' for Inactive)
REMARK    1  A    between atoms: C_2  and  C_3 
REMARK    2  A    between atoms: C_11  and  N_12 
REMARK       I    between atoms: N_12  and  C_13 
REMARK    3  A    between atoms: C_13  and  C_14 
REMARK    4  A    between atoms: C_16  and  O_17 
REMARK    5  A    between atoms: O_17  and  C_18 
ROOT
HETATM    1  N   UNL     1       6.260  26.562  51.900  1.00  0.00    -0.323 N 
HETATM    2  C   UNL     1       5.304  26.501  50.902  1.00  0.00     0.256 C 
HETATM    3  O   UNL     1       4.627  25.525  50.598  1.00  0.00    -0.267 OA
HETATM    4  H   UNL     1       6.789  27.416  51.995  1.00  0.00     0.169 HD
ENDROOT
BRANCH   1   5
HETATM    5  C   UNL     1       6.666  25.507  52.749  1.00  0.00     0.035 A 
HETATM    6  C   UNL     1       6.189  25.319  54.046  1.00  0.00     0.030 A 
HETATM    7  C   UNL     1       6.607  24.221  54.812  1.00  0.00     0.016 A 
HETATM    8  C   UNL     1       7.516  23.289  54.299  1.00  0.00    -0.005 A 
HETATM    9  C   UNL     1       8.014  23.497  53.006  1.00  0.00     0.016 A 
HETATM   10  C   UNL     1       7.592  24.591  52.239  1.00  0.00     0.030 A 
BRANCH   8  11
HETATM   11  C   UNL     1       7.930  22.119  55.082  1.00  0.00     0.088 A 
HETATM   12  N   UNL     1       8.336  22.230  56.360  1.00  0.00    -0.175 NA
HETATM   13  N   UNL     1       8.640  20.979  56.734  1.00  0.00    -0.289 N 
HETATM   14  H   UNL     1       8.972  20.829  57.681  1.00  0.00     0.188 HD
HETATM   15  C   UNL     1       8.457  20.057  55.753  1.00  0.00     0.111 A 
HETATM   16  C   UNL     1       7.996  20.758  54.667  1.00  0.00     0.053 A 
ENDBRANCH   8  11
ENDBRANCH   1   5
BRANCH   2  17
HETATM   17  C   UNL     1       5.109  27.746  50.107  1.00  0.00     0.037 A 
HETATM   18  C   UNL     1       4.287  27.671  48.982  1.00  0.00     0.075 A 
HETATM   19  C   UNL     1       4.076  28.822  48.252  1.00  0.00     0.165 A 
HETATM   20  N   UNL     1       4.625  30.016  48.555  1.00  0.00    -0.237 NA
HETATM   21  C   UNL     1       5.408  30.064  49.653  1.00  0.00     0.120 A 
HETATM   22  C   UNL     1       5.675  28.970  50.461  1.00  0.00     0.036 A 
BRANCH  19  23
HETATM   23  O   UNL     1       3.250  28.711  47.151  1.00  0.00    -0.329 OA
BRANCH  23  24
HETATM   24  C   UNL     1       1.865  28.411  47.416  1.00  0.00     0.130 C 
HETATM   25  C   UNL     1       0.807  29.048  46.476  1.00  0.00     0.032 C 
HETATM   26  C   UNL     1       0.046  27.711  46.529  1.00  0.00     0.005 C 
HETATM   27  C   UNL     1       1.389  27.039  46.866  1.00  0.00     0.032 C 
ENDBRANCH  23  24
ENDBRANCH  19  23
ENDBRANCH   2  17
TORSDOF 5
ENDMDL
MODEL 4
REMARK VINA RESULT:      -8.4      4.234     10.198
REMARK  5 active torsions:
REMARK  status: ('A' for Active; 'I' for Inactive)
REMARK    1  A    between atoms: C_2  and  C_3 
REMARK    2  A    between atoms: C_11  and  N_12 
REMARK       I    between atoms: N_12  and  C_13 
REMARK    3  A    between atoms: C_13  and  C_14 
REMARK    4  A    between atoms: C_16  and  O_17 
REMARK    5  A    between atoms: O_17  and  C_18 
ROOT
HETATM    1  N   UNL     1       8.006  27.953  57.286  1.00  0.00    -0.323 N 
HETATM    2  C   UNL     1       9.091  28.809  57.229  1.00  0.00     0.256 C 
HETATM    3  O   UNL     1      10.135  28.625  56.613  1.00  0.00    -0.267 OA
HETATM    4  H   UNL     1       7.237  28.205  57.889  1.00  0.00     0.169 HD
ENDROOT
BRANCH   1   5
HETATM    5  C   UNL     1       7.894  26.686  56.669  1.00  0.00     0.035 A 
HETATM    6  C   UNL     1       7.328  26.476  55.412  1.00  0.00     0.030 A 
HETATM    7  C   UNL     1       7.293  25.193  54.846  1.00  0.00     0.016 A 
HETATM    8  C   UNL     1       7.820  24.090  55.529  1.00  0.00    -0.005 A 
HETATM    9  C   UNL     1       8.362  24.302  56.803  1.00  0.00     0.016 A 
HETATM   10  C   UNL     1       8.402  25.585  57.365  1.00  0.00     0.030 A 
BRANCH   8  11
HETATM   11  C   UNL     1       7.818  22.752  54.928  1.00  0.00     0.088 A 
HETATM   12  N   UNL     1       7.685  21.640  55.675  1.00  0.00    -0.175 NA
HETATM   13  N   UNL     1       7.741  20.628  54.797  1.00  0.00    -0.289 N 
HETATM   14  H   UNL     1       7.658  19.681  55.152  1.00  0.00     0.188 HD
HETATM   15  C   UNL     1       7.915  21.030  53.510  1.00  0.00     0.111 A 
HETATM   16  C   UNL     1       7.967  22.401  53.555  1.00  0.00     0.053 A 
ENDBRANCH   8  11
ENDBRANCH   1   5
BRANCH   2  17
HETATM   17  C   UNL     1       8.976  30.064  58.025  1.00  0.00     0.037 A 
HETATM   18  C   UNL     1       7.704  30.436  58.462  1.00  0.00     0.075 A 
HETATM   19  C   UNL     1       7.586  31.580  59.222  1.00  0.00     0.165 A 
HETATM   20  N   UNL     1       8.625  32.369  59.562  1.00  0.00    -0.237 NA
HETATM   21  C   UNL     1       9.846  31.981  59.136  1.00  0.00     0.120 A 
HETATM   22  C   UNL     1      10.076  30.845  58.377  1.00  0.00     0.036 A 
BRANCH  19  23
HETATM   23  O   UNL     1       6.312  31.911  59.644  1.00  0.00    -0.329 OA
BRANCH  23  24
HETATM   24  C   UNL     1       5.264  31.808  58.659  1.00  0.00     0.130 C 
HETATM   25  C   UNL     1       3.814  32.096  59.132  1.00  0.00     0.032 C 
HETATM   26  C   UNL     1       3.593  32.833  57.798  1.00  0.00     0.005 C 
HETATM   27  C   UNL     1       5.115  33.056  57.748  1.00  0.00     0.032 C 
ENDBRANCH  23  24
ENDBRANCH  19  23
ENDBRANCH   2  17
TORSDOF 5
ENDMDL
MODEL 5
REMARK VINA RESULT:      -8.2     10.551     12.744
REMARK  5 active torsions:
REMARK  status: ('A' for Active; 'I' for Inactive)
REMARK    1  A    between atoms: C_2  and  C_3 
REMARK    2  A    between atoms: C_11  and  N_12 
REMARK       I    between atoms: N_12  and  C_13 
REMARK    3  A    between atoms: C_13  and  C_14 
REMARK    4  A    between atoms: C_16  and  O_17 
REMARK    5  A    between atoms: O_17  and  C_18 
ROOT
HETATM    1  N   UNL     1       6.262  26.644  51.519  1.00  0.00    -0.323 N 
HETATM    2  C   UNL     1       5.287  26.602  50.537  1.00  0.00     0.256 C 
HETATM    3  O   UNL     1       4.555  25.655  50.275  1.00  0.00    -0.267 OA
HETATM    4  H   UNL     1       6.837  27.471  51.578  1.00  0.00     0.169 HD
ENDROOT
BRANCH   1   5
HETATM    5  C   UNL     1       6.626  25.597  52.396  1.00  0.00     0.035 A 
HETATM    6  C   UNL     1       6.046  25.388  53.647  1.00  0.00     0.030 A 
HETATM    7  C   UNL     1       6.430  24.298  54.442  1.00  0.00     0.016 A 
HETATM    8  C   UNL     1       7.407  23.396  54.005  1.00  0.00    -0.005 A 
HETATM    9  C   UNL     1       8.006  23.626  52.760  1.00  0.00     0.016 A 
HETATM   10  C   UNL     1       7.618  24.711  51.963  1.00  0.00     0.030 A 
BRANCH   8  11
HETATM   11  C   UNL     1       7.787  22.234  54.817  1.00  0.00     0.088 A 
HETATM   12  N   UNL     1       8.047  22.344  56.132  1.00  0.00    -0.175 NA
HETATM   13  N   UNL     1       8.366  21.102  56.525  1.00  0.00    -0.289 N 
HETATM   14  H   UNL     1       8.600  20.953  57.501  1.00  0.00     0.188 HD
HETATM   15  C   UNL     1       8.333  20.188  55.520  1.00  0.00     0.111 A 
HETATM   16  C   UNL     1       7.961  20.884  54.397  1.00  0.00     0.053 A 
ENDBRANCH   8  11
ENDBRANCH   1   5
BRANCH   2  17
HETATM   17  C   UNL     1       5.146  27.830  49.705  1.00  0.00     0.037 A 
HETATM   18  C   UNL     1       5.741  29.001  50.176  1.00  0.00     0.075 A 
HETATM   19  C   UNL     1       5.640  30.139  49.403  1.00  0.00     0.165 A 
HETATM   20  N   UNL     1       4.993  30.191  48.221  1.00  0.00    -0.237 NA
HETATM   21  C   UNL     1       4.435  29.042  47.783  1.00  0.00     0.120 A 
HETATM   22  C   UNL     1       4.486  27.844  48.476  1.00  0.00     0.036 A 
BRANCH  19  23
HETATM   23  O   UNL     1       6.249  31.276  49.898  1.00  0.00    -0.329 OA
BRANCH  23  24
HETATM   24  C   UNL     1       5.771  32.535  49.383  1.00  0.00     0.130 C 
HETATM   25  C   UNL     1       5.892  33.774  50.310  1.00  0.00     0.032 C 
HETATM   26  C   UNL     1       6.297  34.586  49.066  1.00  0.00     0.005 C 
HETATM   27  C   UNL     1       6.767  33.261  48.439  1.00  0.00     0.032 C 
ENDBRANCH  23  24
ENDBRANCH  19  23
ENDBRANCH   2  17
TORSDOF 5
ENDMDL
MODEL 6
REMARK VINA RESULT:      -8.2      8.068     11.908
REMARK  5 active torsions:
REMARK  status: ('A' for Active; 'I' for Inactive)
REMARK    1  A    between atoms: C_2  and  C_3 
REMARK    2  A    between atoms: C_11  and  N_12 
REMARK       I    between atoms: N_12  and  C_13 
REMARK    3  A    between atoms: C_13  and  C_14 
REMARK    4  A    between atoms: C_16  and  O_17 
REMARK    5  A    between atoms: O_17  and  C_18 
ROOT
HETATM    1  N   UNL     1       5.749  26.389  53.440  1.00  0.00    -0.323 N 
HETATM    2  C   UNL     1       6.893  26.870  54.051  1.00  0.00     0.256 C 
HETATM    3  O   UNL     1       7.529  27.867  53.728  1.00  0.00    -0.267 OA
HETATM    4  H   UNL     1       5.367  25.516  53.773  1.00  0.00     0.169 HD
ENDROOT
BRANCH   1   5
HETATM    5  C   UNL     1       5.102  26.933  52.307  1.00  0.00     0.035 A 
HETATM    6  C   UNL     1       4.294  28.069  52.339  1.00  0.00     0.030 A 
HETATM    7  C   UNL     1       3.721  28.575  51.162  1.00  0.00     0.016 A 
HETATM    8  C   UNL     1       3.939  27.951  49.929  1.00  0.00    -0.005 A 
HETATM    9  C   UNL     1       4.728  26.794  49.907  1.00  0.00     0.016 A 
HETATM   10  C   UNL     1       5.306  26.293  51.081  1.00  0.00     0.030 A 
BRANCH   8  11
HETATM   11  C   UNL     1       3.372  28.496  48.690  1.00  0.00     0.088 A 
HETATM   12  N   UNL     1       4.017  29.428  47.965  1.00  0.00    -0.175 NA
HETATM   13  N   UNL     1       3.203  29.685  46.932  1.00  0.00    -0.289 N 
HETATM   14  H   UNL     1       3.500  30.371  46.246  1.00  0.00     0.188 HD
HETATM   15  C   UNL     1       2.049  28.966  46.955  1.00  0.00     0.111 A 
HETATM   16  C   UNL     1       2.124  28.183  48.079  1.00  0.00     0.053 A 
ENDBRANCH   8  11
ENDBRANCH   1   5
BRANCH   2  17
HETATM   17  C   UNL     1       7.407  26.069  55.199  1.00  0.00     0.037 A 
HETATM   18  C   UNL     1       7.788  24.751  54.946  1.00  0.00     0.075 A 
HETATM   19  C   UNL     1       8.291  24.007  55.992  1.00  0.00     0.165 A 
HETATM   20  N   UNL     1       8.427  24.474  57.250  1.00  0.00    -0.237 NA
HETATM   21  C   UNL     1       8.061  25.755  57.466  1.00  0.00     0.120 A 
HETATM   22  C   UNL     1       7.555  26.591  56.484  1.00  0.00     0.036 A 
BRANCH  19  23
HETATM   23  O   UNL     1       8.666  22.710  55.701  1.00  0.00    -0.329 OA
BRANCH  23  24
HETATM   24  C   UNL     1       7.930  22.049  54.652  1.00  0.00     0.130 C 
HETATM   25  C   UNL     1       8.656  21.844  53.296  1.00  0.00     0.032 C 
HETATM   26  C   UNL     1       8.004  20.451  53.230  1.00  0.00     0.005 C 
HETATM   27  C   UNL     1       7.903  20.501  54.765  1.00  0.00     0.032 C 
ENDBRANCH  23  24
ENDBRANCH  19  23
ENDBRANCH   2  17
TORSDOF 5
ENDMDL
MODEL 7
REMARK VINA RESULT:      -8.2      3.294      6.248
REMARK  5 active torsions:
REMARK  status: ('A' for Active; 'I' for Inactive)
REMARK    1  A    between atoms: C_2  and  C_3 
REMARK    2  A    between atoms: C_11  and  N_12 
REMARK       I    between atoms: N_12  and  C_13 
REMARK    3  A    between atoms: C_13  and  C_14 
REMARK    4  A    between atoms: C_16  and  O_17 
REMARK    5  A    between atoms: O_17  and  C_18 
ROOT
HETATM    1  N   UNL     1       7.323  28.231  55.504  1.00  0.00    -0.323 N 
HETATM    2  C   UNL     1       6.878  26.921  55.468  1.00  0.00     0.256 C 
HETATM    3  O   UNL     1       6.447  26.270  56.412  1.00  0.00    -0.267 OA
HETATM    4  H   UNL     1       7.715  28.620  54.660  1.00  0.00     0.169 HD
ENDROOT
BRANCH   1   5
HETATM    5  C   UNL     1       7.393  29.070  56.640  1.00  0.00     0.035 A 
HETATM    6  C   UNL     1       6.390  29.964  57.015  1.00  0.00     0.030 A 
HETATM    7  C   UNL     1       6.513  30.731  58.183  1.00  0.00     0.016 A 
HETATM    8  C   UNL     1       7.645  30.626  58.998  1.00  0.00    -0.005 A 
HETATM    9  C   UNL     1       8.662  29.747  58.602  1.00  0.00     0.016 A 
HETATM   10  C   UNL     1       8.536  28.976  57.439  1.00  0.00     0.030 A 
BRANCH   8  11
HETATM   11  C   UNL     1       7.764  31.400  60.239  1.00  0.00     0.088 A 
HETATM   12  N   UNL     1       8.749  31.167  61.126  1.00  0.00    -0.175 NA
HETATM   13  N   UNL     1       8.530  32.042  62.119  1.00  0.00    -0.289 N 
HETATM   14  H   UNL     1       9.169  32.042  62.907  1.00  0.00     0.188 HD
HETATM   15  C   UNL     1       7.440  32.830  61.921  1.00  0.00     0.111 A 
HETATM   16  C   UNL     1       6.919  32.444  60.712  1.00  0.00     0.053 A 
ENDBRANCH   8  11
ENDBRANCH   1   5
BRANCH   2  17
HETATM   17  C   UNL     1       6.967  26.238  54.146  1.00  0.00     0.037 A 
HETATM   18  C   UNL     1       7.644  25.019  54.094  1.00  0.00     0.075 A 
HETATM   19  C   UNL     1       7.710  24.363  52.883  1.00  0.00     0.165 A 
HETATM   20  N   UNL     1       7.167  24.833  51.741  1.00  0.00    -0.237 NA
HETATM   21  C   UNL     1       6.509  26.009  51.821  1.00  0.00     0.120 A 
HETATM   22  C   UNL     1       6.375  26.743  52.988  1.00  0.00     0.036 A 
BRANCH  19  23
HETATM   23  O   UNL     1       8.381  23.155  52.872  1.00  0.00    -0.329 OA
BRANCH  23  24
HETATM   24  C   UNL     1       7.905  22.150  53.789  1.00  0.00     0.130 C 
HETATM   25  C   UNL     1       7.883  20.682  53.286  1.00  0.00     0.032 C 
HETATM   26  C   UNL     1       8.376  20.262  54.683  1.00  0.00     0.005 C 
HETATM   27  C   UNL     1       8.958  21.679  54.827  1.00  0.00     0.032 C 
ENDBRANCH  23  24
ENDBRANCH  19  23
ENDBRANCH   2  17
TORSDOF 5
ENDMDL
MODEL 8
REMARK VINA RESULT:      -8.0      9.840     14.794
REMARK  5 active torsions:
REMARK  status: ('A' for Active; 'I' for Inactive)
REMARK    1  A    between atoms: C_2  and  C_3 
REMARK    2  A    between atoms: C_11  and  N_12 
REMARK       I    between atoms: N_12  and  C_13 
REMARK    3  A    between atoms: C_13  and  C_14 
REMARK    4  A    between atoms: C_16  and  O_17 
REMARK    5  A    between atoms: O_17  and  C_18 
ROOT
HETATM    1  N   UNL     1       3.175  27.543  49.886  1.00  0.00    -0.323 N 
HETATM    2  C   UNL     1       4.539  27.775  49.873  1.00  0.00     0.256 C 
HETATM    3  O   UNL     1       5.196  28.215  48.936  1.00  0.00    -0.267 OA
HETATM    4  H   UNL     1       2.778  27.114  50.709  1.00  0.00     0.169 HD
ENDROOT
BRANCH   1   5
HETATM    5  C   UNL     1       2.272  27.742  48.817  1.00  0.00     0.035 A 
HETATM    6  C   UNL     1       1.607  28.943  48.569  1.00  0.00     0.030 A 
HETATM    7  C   UNL     1       0.759  29.076  47.459  1.00  0.00     0.016 A 
HETATM    8  C   UNL     1       0.553  28.010  46.577  1.00  0.00    -0.005 A 
HETATM    9  C   UNL     1       1.201  26.797  46.847  1.00  0.00     0.016 A 
HETATM   10  C   UNL     1       2.053  26.666  47.952  1.00  0.00     0.030 A 
BRANCH   8  11
HETATM   11  C   UNL     1      -0.305  28.154  45.396  1.00  0.00     0.088 A 
HETATM   12  N   UNL     1      -0.650  27.096  44.638  1.00  0.00    -0.175 NA
HETATM   13  N   UNL     1      -1.414  27.608  43.662  1.00  0.00    -0.289 N 
HETATM   14  H   UNL     1      -1.790  26.973  42.966  1.00  0.00     0.188 HD
HETATM   15  C   UNL     1      -1.575  28.955  43.745  1.00  0.00     0.111 A 
HETATM   16  C   UNL     1      -0.873  29.344  44.857  1.00  0.00     0.053 A 
ENDBRANCH   8  11
ENDBRANCH   1   5
BRANCH   2  17
HETATM   17  C   UNL     1       5.274  27.422  51.120  1.00  0.00     0.037 A 
HETATM   18  C   UNL     1       5.430  26.067  51.416  1.00  0.00     0.075 A 
HETATM   19  C   UNL     1       6.131  25.725  52.553  1.00  0.00     0.165 A 
HETATM   20  N   UNL     1       6.669  26.622  53.403  1.00  0.00    -0.237 NA
HETATM   21  C   UNL     1       6.513  27.926  53.090  1.00  0.00     0.120 A 
HETATM   22  C   UNL     1       5.836  28.376  51.968  1.00  0.00     0.036 A 
BRANCH  19  23
HETATM   23  O   UNL     1       6.272  24.374  52.807  1.00  0.00    -0.329 OA
BRANCH  23  24
HETATM   24  C   UNL     1       7.574  23.936  53.243  1.00  0.00     0.130 C 
HETATM   25  C   UNL     1       7.735  23.564  54.741  1.00  0.00     0.032 C 
HETATM   26  C   UNL     1       8.619  22.387  54.289  1.00  0.00     0.005 C 
HETATM   27  C   UNL     1       7.886  22.447  52.936  1.00  0.00     0.032 C 
ENDBRANCH  23  24
ENDBRANCH  19  23
ENDBRANCH   2  17
TORSDOF 5
ENDMDL
MODEL 9
REMARK VINA RESULT:      -8.0     10.236     12.179
REMARK  5 active torsions:
REMARK  status: ('A' for Active; 'I' for Inactive)
REMARK    1  A    between atoms: C_2  and  C_3 
REMARK    2  A    between atoms: C_11  and  N_12 
REMARK       I    between atoms: N_12  and  C_13 
REMARK    3  A    between atoms: C_13  and  C_14 
REMARK    4  A    between atoms: C_16  and  O_17 
REMARK    5  A    between atoms: O_17  and  C_18 
ROOT
HETATM    1  N   UNL     1       5.805  26.389  52.069  1.00  0.00    -0.323 N 
HETATM    2  C   UNL     1       5.978  27.737  52.330  1.00  0.00     0.256 C 
HETATM    3  O   UNL     1       6.703  28.227  53.188  1.00  0.00    -0.267 OA
HETATM    4  H   UNL     1       5.123  26.127  51.374  1.00  0.00     0.169 HD
ENDROOT
BRANCH   1   5
HETATM    5  C   UNL     1       6.407  25.310  52.755  1.00  0.00     0.035 A 
HETATM    6  C   UNL     1       7.471  24.560  52.253  1.00  0.00     0.030 A 
HETATM    7  C   UNL     1       8.045  23.531  53.014  1.00  0.00     0.016 A 
HETATM    8  C   UNL     1       7.564  23.226  54.293  1.00  0.00    -0.005 A 
HETATM    9  C   UNL     1       6.478  23.963  54.781  1.00  0.00     0.016 A 
HETATM   10  C   UNL     1       5.908  24.995  54.023  1.00  0.00     0.030 A 
BRANCH   8  11
HETATM   11  C   UNL     1       8.183  22.174  55.108  1.00  0.00     0.088 A 
HETATM   12  N   UNL     1       8.030  22.132  56.444  1.00  0.00    -0.175 NA
HETATM   13  N   UNL     1       8.735  21.062  56.837  1.00  0.00    -0.289 N 
HETATM   14  H   UNL     1       8.755  20.838  57.826  1.00  0.00     0.188 HD
HETATM   15  C   UNL     1       9.350  20.408  55.815  1.00  0.00     0.111 A 
HETATM   16  C   UNL     1       9.014  21.099  54.679  1.00  0.00     0.053 A 
ENDBRANCH   8  11
ENDBRANCH   1   5
BRANCH   2  17
HETATM   17  C   UNL     1       5.173  28.672  51.494  1.00  0.00     0.037 A 
HETATM   18  C   UNL     1       4.663  28.185  50.290  1.00  0.00     0.075 A 
HETATM   19  C   UNL     1       3.894  29.032  49.519  1.00  0.00     0.165 A 
HETATM   20  N   UNL     1       3.612  30.307  49.855  1.00  0.00    -0.237 NA
HETATM   21  C   UNL     1       4.109  30.750  51.029  1.00  0.00     0.120 A 
HETATM   22  C   UNL     1       4.883  29.980  51.882  1.00  0.00     0.036 A 
BRANCH  19  23
HETATM   23  O   UNL     1       3.399  28.511  48.339  1.00  0.00    -0.329 OA
BRANCH  23  24
HETATM   24  C   UNL     1       3.039  27.115  48.355  1.00  0.00     0.130 C 
HETATM   25  C   UNL     1       1.961  26.648  47.342  1.00  0.00     0.032 C 
HETATM   26  C   UNL     1       2.802  25.376  47.129  1.00  0.00     0.005 C 
HETATM   27  C   UNL     1       4.024  26.191  47.590  1.00  0.00     0.032 C 
ENDBRANCH  23  24
ENDBRANCH  19  23
ENDBRANCH   2  17
TORSDOF 5
ENDMDL
MODEL 10
REMARK VINA RESULT:      -8.0     10.505     12.935
REMARK  5 active torsions:
REMARK  status: ('A' for Active; 'I' for Inactive)
REMARK    1  A    between atoms: C_2  and  C_3 
REMARK    2  A    between atoms: C_11  and  N_12 
REMARK       I    between atoms: N_12  and  C_13 
REMARK    3  A    between atoms: C_13  and  C_14 
REMARK    4  A    between atoms: C_16  and  O_17 
REMARK    5  A    between atoms: O_17  and  C_18 
ROOT
HETATM    1  N   UNL     1       6.483  26.456  52.214  1.00  0.00    -0.323 N 
HETATM    2  C   UNL     1       5.573  26.589  51.180  1.00  0.00     0.256 C 
HETATM    3  O   UNL     1       4.953  25.684  50.632  1.00  0.00    -0.267 OA
HETATM    4  H   UNL     1       6.970  27.283  52.524  1.00  0.00     0.169 HD
ENDROOT
BRANCH   1   5
HETATM    5  C   UNL     1       6.898  25.251  52.826  1.00  0.00     0.035 A 
HETATM    6  C   UNL     1       7.641  24.262  52.182  1.00  0.00     0.030 A 
HETATM    7  C   UNL     1       8.055  23.112  52.871  1.00  0.00     0.016 A 
HETATM    8  C   UNL     1       7.730  22.924  54.219  1.00  0.00    -0.005 A 
HETATM    9  C   UNL     1       6.960  23.908  54.854  1.00  0.00     0.016 A 
HETATM   10  C   UNL     1       6.552  25.059  54.167  1.00  0.00     0.030 A 
BRANCH   8  11
HETATM   11  C   UNL     1       8.189  21.741  54.955  1.00  0.00     0.088 A 
HETATM   12  N   UNL     1       8.552  20.611  54.323  1.00  0.00    -0.175 NA
HETATM   13  N   UNL     1       8.894  19.762  55.303  1.00  0.00    -0.289 N 
HETATM   14  H   UNL     1       9.208  18.833  55.045  1.00  0.00     0.188 HD
HETATM   15  C   UNL     1       8.762  20.288  56.550  1.00  0.00     0.111 A 
HETATM   16  C   UNL     1       8.309  21.570  56.365  1.00  0.00     0.053 A 
ENDBRANCH   8  11
ENDBRANCH   1   5
BRANCH   2  17
HETATM   17  C   UNL     1       5.359  27.974  50.673  1.00  0.00     0.037 A 
HETATM   18  C   UNL     1       5.208  28.141  49.296  1.00  0.00     0.075 A 
HETATM   19  C   UNL     1       4.981  29.414  48.816  1.00  0.00     0.165 A 
HETATM   20  N   UNL     1       4.906  30.510  49.597  1.00  0.00    -0.237 NA
HETATM   21  C   UNL     1       5.045  30.320  50.926  1.00  0.00     0.120 A 
HETATM   22  C   UNL     1       5.265  29.084  51.512  1.00  0.00     0.036 A 
BRANCH  19  23
HETATM   23  O   UNL     1       4.828  29.538  47.449  1.00  0.00    -0.329 OA
BRANCH  23  24
HETATM   24  C   UNL     1       4.194  30.746  46.982  1.00  0.00     0.130 C 
HETATM   25  C   UNL     1       4.699  31.342  45.642  1.00  0.00     0.032 C 
HETATM   26  C   UNL     1       3.231  31.656  45.300  1.00  0.00     0.005 C 
HETATM   27  C   UNL     1       2.837  30.521  46.262  1.00  0.00     0.032 C 
ENDBRANCH  23  24
ENDBRANCH  19  23
ENDBRANCH   2  17
TORSDOF 5
ENDMDL
