MODEL 1
REMARK VINA RESULT:      -9.5      0.000      0.000
REMARK  6 active torsions:
REMARK  status: ('A' for Active; 'I' for Inactive)
REMARK    1  A    between atoms: C_2  and  N_3 
REMARK    2  A    between atoms: C_2  and  C_15 
REMARK    3  A    between atoms: C_5  and  C_6 
REMARK       I    between atoms: C_15  and  N_16 
REMARK    4  A    between atoms: N_16  and  C_17 
REMARK    5  A    between atoms: C_20  and  O_21 
REMARK    6  A    between atoms: O_21  and  C_22 
ROOT
HETATM    1  C   UNL     1       6.054  26.734  55.791  1.00  0.00     0.253 C 
HETATM    2  N   UNL     1       6.632  27.955  55.505  1.00  0.00    -0.325 N 
HETATM    3  O   UNL     1       6.101  26.137  56.866  1.00  0.00    -0.271 OA
HETATM    4  H   UNL     1       6.491  28.362  54.588  1.00  0.00     0.169 HD
ENDROOT
BRANCH   1   5
HETATM    5  C   UNL     1       5.215  26.105  54.649  1.00  0.00     0.276 C 
HETATM    6  C   UNL     1       4.672  27.128  53.659  1.00  0.00     0.050 C 
BRANCH   5   7
HETATM    7  N   UNL     1       6.021  25.001  53.937  1.00  0.00    -0.049 N 
HETATM    8  H   UNL     1       5.773  24.146  54.464  1.00  0.00     0.281 HD
HETATM    9  C   UNL     1       7.532  25.051  54.048  1.00  0.00     0.238 C 
HETATM   10  C   UNL     1       7.959  25.667  52.716  1.00  0.00     0.041 C 
HETATM   11  C   UNL     1       6.882  25.294  51.704  1.00  0.00     0.030 C 
HETATM   12  C   UNL     1       5.686  24.787  52.491  1.00  0.00     0.237 C 
BRANCH   9  13
HETATM   13  C   UNL     1       8.094  23.672  54.261  1.00  0.00     0.042 A 
HETATM   14  N   UNL     1       8.654  23.227  55.448  1.00  0.00    -0.363 N 
HETATM   15  C   UNL     1       8.843  23.945  56.693  1.00  0.00     0.155 C 
HETATM   16  C   UNL     1       9.047  21.918  55.310  1.00  0.00     0.090 A 
HETATM   17  C   UNL     1       8.774  21.511  54.030  1.00  0.00     0.019 A 
HETATM   18  C   UNL     1       8.180  22.605  53.370  1.00  0.00     0.028 A 
ENDBRANCH   9  13
ENDBRANCH   5   7
ENDBRANCH   1   5
BRANCH   2  19
HETATM   19  C   UNL     1       7.399  28.760  56.381  1.00  0.00     0.035 A 
HETATM   20  C   UNL     1       8.791  28.717  56.471  1.00  0.00     0.032 A 
HETATM   21  C   UNL     1       9.466  29.532  57.387  1.00  0.00     0.039 A 
HETATM   22  C   UNL     1       8.762  30.408  58.213  1.00  0.00     0.076 A 
HETATM   23  C   UNL     1       7.371  30.453  58.135  1.00  0.00     0.039 A 
HETATM   24  C   UNL     1       6.695  29.639  57.218  1.00  0.00     0.032 A 
BRANCH  22  25
HETATM   25  O   UNL     1       9.520  31.118  59.116  1.00  0.00    -0.311 OA
BRANCH  25  26
HETATM   26  C   UNL     1       8.978  31.386  60.349  1.00  0.00     0.076 A 
HETATM   27  C   UNL     1       9.189  30.455  61.366  1.00  0.00     0.037 A 
HETATM   28  C   UNL     1       8.705  30.709  62.649  1.00  0.00     0.003 A 
HETATM   29  C   UNL     1       8.026  31.899  62.914  1.00  0.00     0.000 A 
HETATM   30  C   UNL     1       7.838  32.840  61.900  1.00  0.00     0.003 A 
HETATM   31  C   UNL     1       8.322  32.589  60.616  1.00  0.00     0.037 A 
ENDBRANCH  25  26
ENDBRANCH  22  25
ENDBRANCH   2  19
TORSDOF 6
ENDMDL
MODEL 2
REMARK VINA RESULT:      -9.3      1.739      3.789
REMARK  6 active torsions:
REMARK  status: ('A' for Active; 'I' for Inactive)
REMARK    1  A    between atoms: C_2  and  N_3 
REMARK    2  A    between atoms: C_2  and  C_15 
REMARK    3  A    between atoms: C_5  and  C_6 
REMARK       I    between atoms: C_15  and  N_16 
REMARK    4  A    between atoms: N_16  and  C_17 
REMARK    5  A    between atoms: C_20  and  O_21 
REMARK    6  A    between atoms: O_21  and  C_22 
ROOT
HETATM    1  C   UNL     1       7.905  26.490  56.801  1.00  0.00     0.253 C 
HETATM    2  N   UNL     1       7.997  27.796  56.363  1.00  0.00    -0.325 N 
HETATM    3  O   UNL     1       7.978  26.104  57.967  1.00  0.00    -0.271 OA
HETATM    4  H   UNL     1       7.884  27.993  55.375  1.00  0.00     0.169 HD
ENDROOT
BRANCH   1   5
HETATM    5  C   UNL     1       7.616  25.434  55.704  1.00  0.00     0.276 C 
HETATM    6  C   UNL     1       6.735  24.286  56.181  1.00  0.00     0.050 C 
BRANCH   5   7
HETATM    7  N   UNL     1       7.030  26.111  54.449  1.00  0.00    -0.049 N 
HETATM    8  H   UNL     1       7.016  27.115  54.702  1.00  0.00     0.281 HD
HETATM    9  C   UNL     1       5.582  25.821  54.105  1.00  0.00     0.238 C 
HETATM   10  C   UNL     1       5.691  24.772  52.998  1.00  0.00     0.041 C 
HETATM   11  C   UNL     1       7.022  25.019  52.300  1.00  0.00     0.030 C 
HETATM   12  C   UNL     1       7.830  25.946  53.192  1.00  0.00     0.237 C 
BRANCH   9  13
HETATM   13  C   UNL     1       4.882  27.074  53.654  1.00  0.00     0.042 A 
HETATM   14  N   UNL     1       4.409  28.059  54.507  1.00  0.00    -0.363 N 
HETATM   15  C   UNL     1       4.449  28.109  55.955  1.00  0.00     0.155 C 
HETATM   16  C   UNL     1       3.845  29.073  53.771  1.00  0.00     0.090 A 
HETATM   17  C   UNL     1       3.921  28.746  52.442  1.00  0.00     0.019 A 
HETATM   18  C   UNL     1       4.567  27.495  52.364  1.00  0.00     0.028 A 
ENDBRANCH   9  13
ENDBRANCH   5   7
ENDBRANCH   1   5
BRANCH   2  19
HETATM   19  C   UNL     1       8.201  28.949  57.158  1.00  0.00     0.035 A 
HETATM   20  C   UNL     1       7.181  29.647  57.807  1.00  0.00     0.032 A 
HETATM   21  C   UNL     1       7.472  30.796  58.551  1.00  0.00     0.039 A 
HETATM   22  C   UNL     1       8.784  31.254  58.669  1.00  0.00     0.076 A 
HETATM   23  C   UNL     1       9.809  30.567  58.019  1.00  0.00     0.039 A 
HETATM   24  C   UNL     1       9.518  29.417  57.275  1.00  0.00     0.032 A 
BRANCH  22  25
HETATM   25  O   UNL     1       8.949  32.424  59.374  1.00  0.00    -0.311 OA
BRANCH  25  26
HETATM   26  C   UNL     1       8.483  32.475  60.665  1.00  0.00     0.076 A 
HETATM   27  C   UNL     1       7.354  33.255  60.916  1.00  0.00     0.037 A 
HETATM   28  C   UNL     1       6.812  33.295  62.200  1.00  0.00     0.003 A 
HETATM   29  C   UNL     1       7.389  32.543  63.224  1.00  0.00     0.000 A 
HETATM   30  C   UNL     1       8.504  31.743  62.964  1.00  0.00     0.003 A 
HETATM   31  C   UNL     1       9.048  31.700  61.680  1.00  0.00     0.037 A 
ENDBRANCH  25  26
ENDBRANCH  22  25
ENDBRANCH   2  19
TORSDOF 6
ENDMDL
MODEL 3
REMARK VINA RESULT:      -9.2      1.571      2.459
REMARK  6 active torsions:
REMARK  status: ('A' for Active; 'I' for Inactive)
REMARK    1  A    between atoms: C_2  and  N_3 
REMARK    2  A    between atoms: C_2  and  C_15 
REMARK    3  A    between atoms: C_5  and  C_6 
REMARK       I    between atoms: C_15  and  N_16 
REMARK    4  A    between atoms: N_16  and  C_17 
REMARK    5  A    between atoms: C_20  and  O_21 
REMARK    6  A    between atoms: O_21  and  C_22 
ROOT
HETATM    1  C   UNL     1       5.979  26.740  55.154  1.00  0.00     0.253 C 
HETATM    2  N   UNL     1       5.968  27.044  56.500  1.00  0.00    -0.325 N 
HETATM    3  O   UNL     1       6.275  27.503  54.235  1.00  0.00    -0.271 OA
HETATM    4  H   UNL     1       5.741  26.315  57.167  1.00  0.00     0.169 HD
ENDROOT
BRANCH   1   5
HETATM    5  C   UNL     1       5.649  25.269  54.796  1.00  0.00     0.276 C 
HETATM    6  C   UNL     1       4.789  25.124  53.546  1.00  0.00     0.050 C 
BRANCH   5   7
HETATM    7  N   UNL     1       6.944  24.439  54.689  1.00  0.00    -0.049 N 
HETATM    8  H   UNL     1       6.972  24.166  53.692  1.00  0.00     0.281 HD
HETATM    9  C   UNL     1       6.987  23.108  55.414  1.00  0.00     0.238 C 
HETATM   10  C   UNL     1       7.772  23.430  56.686  1.00  0.00     0.041 C 
HETATM   11  C   UNL     1       8.693  24.593  56.342  1.00  0.00     0.030 C 
HETATM   12  C   UNL     1       8.209  25.170  55.023  1.00  0.00     0.237 C 
BRANCH   9  13
HETATM   13  C   UNL     1       7.657  22.062  54.564  1.00  0.00     0.042 A 
HETATM   14  N   UNL     1       8.119  20.845  55.038  1.00  0.00    -0.363 N 
HETATM   15  C   UNL     1       8.093  20.321  56.389  1.00  0.00     0.155 C 
HETATM   16  C   UNL     1       8.654  20.120  54.000  1.00  0.00     0.090 A 
HETATM   17  C   UNL     1       8.571  20.868  52.854  1.00  0.00     0.019 A 
HETATM   18  C   UNL     1       7.949  22.085  53.203  1.00  0.00     0.028 A 
ENDBRANCH   9  13
ENDBRANCH   5   7
ENDBRANCH   1   5
BRANCH   2  19
HETATM   19  C   UNL     1       6.282  28.290  57.095  1.00  0.00     0.035 A 
HETATM   20  C   UNL     1       5.386  29.355  57.206  1.00  0.00     0.032 A 
HETATM   21  C   UNL     1       5.792  30.563  57.785  1.00  0.00     0.039 A 
HETATM   22  C   UNL     1       7.090  30.718  58.272  1.00  0.00     0.076 A 
HETATM   23  C   UNL     1       7.993  29.663  58.159  1.00  0.00     0.039 A 
HETATM   24  C   UNL     1       7.587  28.454  57.580  1.00  0.00     0.032 A 
BRANCH  22  25
HETATM   25  O   UNL     1       7.398  31.964  58.766  1.00  0.00    -0.311 OA
BRANCH  25  26
HETATM   26  C   UNL     1       7.705  32.076  60.101  1.00  0.00     0.076 A 
HETATM   27  C   UNL     1       6.646  32.204  61.000  1.00  0.00     0.037 A 
HETATM   28  C   UNL     1       6.903  32.266  62.368  1.00  0.00     0.003 A 
HETATM   29  C   UNL     1       8.216  32.183  62.835  1.00  0.00     0.000 A 
HETATM   30  C   UNL     1       9.272  32.029  61.934  1.00  0.00     0.003 A 
HETATM   31  C   UNL     1       9.017  31.967  60.564  1.00  0.00     0.037 A 
ENDBRANCH  25  26
ENDBRANCH  22  25
ENDBRANCH   2  19
TORSDOF 6
ENDMDL
MODEL 4
REMARK VINA RESULT:      -9.0      6.362      9.896
REMARK  6 active torsions:
REMARK  status: ('A' for Active; 'I' for Inactive)
REMARK    1  A    between atoms: C_2  and  N_3 
REMARK    2  A    between atoms: C_2  and  C_15 
REMARK    3  A    between atoms: C_5  and  C_6 
REMARK       I    between atoms: C_15  and  N_16 
REMARK    4  A    between atoms: N_16  and  C_17 
REMARK    5  A    between atoms: C_20  and  O_21 
REMARK    6  A    between atoms: O_21  and  C_22 
ROOT
HETATM    1  C   UNL     1       4.952  26.817  49.727  1.00  0.00     0.253 C 
HETATM    2  N   UNL     1       5.788  26.998  50.810  1.00  0.00    -0.325 N 
HETATM    3  O   UNL     1       4.267  25.823  49.490  1.00  0.00    -0.271 OA
HETATM    4  H   UNL     1       6.275  27.881  50.915  1.00  0.00     0.169 HD
ENDROOT
BRANCH   1   5
HETATM    5  C   UNL     1       4.831  28.026  48.764  1.00  0.00     0.276 C 
HETATM    6  C   UNL     1       5.458  27.781  47.397  1.00  0.00     0.050 C 
BRANCH   5   7
HETATM    7  N   UNL     1       3.359  28.467  48.640  1.00  0.00    -0.049 N 
HETATM    8  H   UNL     1       2.853  27.575  48.502  1.00  0.00     0.281 HD
HETATM    9  C   UNL     1       2.970  29.279  47.420  1.00  0.00     0.238 C 
HETATM   10  C   UNL     1       2.937  30.711  47.952  1.00  0.00     0.041 C 
HETATM   11  C   UNL     1       2.603  30.614  49.435  1.00  0.00     0.030 C 
HETATM   12  C   UNL     1       2.789  29.162  49.840  1.00  0.00     0.237 C 
BRANCH   9  13
HETATM   13  C   UNL     1       1.639  28.825  46.883  1.00  0.00     0.042 A 
HETATM   14  N   UNL     1       1.294  27.501  46.660  1.00  0.00    -0.363 N 
HETATM   15  C   UNL     1       2.088  26.305  46.855  1.00  0.00     0.155 C 
HETATM   16  C   UNL     1       0.004  27.435  46.191  1.00  0.00     0.090 A 
HETATM   17  C   UNL     1      -0.488  28.710  46.079  1.00  0.00     0.019 A 
HETATM   18  C   UNL     1       0.532  29.582  46.509  1.00  0.00     0.028 A 
ENDBRANCH   9  13
ENDBRANCH   5   7
ENDBRANCH   1   5
BRANCH   2  19
HETATM   19  C   UNL     1       6.035  26.079  51.859  1.00  0.00     0.035 A 
HETATM   20  C   UNL     1       5.066  25.641  52.763  1.00  0.00     0.032 A 
HETATM   21  C   UNL     1       5.405  24.751  53.788  1.00  0.00     0.039 A 
HETATM   22  C   UNL     1       6.711  24.277  53.915  1.00  0.00     0.076 A 
HETATM   23  C   UNL     1       7.687  24.714  53.021  1.00  0.00     0.039 A 
HETATM   24  C   UNL     1       7.347  25.605  51.995  1.00  0.00     0.032 A 
BRANCH  22  25
HETATM   25  O   UNL     1       6.947  23.454  54.992  1.00  0.00    -0.311 OA
BRANCH  25  26
HETATM   26  C   UNL     1       7.541  22.238  54.762  1.00  0.00     0.076 A 
HETATM   27  C   UNL     1       7.674  21.822  53.438  1.00  0.00     0.037 A 
HETATM   28  C   UNL     1       8.320  20.620  53.150  1.00  0.00     0.003 A 
HETATM   29  C   UNL     1       8.845  19.846  54.186  1.00  0.00     0.000 A 
HETATM   30  C   UNL     1       8.733  20.278  55.510  1.00  0.00     0.003 A 
HETATM   31  C   UNL     1       8.088  21.480  55.800  1.00  0.00     0.037 A 
ENDBRANCH  25  26
ENDBRANCH  22  25
ENDBRANCH   2  19
TORSDOF 6
ENDMDL
MODEL 5
REMARK VINA RESULT:      -8.9      2.622      9.663
REMARK  6 active torsions:
REMARK  status: ('A' for Active; 'I' for Inactive)
REMARK    1  A    between atoms: C_2  and  N_3 
REMARK    2  A    between atoms: C_2  and  C_15 
REMARK    3  A    between atoms: C_5  and  C_6 
REMARK       I    between atoms: C_15  and  N_16 
REMARK    4  A    between atoms: N_16  and  C_17 
REMARK    5  A    between atoms: C_20  and  O_21 
REMARK    6  A    between atoms: O_21  and  C_22 
ROOT
HETATM    1  C   UNL     1       8.445  30.347  59.024  1.00  0.00     0.253 C 
HETATM    2  N   UNL     1       7.699  29.190  58.919  1.00  0.00    -0.325 N 
HETATM    3  O   UNL     1       8.816  31.064  58.095  1.00  0.00    -0.271 OA
HETATM    4  H   UNL     1       7.423  28.705  59.765  1.00  0.00     0.169 HD
ENDROOT
BRANCH   1   5
HETATM    5  C   UNL     1       8.778  30.802  60.468  1.00  0.00     0.276 C 
HETATM    6  C   UNL     1       9.821  31.910  60.531  1.00  0.00     0.050 C 
BRANCH   5   7
HETATM    7  N   UNL     1       7.489  31.196  61.216  1.00  0.00    -0.049 N 
HETATM    8  H   UNL     1       6.766  30.597  60.780  1.00  0.00     0.281 HD
HETATM    9  C   UNL     1       6.953  32.598  61.003  1.00  0.00     0.238 C 
HETATM   10  C   UNL     1       7.429  33.345  62.248  1.00  0.00     0.041 C 
HETATM   11  C   UNL     1       7.549  32.306  63.356  1.00  0.00     0.030 C 
HETATM   12  C   UNL     1       7.495  30.940  62.693  1.00  0.00     0.237 C 
BRANCH   9  13
HETATM   13  C   UNL     1       5.454  32.579  60.870  1.00  0.00     0.042 A 
HETATM   14  N   UNL     1       4.774  32.323  59.690  1.00  0.00    -0.363 N 
HETATM   15  C   UNL     1       5.307  32.050  58.370  1.00  0.00     0.155 C 
HETATM   16  C   UNL     1       3.421  32.360  59.922  1.00  0.00     0.090 A 
HETATM   17  C   UNL     1       3.209  32.666  61.241  1.00  0.00     0.019 A 
HETATM   18  C   UNL     1       4.479  32.806  61.837  1.00  0.00     0.028 A 
ENDBRANCH   9  13
ENDBRANCH   5   7
ENDBRANCH   1   5
BRANCH   2  19
HETATM   19  C   UNL     1       7.219  28.590  57.730  1.00  0.00     0.035 A 
HETATM   20  C   UNL     1       5.880  28.587  57.337  1.00  0.00     0.032 A 
HETATM   21  C   UNL     1       5.490  27.944  56.156  1.00  0.00     0.039 A 
HETATM   22  C   UNL     1       6.433  27.309  55.348  1.00  0.00     0.076 A 
HETATM   23  C   UNL     1       7.772  27.300  55.737  1.00  0.00     0.039 A 
HETATM   24  C   UNL     1       8.162  27.944  56.917  1.00  0.00     0.032 A 
BRANCH  22  25
HETATM   25  O   UNL     1       5.933  26.658  54.244  1.00  0.00    -0.311 OA
BRANCH  25  26
HETATM   26  C   UNL     1       6.542  25.494  53.845  1.00  0.00     0.076 A 
HETATM   27  C   UNL     1       7.206  25.497  52.618  1.00  0.00     0.037 A 
HETATM   28  C   UNL     1       7.886  24.356  52.195  1.00  0.00     0.003 A 
HETATM   29  C   UNL     1       7.914  23.221  53.007  1.00  0.00     0.000 A 
HETATM   30  C   UNL     1       7.271  23.229  54.246  1.00  0.00     0.003 A 
HETATM   31  C   UNL     1       6.590  24.370  54.672  1.00  0.00     0.037 A 
ENDBRANCH  25  26
ENDBRANCH  22  25
ENDBRANCH   2  19
TORSDOF 6
ENDMDL
MODEL 6
REMARK VINA RESULT:      -8.9      5.695      9.397
REMARK  6 active torsions:
REMARK  status: ('A' for Active; 'I' for Inactive)
REMARK    1  A    between atoms: C_2  and  N_3 
REMARK    2  A    between atoms: C_2  and  C_15 
REMARK    3  A    between atoms: C_5  and  C_6 
REMARK       I    between atoms: C_15  and  N_16 
REMARK    4  A    between atoms: N_16  and  C_17 
REMARK    5  A    between atoms: C_20  and  O_21 
REMARK    6  A    between atoms: O_21  and  C_22 
ROOT
HETATM    1  C   UNL     1       4.550  28.362  51.034  1.00  0.00     0.253 C 
HETATM    2  N   UNL     1       5.646  27.523  51.061  1.00  0.00    -0.325 N 
HETATM    3  O   UNL     1       3.645  28.409  51.866  1.00  0.00    -0.271 OA
HETATM    4  H   UNL     1       6.346  27.605  50.333  1.00  0.00     0.169 HD
ENDROOT
BRANCH   1   5
HETATM    5  C   UNL     1       4.514  29.380  49.866  1.00  0.00     0.276 C 
HETATM    6  C   UNL     1       5.866  30.016  49.570  1.00  0.00     0.050 C 
BRANCH   5   7
HETATM    7  N   UNL     1       3.908  28.729  48.606  1.00  0.00    -0.049 N 
HETATM    8  H   UNL     1       3.406  29.511  48.150  1.00  0.00     0.281 HD
HETATM    9  C   UNL     1       2.823  27.690  48.805  1.00  0.00     0.238 C 
HETATM   10  C   UNL     1       3.573  26.368  48.640  1.00  0.00     0.041 C 
HETATM   11  C   UNL     1       4.751  26.653  47.717  1.00  0.00     0.030 C 
HETATM   12  C   UNL     1       4.897  28.163  47.633  1.00  0.00     0.237 C 
BRANCH   9  13
HETATM   13  C   UNL     1       1.725  27.868  47.792  1.00  0.00     0.042 A 
HETATM   14  N   UNL     1       0.957  29.015  47.661  1.00  0.00    -0.363 N 
HETATM   15  C   UNL     1       1.006  30.240  48.434  1.00  0.00     0.155 C 
HETATM   16  C   UNL     1       0.064  28.855  46.629  1.00  0.00     0.090 A 
HETATM   17  C   UNL     1       0.222  27.600  46.102  1.00  0.00     0.019 A 
HETATM   18  C   UNL     1       1.259  26.978  46.828  1.00  0.00     0.028 A 
ENDBRANCH   9  13
ENDBRANCH   5   7
ENDBRANCH   1   5
BRANCH   2  19
HETATM   19  C   UNL     1       5.947  26.545  52.040  1.00  0.00     0.035 A 
HETATM   20  C   UNL     1       5.233  25.358  52.209  1.00  0.00     0.032 A 
HETATM   21  C   UNL     1       5.584  24.460  53.223  1.00  0.00     0.039 A 
HETATM   22  C   UNL     1       6.658  24.728  54.070  1.00  0.00     0.076 A 
HETATM   23  C   UNL     1       7.373  25.915  53.914  1.00  0.00     0.039 A 
HETATM   24  C   UNL     1       7.022  26.814  52.899  1.00  0.00     0.032 A 
BRANCH  22  25
HETATM   25  O   UNL     1       6.878  23.807  55.068  1.00  0.00    -0.311 OA
BRANCH  25  26
HETATM   26  C   UNL     1       7.416  22.591  54.723  1.00  0.00     0.076 A 
HETATM   27  C   UNL     1       7.821  22.415  53.400  1.00  0.00     0.037 A 
HETATM   28  C   UNL     1       8.423  21.218  53.013  1.00  0.00     0.003 A 
HETATM   29  C   UNL     1       8.632  20.208  53.954  1.00  0.00     0.000 A 
HETATM   30  C   UNL     1       8.249  20.398  55.283  1.00  0.00     0.003 A 
HETATM   31  C   UNL     1       7.647  21.594  55.673  1.00  0.00     0.037 A 
ENDBRANCH  25  26
ENDBRANCH  22  25
ENDBRANCH   2  19
TORSDOF 6
ENDMDL
MODEL 7
REMARK VINA RESULT:      -8.8      2.287      9.285
REMARK  6 active torsions:
REMARK  status: ('A' for Active; 'I' for Inactive)
REMARK    1  A    between atoms: C_2  and  N_3 
REMARK    2  A    between atoms: C_2  and  C_15 
REMARK    3  A    between atoms: C_5  and  C_6 
REMARK       I    between atoms: C_15  and  N_16 
REMARK    4  A    between atoms: N_16  and  C_17 
REMARK    5  A    between atoms: C_20  and  O_21 
REMARK    6  A    between atoms: O_21  and  C_22 
ROOT
HETATM    1  C   UNL     1       6.758  29.440  56.570  1.00  0.00     0.253 C 
HETATM    2  N   UNL     1       6.035  28.264  56.550  1.00  0.00    -0.325 N 
HETATM    3  O   UNL     1       7.713  29.723  55.846  1.00  0.00    -0.271 OA
HETATM    4  H   UNL     1       5.243  28.164  57.174  1.00  0.00     0.169 HD
ENDROOT
BRANCH   1   5
HETATM    5  C   UNL     1       6.258  30.519  57.564  1.00  0.00     0.276 C 
HETATM    6  C   UNL     1       4.773  30.406  57.887  1.00  0.00     0.050 C 
BRANCH   5   7
HETATM    7  N   UNL     1       7.117  30.508  58.844  1.00  0.00    -0.049 N 
HETATM    8  H   UNL     1       6.438  30.263  59.586  1.00  0.00     0.281 HD
HETATM    9  C   UNL     1       7.688  31.830  59.318  1.00  0.00     0.238 C 
HETATM   10  C   UNL     1       9.134  31.781  58.826  1.00  0.00     0.041 C 
HETATM   11  C   UNL     1       9.518  30.308  58.763  1.00  0.00     0.030 C 
HETATM   12  C   UNL     1       8.232  29.507  58.865  1.00  0.00     0.237 C 
BRANCH   9  13
HETATM   13  C   UNL     1       7.584  31.947  60.815  1.00  0.00     0.042 A 
HETATM   14  N   UNL     1       6.410  32.216  61.501  1.00  0.00    -0.363 N 
HETATM   15  C   UNL     1       5.081  32.458  60.976  1.00  0.00     0.155 C 
HETATM   16  C   UNL     1       6.660  32.232  62.852  1.00  0.00     0.090 A 
HETATM   17  C   UNL     1       7.996  32.003  63.053  1.00  0.00     0.019 A 
HETATM   18  C   UNL     1       8.578  31.826  61.782  1.00  0.00     0.028 A 
ENDBRANCH   9  13
ENDBRANCH   5   7
ENDBRANCH   1   5
BRANCH   2  19
HETATM   19  C   UNL     1       6.247  27.147  55.706  1.00  0.00     0.035 A 
HETATM   20  C   UNL     1       5.283  26.619  54.845  1.00  0.00     0.032 A 
HETATM   21  C   UNL     1       5.571  25.493  54.066  1.00  0.00     0.039 A 
HETATM   22  C   UNL     1       6.827  24.890  54.125  1.00  0.00     0.076 A 
HETATM   23  C   UNL     1       7.794  25.405  54.987  1.00  0.00     0.039 A 
HETATM   24  C   UNL     1       7.506  26.533  55.767  1.00  0.00     0.032 A 
BRANCH  22  25
HETATM   25  O   UNL     1       6.982  23.755  53.363  1.00  0.00    -0.311 OA
BRANCH  25  26
HETATM   26  C   UNL     1       7.412  22.609  53.985  1.00  0.00     0.076 A 
HETATM   27  C   UNL     1       7.942  21.597  53.184  1.00  0.00     0.037 A 
HETATM   28  C   UNL     1       8.441  20.437  53.774  1.00  0.00     0.003 A 
HETATM   29  C   UNL     1       8.425  20.299  55.163  1.00  0.00     0.000 A 
HETATM   30  C   UNL     1       7.917  21.324  55.963  1.00  0.00     0.003 A 
HETATM   31  C   UNL     1       7.417  22.486  55.376  1.00  0.00     0.037 A 
ENDBRANCH  25  26
ENDBRANCH  22  25
ENDBRANCH   2  19
TORSDOF 6
ENDMDL
MODEL 8
REMARK VINA RESULT:      -8.8      5.801      9.474
REMARK  6 active torsions:
REMARK  status: ('A' for Active; 'I' for Inactive)
REMARK    1  A    between atoms: C_2  and  N_3 
REMARK    2  A    between atoms: C_2  and  C_15 
REMARK    3  A    between atoms: C_5  and  C_6 
REMARK       I    between atoms: C_15  and  N_16 
REMARK    4  A    between atoms: N_16  and  C_17 
REMARK    5  A    between atoms: C_20  and  O_21 
REMARK    6  A    between atoms: O_21  and  C_22 
ROOT
HETATM    1  C   UNL     1       4.683  27.802  51.330  1.00  0.00     0.253 C 
HETATM    2  N   UNL     1       4.621  26.518  51.832  1.00  0.00    -0.325 N 
HETATM    3  O   UNL     1       5.625  28.585  51.442  1.00  0.00    -0.271 OA
HETATM    4  H   UNL     1       3.800  25.954  51.641  1.00  0.00     0.169 HD
ENDROOT
BRANCH   1   5
HETATM    5  C   UNL     1       3.461  28.253  50.489  1.00  0.00     0.276 C 
HETATM    6  C   UNL     1       2.787  29.511  51.023  1.00  0.00     0.050 C 
BRANCH   5   7
HETATM    7  N   UNL     1       3.859  28.411  49.008  1.00  0.00    -0.049 N 
HETATM    8  H   UNL     1       4.479  29.239  49.013  1.00  0.00     0.281 HD
HETATM    9  C   UNL     1       2.770  28.799  48.027  1.00  0.00     0.238 C 
HETATM   10  C   UNL     1       2.402  27.468  47.371  1.00  0.00     0.041 C 
HETATM   11  C   UNL     1       3.649  26.596  47.435  1.00  0.00     0.030 C 
HETATM   12  C   UNL     1       4.606  27.256  48.413  1.00  0.00     0.237 C 
BRANCH   9  13
HETATM   13  C   UNL     1       3.283  29.813  47.040  1.00  0.00     0.042 A 
HETATM   14  N   UNL     1       2.480  30.544  46.178  1.00  0.00    -0.363 N 
HETATM   15  C   UNL     1       1.041  30.497  46.010  1.00  0.00     0.155 C 
HETATM   16  C   UNL     1       3.261  31.393  45.431  1.00  0.00     0.090 A 
HETATM   17  C   UNL     1       4.573  31.202  45.778  1.00  0.00     0.019 A 
HETATM   18  C   UNL     1       4.591  30.213  46.783  1.00  0.00     0.028 A 
ENDBRANCH   9  13
ENDBRANCH   5   7
ENDBRANCH   1   5
BRANCH   2  19
HETATM   19  C   UNL     1       5.616  25.847  52.582  1.00  0.00     0.035 A 
HETATM   20  C   UNL     1       5.511  25.555  53.943  1.00  0.00     0.032 A 
HETATM   21  C   UNL     1       6.559  24.911  54.612  1.00  0.00     0.039 A 
HETATM   22  C   UNL     1       7.717  24.540  53.929  1.00  0.00     0.076 A 
HETATM   23  C   UNL     1       7.834  24.833  52.571  1.00  0.00     0.039 A 
HETATM   24  C   UNL     1       6.785  25.476  51.901  1.00  0.00     0.032 A 
BRANCH  22  25
HETATM   25  O   UNL     1       8.706  23.968  54.695  1.00  0.00    -0.311 OA
BRANCH  25  26
HETATM   26  C   UNL     1       8.616  22.626  54.974  1.00  0.00     0.076 A 
HETATM   27  C   UNL     1       8.570  22.245  56.315  1.00  0.00     0.037 A 
HETATM   28  C   UNL     1       8.425  20.900  56.649  1.00  0.00     0.003 A 
HETATM   29  C   UNL     1       8.309  19.941  55.642  1.00  0.00     0.000 A 
HETATM   30  C   UNL     1       8.330  20.327  54.300  1.00  0.00     0.003 A 
HETATM   31  C   UNL     1       8.475  21.673  53.963  1.00  0.00     0.037 A 
ENDBRANCH  25  26
ENDBRANCH  22  25
ENDBRANCH   2  19
TORSDOF 6
ENDMDL
MODEL 9
REMARK VINA RESULT:      -8.4      3.514     10.482
REMARK  6 active torsions:
REMARK  status: ('A' for Active; 'I' for Inactive)
REMARK    1  A    between atoms: C_2  and  N_3 
REMARK    2  A    between atoms: C_2  and  C_15 
REMARK    3  A    between atoms: C_5  and  C_6 
REMARK       I    between atoms: C_15  and  N_16 
REMARK    4  A    between atoms: N_16  and  C_17 
REMARK    5  A    between atoms: C_20  and  O_21 
REMARK    6  A    between atoms: O_21  and  C_22 
ROOT
HETATM    1  C   UNL     1       7.907  31.320  59.691  1.00  0.00     0.253 C 
HETATM    2  N   UNL     1       7.632  30.032  59.276  1.00  0.00    -0.325 N 
HETATM    3  O   UNL     1       8.287  32.251  58.982  1.00  0.00    -0.271 OA
HETATM    4  H   UNL     1       7.289  29.360  59.953  1.00  0.00     0.169 HD
ENDROOT
BRANCH   1   5
HETATM    5  C   UNL     1       7.641  31.612  61.190  1.00  0.00     0.276 C 
HETATM    6  C   UNL     1       8.903  31.937  61.980  1.00  0.00     0.050 C 
BRANCH   5   7
HETATM    7  N   UNL     1       6.580  32.721  61.340  1.00  0.00    -0.049 N 
HETATM    8  H   UNL     1       7.142  33.590  61.354  1.00  0.00     0.281 HD
HETATM    9  C   UNL     1       5.811  32.784  62.644  1.00  0.00     0.238 C 
HETATM   10  C   UNL     1       4.482  32.113  62.298  1.00  0.00     0.041 C 
HETATM   11  C   UNL     1       4.260  32.340  60.808  1.00  0.00     0.030 C 
HETATM   12  C   UNL     1       5.581  32.813  60.227  1.00  0.00     0.237 C 
BRANCH   9  13
HETATM   13  C   UNL     1       5.644  34.211  63.093  1.00  0.00     0.042 A 
HETATM   14  N   UNL     1       5.201  34.592  64.350  1.00  0.00    -0.363 N 
HETATM   15  C   UNL     1       4.792  33.760  65.464  1.00  0.00     0.155 C 
HETATM   16  C   UNL     1       5.186  35.963  64.437  1.00  0.00     0.090 A 
HETATM   17  C   UNL     1       5.590  36.483  63.235  1.00  0.00     0.019 A 
HETATM   18  C   UNL     1       5.876  35.391  62.391  1.00  0.00     0.028 A 
ENDBRANCH   9  13
ENDBRANCH   5   7
ENDBRANCH   1   5
BRANCH   2  19
HETATM   19  C   UNL     1       7.737  29.521  57.960  1.00  0.00     0.035 A 
HETATM   20  C   UNL     1       8.879  29.628  57.165  1.00  0.00     0.032 A 
HETATM   21  C   UNL     1       8.885  29.116  55.862  1.00  0.00     0.039 A 
HETATM   22  C   UNL     1       7.758  28.480  55.343  1.00  0.00     0.076 A 
HETATM   23  C   UNL     1       6.610  28.374  56.127  1.00  0.00     0.039 A 
HETATM   24  C   UNL     1       6.604  28.886  57.431  1.00  0.00     0.032 A 
BRANCH  22  25
HETATM   25  O   UNL     1       7.853  28.068  54.034  1.00  0.00    -0.311 OA
BRANCH  25  26
HETATM   26  C   UNL     1       7.118  26.975  53.642  1.00  0.00     0.076 A 
HETATM   27  C   UNL     1       5.962  27.205  52.898  1.00  0.00     0.037 A 
HETATM   28  C   UNL     1       5.212  26.127  52.431  1.00  0.00     0.003 A 
HETATM   29  C   UNL     1       5.631  24.821  52.695  1.00  0.00     0.000 A 
HETATM   30  C   UNL     1       6.803  24.594  53.419  1.00  0.00     0.003 A 
HETATM   31  C   UNL     1       7.555  25.672  53.887  1.00  0.00     0.037 A 
ENDBRANCH  25  26
ENDBRANCH  22  25
ENDBRANCH   2  19
TORSDOF 6
ENDMDL
MODEL 10
REMARK VINA RESULT:      -8.2      2.339      3.145
REMARK  6 active torsions:
REMARK  status: ('A' for Active; 'I' for Inactive)
REMARK    1  A    between atoms: C_2  and  N_3 
REMARK    2  A    between atoms: C_2  and  C_15 
REMARK    3  A    between atoms: C_5  and  C_6 
REMARK       I    between atoms: C_15  and  N_16 
REMARK    4  A    between atoms: N_16  and  C_17 
REMARK    5  A    between atoms: C_20  and  O_21 
REMARK    6  A    between atoms: O_21  and  C_22 
ROOT
HETATM    1  C   UNL     1       5.991  28.198  55.963  1.00  0.00     0.253 C 
HETATM    2  N   UNL     1       5.821  29.568  56.001  1.00  0.00    -0.325 N 
HETATM    3  O   UNL     1       5.729  27.404  56.865  1.00  0.00    -0.271 OA
HETATM    4  H   UNL     1       6.041  30.114  55.176  1.00  0.00     0.169 HD
ENDROOT
BRANCH   1   5
HETATM    5  C   UNL     1       6.499  27.623  54.616  1.00  0.00     0.276 C 
HETATM    6  C   UNL     1       7.897  28.098  54.240  1.00  0.00     0.050 C 
BRANCH   5   7
HETATM    7  N   UNL     1       6.408  26.084  54.623  1.00  0.00    -0.049 N 
HETATM    8  H   UNL     1       6.327  25.853  55.628  1.00  0.00     0.281 HD
HETATM    9  C   UNL     1       7.635  25.306  54.186  1.00  0.00     0.238 C 
HETATM   10  C   UNL     1       7.307  24.920  52.744  1.00  0.00     0.041 C 
HETATM   11  C   UNL     1       5.789  24.838  52.654  1.00  0.00     0.030 C 
HETATM   12  C   UNL     1       5.231  25.502  53.900  1.00  0.00     0.237 C 
BRANCH   9  13
HETATM   13  C   UNL     1       7.850  24.111  55.076  1.00  0.00     0.042 A 
HETATM   14  N   UNL     1       8.234  24.182  56.405  1.00  0.00    -0.363 N 
HETATM   15  C   UNL     1       8.527  25.352  57.210  1.00  0.00     0.155 C 
HETATM   16  C   UNL     1       8.317  22.914  56.929  1.00  0.00     0.090 A 
HETATM   17  C   UNL     1       8.017  22.012  55.942  1.00  0.00     0.019 A 
HETATM   18  C   UNL     1       7.725  22.757  54.780  1.00  0.00     0.028 A 
ENDBRANCH   9  13
ENDBRANCH   5   7
ENDBRANCH   1   5
BRANCH   2  19
HETATM   19  C   UNL     1       5.325  30.335  57.082  1.00  0.00     0.035 A 
HETATM   20  C   UNL     1       3.988  30.351  57.485  1.00  0.00     0.032 A 
HETATM   21  C   UNL     1       3.580  31.163  58.550  1.00  0.00     0.039 A 
HETATM   22  C   UNL     1       4.501  31.956  59.233  1.00  0.00     0.076 A 
HETATM   23  C   UNL     1       5.836  31.952  58.833  1.00  0.00     0.039 A 
HETATM   24  C   UNL     1       6.245  31.140  57.769  1.00  0.00     0.032 A 
BRANCH  22  25
HETATM   25  O   UNL     1       3.981  32.759  60.223  1.00  0.00    -0.311 OA
BRANCH  25  26
HETATM   26  C   UNL     1       4.774  33.048  61.307  1.00  0.00     0.076 A 
HETATM   27  C   UNL     1       5.231  34.358  61.443  1.00  0.00     0.037 A 
HETATM   28  C   UNL     1       5.993  34.714  62.555  1.00  0.00     0.003 A 
HETATM   29  C   UNL     1       6.282  33.762  63.535  1.00  0.00     0.000 A 
HETATM   30  C   UNL     1       5.801  32.458  63.408  1.00  0.00     0.003 A 
HETATM   31  C   UNL     1       5.038  32.099  62.297  1.00  0.00     0.037 A 
ENDBRANCH  25  26
ENDBRANCH  22  25
ENDBRANCH   2  19
TORSDOF 6
ENDMDL
