MODEL 1
REMARK VINA RESULT:      -8.4      0.000      0.000
REMARK  7 active torsions:
REMARK  status: ('A' for Active; 'I' for Inactive)
REMARK    1  A    between atoms: C_2  and  N_3 
REMARK    2  A    between atoms: C_2  and  C_17 
REMARK       I    between atoms: N_3  and  C_4 
REMARK    3  A    between atoms: C_4  and  C_5 
REMARK    4  A    between atoms: C_6  and  N_7 
REMARK    5  A    between atoms: C_17  and  O_18 
REMARK    6  A    between atoms: C_17  and  C_19 
REMARK    7  A    between atoms: C_22  and  O_23 
ROOT
HETATM    1  N   UNL     1       6.148  24.943  52.792  1.00  0.00    -0.350 N 
HETATM    2  C   UNL     1       7.403  24.390  52.909  1.00  0.00     0.255 C 
HETATM    3  O   UNL     1       8.411  24.885  52.422  1.00  0.00    -0.268 OA
HETATM    4  H   UNL     1       5.370  24.490  53.257  1.00  0.00     0.163 HD
ENDROOT
BRANCH   1   5
HETATM    5  C   UNL     1       5.856  26.222  52.127  1.00  0.00     0.114 C 
HETATM    6  C   UNL     1       5.201  25.975  50.767  1.00  0.00     0.035 C 
BRANCH   5   7
HETATM    7  C   UNL     1       5.049  27.260  52.974  1.00  0.00     0.173 C 
BRANCH   7   8
HETATM    8  O   UNL     1       3.837  26.728  53.506  1.00  0.00    -0.389 OA
HETATM    9  H   UNL     1       3.740  27.092  54.414  1.00  0.00     0.210 HD
ENDBRANCH   7   8
BRANCH   7  10
HETATM   10  C   UNL     1       5.872  27.943  54.052  1.00  0.00    -0.028 A 
HETATM   11  C   UNL     1       7.271  27.875  54.012  1.00  0.00     0.012 A 
HETATM   12  C   UNL     1       8.043  28.503  54.993  1.00  0.00     0.037 A 
HETATM   13  C   UNL     1       7.438  29.212  56.031  1.00  0.00     0.068 A 
HETATM   14  C   UNL     1       6.047  29.274  56.092  1.00  0.00     0.037 A 
HETATM   15  C   UNL     1       5.273  28.647  55.108  1.00  0.00     0.012 A 
BRANCH  13  16
HETATM   16  O   UNL     1       8.306  29.788  56.918  1.00  0.00    -0.356 OA
HETATM   17  C   UNL     1       9.583  29.172  57.048  1.00  0.00     0.210 C 
ENDBRANCH  13  16
ENDBRANCH   7  10
ENDBRANCH   5   7
ENDBRANCH   1   5
BRANCH   2  18
HETATM   18  C   UNL     1       7.478  23.112  53.642  1.00  0.00     0.079 A 
HETATM   19  C   UNL     1       7.514  23.001  55.035  1.00  0.00     0.165 A 
HETATM   20  N   UNL     1       7.766  21.795  55.640  1.00  0.00    -0.241 NA
HETATM   21  C   UNL     1       7.958  20.704  54.872  1.00  0.00     0.119 A 
HETATM   22  C   UNL     1       7.922  20.731  53.494  1.00  0.00     0.020 A 
HETATM   23  C   UNL     1       7.693  21.953  52.872  1.00  0.00     0.022 A 
BRANCH  19  24
HETATM   24  N   UNL     1       7.240  24.100  55.923  1.00  0.00    -0.226 N 
HETATM   25  N   UNL     1       5.975  24.613  56.006  1.00  0.00    -0.179 NA
HETATM   26  C   UNL     1       6.051  25.582  56.915  1.00  0.00     0.141 A 
HETATM   27  C   UNL     1       7.356  25.781  57.377  1.00  0.00     0.040 A 
HETATM   28  C   UNL     1       8.106  24.853  56.696  1.00  0.00     0.122 A 
ENDBRANCH  19  24
ENDBRANCH   2  18
TORSDOF 7
ENDMDL
MODEL 2
REMARK VINA RESULT:      -7.3      2.090      4.161
REMARK  7 active torsions:
REMARK  status: ('A' for Active; 'I' for Inactive)
REMARK    1  A    between atoms: C_2  and  N_3 
REMARK    2  A    between atoms: C_2  and  C_17 
REMARK       I    between atoms: N_3  and  C_4 
REMARK    3  A    between atoms: C_4  and  C_5 
REMARK    4  A    between atoms: C_6  and  N_7 
REMARK    5  A    between atoms: C_17  and  O_18 
REMARK    6  A    between atoms: C_17  and  C_19 
REMARK    7  A    between atoms: C_22  and  O_23 
ROOT
HETATM    1  N   UNL     1       7.803  25.868  55.598  1.00  0.00    -0.350 N 
HETATM    2  C   UNL     1       7.153  24.669  55.784  1.00  0.00     0.255 C 
HETATM    3  O   UNL     1       6.270  24.497  56.614  1.00  0.00    -0.268 OA
HETATM    4  H   UNL     1       8.496  25.938  54.863  1.00  0.00     0.163 HD
ENDROOT
BRANCH   1   5
HETATM    5  C   UNL     1       7.487  27.111  56.318  1.00  0.00     0.114 C 
HETATM    6  C   UNL     1       7.948  27.012  57.773  1.00  0.00     0.035 C 
BRANCH   5   7
HETATM    7  C   UNL     1       7.985  28.433  55.645  1.00  0.00     0.173 C 
BRANCH   7   8
HETATM    8  O   UNL     1       6.993  29.056  54.831  1.00  0.00    -0.389 OA
HETATM    9  H   UNL     1       6.734  29.888  55.285  1.00  0.00     0.210 HD
ENDBRANCH   7   8
BRANCH   7  10
HETATM   10  C   UNL     1       8.600  29.422  56.620  1.00  0.00    -0.028 A 
HETATM   11  C   UNL     1       7.781  30.114  57.524  1.00  0.00     0.012 A 
HETATM   12  C   UNL     1       8.331  31.023  58.431  1.00  0.00     0.037 A 
HETATM   13  C   UNL     1       9.706  31.259  58.459  1.00  0.00     0.068 A 
HETATM   14  C   UNL     1      10.528  30.591  57.555  1.00  0.00     0.037 A 
HETATM   15  C   UNL     1       9.979  29.678  56.647  1.00  0.00     0.012 A 
BRANCH  13  16
HETATM   16  O   UNL     1      10.115  32.163  59.401  1.00  0.00    -0.356 OA
HETATM   17  C   UNL     1       9.538  32.037  60.695  1.00  0.00     0.210 C 
ENDBRANCH  13  16
ENDBRANCH   7  10
ENDBRANCH   5   7
ENDBRANCH   1   5
BRANCH   2  18
HETATM   18  C   UNL     1       7.607  23.552  54.934  1.00  0.00     0.079 A 
HETATM   19  C   UNL     1       7.232  23.370  53.600  1.00  0.00     0.165 A 
HETATM   20  N   UNL     1       7.547  22.214  52.931  1.00  0.00    -0.241 NA
HETATM   21  C   UNL     1       8.249  21.257  53.569  1.00  0.00     0.119 A 
HETATM   22  C   UNL     1       8.669  21.371  54.877  1.00  0.00     0.020 A 
HETATM   23  C   UNL     1       8.332  22.527  55.572  1.00  0.00     0.022 A 
BRANCH  19  24
HETATM   24  N   UNL     1       6.551  24.374  52.826  1.00  0.00    -0.226 N 
HETATM   25  N   UNL     1       7.262  25.394  52.256  1.00  0.00    -0.179 NA
HETATM   26  C   UNL     1       6.361  26.123  51.601  1.00  0.00     0.141 A 
HETATM   27  C   UNL     1       5.056  25.660  51.794  1.00  0.00     0.040 A 
HETATM   28  C   UNL     1       5.197  24.568  52.617  1.00  0.00     0.122 A 
ENDBRANCH  19  24
ENDBRANCH   2  18
TORSDOF 7
ENDMDL
MODEL 3
REMARK VINA RESULT:      -7.2      3.592      6.817
REMARK  7 active torsions:
REMARK  status: ('A' for Active; 'I' for Inactive)
REMARK    1  A    between atoms: C_2  and  N_3 
REMARK    2  A    between atoms: C_2  and  C_17 
REMARK       I    between atoms: N_3  and  C_4 
REMARK    3  A    between atoms: C_4  and  C_5 
REMARK    4  A    between atoms: C_6  and  N_7 
REMARK    5  A    between atoms: C_17  and  O_18 
REMARK    6  A    between atoms: C_17  and  C_19 
REMARK    7  A    between atoms: C_22  and  O_23 
ROOT
HETATM    1  N   UNL     1       6.682  29.317  56.624  1.00  0.00    -0.350 N 
HETATM    2  C   UNL     1       7.576  28.755  57.506  1.00  0.00     0.255 C 
HETATM    3  O   UNL     1       7.358  27.724  58.129  1.00  0.00    -0.268 OA
HETATM    4  H   UNL     1       6.954  30.152  56.119  1.00  0.00     0.163 HD
ENDROOT
BRANCH   1   5
HETATM    5  C   UNL     1       5.382  28.731  56.263  1.00  0.00     0.114 C 
HETATM    6  C   UNL     1       4.258  29.739  56.514  1.00  0.00     0.035 C 
BRANCH   5   7
HETATM    7  C   UNL     1       5.288  28.111  54.830  1.00  0.00     0.173 C 
BRANCH   7   8
HETATM    8  O   UNL     1       5.628  29.035  53.796  1.00  0.00    -0.389 OA
HETATM    9  H   UNL     1       5.081  28.801  53.014  1.00  0.00     0.210 HD
ENDBRANCH   7   8
BRANCH   7  10
HETATM   10  C   UNL     1       6.051  26.807  54.676  1.00  0.00    -0.028 A 
HETATM   11  C   UNL     1       6.952  26.645  53.614  1.00  0.00     0.012 A 
HETATM   12  C   UNL     1       7.666  25.454  53.462  1.00  0.00     0.037 A 
HETATM   13  C   UNL     1       7.499  24.402  54.364  1.00  0.00     0.068 A 
HETATM   14  C   UNL     1       6.595  24.545  55.414  1.00  0.00     0.037 A 
HETATM   15  C   UNL     1       5.880  25.739  55.569  1.00  0.00     0.012 A 
BRANCH  13  16
HETATM   16  O   UNL     1       8.265  23.298  54.108  1.00  0.00    -0.356 OA
HETATM   17  C   UNL     1       7.909  22.529  52.964  1.00  0.00     0.210 C 
ENDBRANCH  13  16
ENDBRANCH   7  10
ENDBRANCH   5   7
ENDBRANCH   1   5
BRANCH   2  18
HETATM   18  C   UNL     1       8.838  29.494  57.702  1.00  0.00     0.079 A 
HETATM   19  C   UNL     1       8.939  30.728  58.350  1.00  0.00     0.165 A 
HETATM   20  N   UNL     1      10.113  31.438  58.334  1.00  0.00    -0.241 NA
HETATM   21  C   UNL     1      11.185  30.919  57.702  1.00  0.00     0.119 A 
HETATM   22  C   UNL     1      11.168  29.701  57.056  1.00  0.00     0.020 A 
HETATM   23  C   UNL     1       9.975  28.987  57.044  1.00  0.00     0.022 A 
BRANCH  19  24
HETATM   24  N   UNL     1       7.866  31.312  59.111  1.00  0.00    -0.226 N 
HETATM   25  N   UNL     1       6.848  31.961  58.469  1.00  0.00    -0.179 NA
HETATM   26  C   UNL     1       6.022  32.355  59.436  1.00  0.00     0.141 A 
HETATM   27  C   UNL     1       6.511  32.057  60.712  1.00  0.00     0.040 A 
HETATM   28  C   UNL     1       7.712  31.430  60.481  1.00  0.00     0.122 A 
ENDBRANCH  19  24
ENDBRANCH   2  18
TORSDOF 7
ENDMDL
MODEL 4
REMARK VINA RESULT:      -7.2      3.759      7.343
REMARK  7 active torsions:
REMARK  status: ('A' for Active; 'I' for Inactive)
REMARK    1  A    between atoms: C_2  and  N_3 
REMARK    2  A    between atoms: C_2  and  C_17 
REMARK       I    between atoms: N_3  and  C_4 
REMARK    3  A    between atoms: C_4  and  C_5 
REMARK    4  A    between atoms: C_6  and  N_7 
REMARK    5  A    between atoms: C_17  and  O_18 
REMARK    6  A    between atoms: C_17  and  C_19 
REMARK    7  A    between atoms: C_22  and  O_23 
ROOT
HETATM    1  N   UNL     1       4.532  26.681  51.151  1.00  0.00    -0.350 N 
HETATM    2  C   UNL     1       4.782  27.318  49.956  1.00  0.00     0.255 C 
HETATM    3  O   UNL     1       5.740  28.056  49.768  1.00  0.00    -0.268 OA
HETATM    4  H   UNL     1       3.737  26.056  51.213  1.00  0.00     0.163 HD
ENDROOT
BRANCH   1   5
HETATM    5  C   UNL     1       5.403  26.749  52.334  1.00  0.00     0.114 C 
HETATM    6  C   UNL     1       5.434  28.174  52.888  1.00  0.00     0.035 C 
BRANCH   5   7
HETATM    7  C   UNL     1       5.109  25.701  53.457  1.00  0.00     0.173 C 
BRANCH   7   8
HETATM    8  O   UNL     1       3.902  24.972  53.241  1.00  0.00    -0.389 OA
HETATM    9  H   UNL     1       3.165  25.548  53.540  1.00  0.00     0.210 HD
ENDBRANCH   7   8
BRANCH   7  10
HETATM   10  C   UNL     1       6.273  24.768  53.744  1.00  0.00    -0.028 A 
HETATM   11  C   UNL     1       6.625  24.477  55.069  1.00  0.00     0.012 A 
HETATM   12  C   UNL     1       7.689  23.616  55.351  1.00  0.00     0.037 A 
HETATM   13  C   UNL     1       8.421  23.026  54.319  1.00  0.00     0.068 A 
HETATM   14  C   UNL     1       8.091  23.321  52.998  1.00  0.00     0.037 A 
HETATM   15  C   UNL     1       7.024  24.181  52.715  1.00  0.00     0.012 A 
BRANCH  13  16
HETATM   16  O   UNL     1       9.428  22.197  54.730  1.00  0.00    -0.356 OA
HETATM   17  C   UNL     1       9.035  20.956  55.305  1.00  0.00     0.210 C 
ENDBRANCH  13  16
ENDBRANCH   7  10
ENDBRANCH   5   7
ENDBRANCH   1   5
BRANCH   2  18
HETATM   18  C   UNL     1       3.792  27.091  48.886  1.00  0.00     0.079 A 
HETATM   19  C   UNL     1       2.682  27.906  48.650  1.00  0.00     0.165 A 
HETATM   20  N   UNL     1       1.710  27.531  47.757  1.00  0.00    -0.241 NA
HETATM   21  C   UNL     1       1.848  26.371  47.085  1.00  0.00     0.119 A 
HETATM   22  C   UNL     1       2.922  25.522  47.251  1.00  0.00     0.020 A 
HETATM   23  C   UNL     1       3.899  25.881  48.174  1.00  0.00     0.022 A 
BRANCH  19  24
HETATM   24  N   UNL     1       2.501  29.194  49.266  1.00  0.00    -0.226 N 
HETATM   25  N   UNL     1       3.070  30.305  48.706  1.00  0.00    -0.179 NA
HETATM   26  C   UNL     1       2.700  31.317  49.487  1.00  0.00     0.141 A 
HETATM   27  C   UNL     1       1.970  30.893  50.602  1.00  0.00     0.040 A 
HETATM   28  C   UNL     1       1.894  29.528  50.464  1.00  0.00     0.122 A 
ENDBRANCH  19  24
ENDBRANCH   2  18
TORSDOF 7
ENDMDL
MODEL 5
REMARK VINA RESULT:      -7.1      2.788      6.826
REMARK  7 active torsions:
REMARK  status: ('A' for Active; 'I' for Inactive)
REMARK    1  A    between atoms: C_2  and  N_3 
REMARK    2  A    between atoms: C_2  and  C_17 
REMARK       I    between atoms: N_3  and  C_4 
REMARK    3  A    between atoms: C_4  and  C_5 
REMARK    4  A    between atoms: C_6  and  N_7 
REMARK    5  A    between atoms: C_17  and  O_18 
REMARK    6  A    between atoms: C_17  and  C_19 
REMARK    7  A    between atoms: C_22  and  O_23 
ROOT
HETATM    1  N   UNL     1       5.251  27.420  54.186  1.00  0.00    -0.350 N 
HETATM    2  C   UNL     1       4.919  27.901  55.432  1.00  0.00     0.255 C 
HETATM    3  O   UNL     1       4.742  27.187  56.410  1.00  0.00    -0.268 OA
HETATM    4  H   UNL     1       5.418  28.080  53.436  1.00  0.00     0.163 HD
ENDROOT
BRANCH   1   5
HETATM    5  C   UNL     1       5.497  26.003  53.874  1.00  0.00     0.114 C 
HETATM    6  C   UNL     1       4.488  25.506  52.838  1.00  0.00     0.035 C 
BRANCH   5   7
HETATM    7  C   UNL     1       6.964  25.640  53.469  1.00  0.00     0.173 C 
BRANCH   7   8
HETATM    8  O   UNL     1       7.930  26.556  53.982  1.00  0.00    -0.389 OA
HETATM    9  H   UNL     1       8.087  27.226  53.281  1.00  0.00     0.210 HD
ENDBRANCH   7   8
BRANCH   7  10
HETATM   10  C   UNL     1       7.347  24.204  53.779  1.00  0.00    -0.028 A 
HETATM   11  C   UNL     1       7.257  23.724  55.093  1.00  0.00     0.012 A 
HETATM   12  C   UNL     1       7.600  22.403  55.394  1.00  0.00     0.037 A 
HETATM   13  C   UNL     1       8.036  21.534  54.393  1.00  0.00     0.068 A 
HETATM   14  C   UNL     1       8.145  22.003  53.086  1.00  0.00     0.037 A 
HETATM   15  C   UNL     1       7.800  23.326  52.782  1.00  0.00     0.012 A 
BRANCH  13  16
HETATM   16  O   UNL     1       8.328  20.267  54.818  1.00  0.00    -0.356 OA
HETATM   17  C   UNL     1       8.857  20.145  56.134  1.00  0.00     0.210 C 
ENDBRANCH  13  16
ENDBRANCH   7  10
ENDBRANCH   5   7
ENDBRANCH   1   5
BRANCH   2  18
HETATM   18  C   UNL     1       4.746  29.362  55.532  1.00  0.00     0.079 A 
HETATM   19  C   UNL     1       5.644  30.223  56.170  1.00  0.00     0.165 A 
HETATM   20  N   UNL     1       5.328  31.541  56.381  1.00  0.00    -0.241 NA
HETATM   21  C   UNL     1       4.142  32.010  55.944  1.00  0.00     0.119 A 
HETATM   22  C   UNL     1       3.212  31.227  55.293  1.00  0.00     0.020 A 
HETATM   23  C   UNL     1       3.513  29.884  55.097  1.00  0.00     0.022 A 
BRANCH  19  24
HETATM   24  N   UNL     1       6.959  29.820  56.594  1.00  0.00    -0.226 N 
HETATM   25  N   UNL     1       7.814  29.231  55.703  1.00  0.00    -0.179 NA
HETATM   26  C   UNL     1       8.933  29.008  56.389  1.00  0.00     0.141 A 
HETATM   27  C   UNL     1       8.812  29.357  57.737  1.00  0.00     0.040 A 
HETATM   28  C   UNL     1       7.528  29.832  57.855  1.00  0.00     0.122 A 
ENDBRANCH  19  24
ENDBRANCH   2  18
TORSDOF 7
ENDMDL
MODEL 6
REMARK VINA RESULT:      -7.0      2.150      2.942
REMARK  7 active torsions:
REMARK  status: ('A' for Active; 'I' for Inactive)
REMARK    1  A    between atoms: C_2  and  N_3 
REMARK    2  A    between atoms: C_2  and  C_17 
REMARK       I    between atoms: N_3  and  C_4 
REMARK    3  A    between atoms: C_4  and  C_5 
REMARK    4  A    between atoms: C_6  and  N_7 
REMARK    5  A    between atoms: C_17  and  O_18 
REMARK    6  A    between atoms: C_17  and  C_19 
REMARK    7  A    between atoms: C_22  and  O_23 
ROOT
HETATM    1  N   UNL     1       6.052  24.574  52.942  1.00  0.00    -0.350 N 
HETATM    2  C   UNL     1       7.365  24.176  53.058  1.00  0.00     0.255 C 
HETATM    3  O   UNL     1       8.307  24.801  52.591  1.00  0.00    -0.268 OA
HETATM    4  H   UNL     1       5.333  24.020  53.391  1.00  0.00     0.163 HD
ENDROOT
BRANCH   1   5
HETATM    5  C   UNL     1       5.609  25.822  52.302  1.00  0.00     0.114 C 
HETATM    6  C   UNL     1       5.055  25.534  50.906  1.00  0.00     0.035 C 
BRANCH   5   7
HETATM    7  C   UNL     1       4.628  26.706  53.140  1.00  0.00     0.173 C 
BRANCH   7   8
HETATM    8  O   UNL     1       4.895  26.666  54.541  1.00  0.00    -0.389 OA
HETATM    9  H   UNL     1       4.061  26.391  54.982  1.00  0.00     0.210 HD
ENDBRANCH   7   8
BRANCH   7  10
HETATM   10  C   UNL     1       4.513  28.136  52.641  1.00  0.00    -0.028 A 
HETATM   11  C   UNL     1       5.475  28.648  51.759  1.00  0.00     0.012 A 
HETATM   12  C   UNL     1       5.381  29.959  51.286  1.00  0.00     0.037 A 
HETATM   13  C   UNL     1       4.327  30.785  51.679  1.00  0.00     0.068 A 
HETATM   14  C   UNL     1       3.374  30.294  52.568  1.00  0.00     0.037 A 
HETATM   15  C   UNL     1       3.466  28.979  53.041  1.00  0.00     0.012 A 
BRANCH  13  16
HETATM   16  O   UNL     1       4.347  32.040  51.135  1.00  0.00    -0.356 OA
HETATM   17  C   UNL     1       5.549  32.431  50.482  1.00  0.00     0.210 C 
ENDBRANCH  13  16
ENDBRANCH   7  10
ENDBRANCH   5   7
ENDBRANCH   1   5
BRANCH   2  18
HETATM   18  C   UNL     1       7.591  22.901  53.765  1.00  0.00     0.079 A 
HETATM   19  C   UNL     1       7.830  22.790  55.138  1.00  0.00     0.165 A 
HETATM   20  N   UNL     1       8.211  21.594  55.692  1.00  0.00    -0.241 NA
HETATM   21  C   UNL     1       8.330  20.511  54.898  1.00  0.00     0.119 A 
HETATM   22  C   UNL     1       8.095  20.538  53.540  1.00  0.00     0.020 A 
HETATM   23  C   UNL     1       7.734  21.752  52.965  1.00  0.00     0.022 A 
BRANCH  19  24
HETATM   24  N   UNL     1       7.648  23.877  56.063  1.00  0.00    -0.226 N 
HETATM   25  N   UNL     1       6.418  24.460  56.198  1.00  0.00    -0.179 NA
HETATM   26  C   UNL     1       6.577  25.397  57.130  1.00  0.00     0.141 A 
HETATM   27  C   UNL     1       7.904  25.507  57.557  1.00  0.00     0.040 A 
HETATM   28  C   UNL     1       8.579  24.557  56.829  1.00  0.00     0.122 A 
ENDBRANCH  19  24
ENDBRANCH   2  18
TORSDOF 7
ENDMDL
MODEL 7
REMARK VINA RESULT:      -6.9      6.900      9.826
REMARK  7 active torsions:
REMARK  status: ('A' for Active; 'I' for Inactive)
REMARK    1  A    between atoms: C_2  and  N_3 
REMARK    2  A    between atoms: C_2  and  C_17 
REMARK       I    between atoms: N_3  and  C_4 
REMARK    3  A    between atoms: C_4  and  C_5 
REMARK    4  A    between atoms: C_6  and  N_7 
REMARK    5  A    between atoms: C_17  and  O_18 
REMARK    6  A    between atoms: C_17  and  C_19 
REMARK    7  A    between atoms: C_22  and  O_23 
ROOT
HETATM    1  N   UNL     1       7.613  30.803  60.528  1.00  0.00    -0.350 N 
HETATM    2  C   UNL     1       8.058  31.111  59.262  1.00  0.00     0.255 C 
HETATM    3  O   UNL     1       8.759  32.081  59.007  1.00  0.00    -0.268 OA
HETATM    4  H   UNL     1       7.067  29.960  60.661  1.00  0.00     0.163 HD
ENDROOT
BRANCH   1   5
HETATM    5  C   UNL     1       7.965  31.551  61.745  1.00  0.00     0.114 C 
HETATM    6  C   UNL     1       9.484  31.593  61.919  1.00  0.00     0.035 C 
BRANCH   5   7
HETATM    7  C   UNL     1       7.331  32.974  61.878  1.00  0.00     0.173 C 
BRANCH   7   8
HETATM    8  O   UNL     1       6.389  33.266  60.847  1.00  0.00    -0.389 OA
HETATM    9  H   UNL     1       5.528  33.440  61.288  1.00  0.00     0.210 HD
ENDBRANCH   7   8
BRANCH   7  10
HETATM   10  C   UNL     1       6.750  33.260  63.252  1.00  0.00    -0.028 A 
HETATM   11  C   UNL     1       5.361  33.336  63.422  1.00  0.00     0.012 A 
HETATM   12  C   UNL     1       4.811  33.592  64.681  1.00  0.00     0.037 A 
HETATM   13  C   UNL     1       5.632  33.775  65.794  1.00  0.00     0.068 A 
HETATM   14  C   UNL     1       7.015  33.718  65.635  1.00  0.00     0.037 A 
HETATM   15  C   UNL     1       7.567  33.459  64.375  1.00  0.00     0.012 A 
BRANCH  13  16
HETATM   16  O   UNL     1       4.968  34.007  66.967  1.00  0.00    -0.356 OA
HETATM   17  C   UNL     1       5.616  34.855  67.908  1.00  0.00     0.210 C 
ENDBRANCH  13  16
ENDBRANCH   7  10
ENDBRANCH   5   7
ENDBRANCH   1   5
BRANCH   2  18
HETATM   18  C   UNL     1       7.608  30.211  58.184  1.00  0.00     0.079 A 
HETATM   19  C   UNL     1       6.335  30.241  57.608  1.00  0.00     0.165 A 
HETATM   20  N   UNL     1       5.930  29.258  56.741  1.00  0.00    -0.241 NA
HETATM   21  C   UNL     1       6.787  28.265  56.428  1.00  0.00     0.119 A 
HETATM   22  C   UNL     1       8.064  28.176  56.942  1.00  0.00     0.020 A 
HETATM   23  C   UNL     1       8.473  29.154  57.843  1.00  0.00     0.022 A 
BRANCH  19  24
HETATM   24  N   UNL     1       5.393  31.307  57.828  1.00  0.00    -0.226 N 
HETATM   25  N   UNL     1       5.745  32.599  57.550  1.00  0.00    -0.179 NA
HETATM   26  C   UNL     1       4.665  33.323  57.833  1.00  0.00     0.141 A 
HETATM   27  C   UNL     1       3.631  32.553  58.373  1.00  0.00     0.040 A 
HETATM   28  C   UNL     1       4.134  31.274  58.403  1.00  0.00     0.122 A 
ENDBRANCH  19  24
ENDBRANCH   2  18
TORSDOF 7
ENDMDL
MODEL 8
REMARK VINA RESULT:      -6.9      3.350      7.732
REMARK  7 active torsions:
REMARK  status: ('A' for Active; 'I' for Inactive)
REMARK    1  A    between atoms: C_2  and  N_3 
REMARK    2  A    between atoms: C_2  and  C_17 
REMARK       I    between atoms: N_3  and  C_4 
REMARK    3  A    between atoms: C_4  and  C_5 
REMARK    4  A    between atoms: C_6  and  N_7 
REMARK    5  A    between atoms: C_17  and  O_18 
REMARK    6  A    between atoms: C_17  and  C_19 
REMARK    7  A    between atoms: C_22  and  O_23 
ROOT
HETATM    1  N   UNL     1       5.412  27.354  51.769  1.00  0.00    -0.350 N 
HETATM    2  C   UNL     1       4.373  28.243  51.927  1.00  0.00     0.255 C 
HETATM    3  O   UNL     1       3.510  28.133  52.788  1.00  0.00    -0.268 OA
HETATM    4  H   UNL     1       6.107  27.538  51.055  1.00  0.00     0.163 HD
ENDROOT
BRANCH   1   5
HETATM    5  C   UNL     1       5.664  26.197  52.641  1.00  0.00     0.114 C 
HETATM    6  C   UNL     1       4.909  24.971  52.125  1.00  0.00     0.035 C 
BRANCH   5   7
HETATM    7  C   UNL     1       7.167  25.871  52.924  1.00  0.00     0.173 C 
BRANCH   7   8
HETATM    8  O   UNL     1       7.820  26.872  53.703  1.00  0.00    -0.389 OA
HETATM    9  H   UNL     1       8.258  27.484  53.071  1.00  0.00     0.210 HD
ENDBRANCH   7   8
BRANCH   7  10
HETATM   10  C   UNL     1       7.395  24.486  53.503  1.00  0.00    -0.028 A 
HETATM   11  C   UNL     1       7.148  24.246  54.862  1.00  0.00     0.012 A 
HETATM   12  C   UNL     1       7.347  22.976  55.409  1.00  0.00     0.037 A 
HETATM   13  C   UNL     1       7.793  21.919  54.613  1.00  0.00     0.068 A 
HETATM   14  C   UNL     1       8.058  22.148  53.265  1.00  0.00     0.037 A 
HETATM   15  C   UNL     1       7.857  23.420  52.716  1.00  0.00     0.012 A 
BRANCH  13  16
HETATM   16  O   UNL     1       7.935  20.727  55.269  1.00  0.00    -0.356 OA
HETATM   17  C   UNL     1       8.377  20.793  56.620  1.00  0.00     0.210 C 
ENDBRANCH  13  16
ENDBRANCH   7  10
ENDBRANCH   5   7
ENDBRANCH   1   5
BRANCH   2  18
HETATM   18  C   UNL     1       4.323  29.354  50.958  1.00  0.00     0.079 A 
HETATM   19  C   UNL     1       4.071  29.201  49.592  1.00  0.00     0.165 A 
HETATM   20  N   UNL     1       4.220  30.254  48.725  1.00  0.00    -0.241 NA
HETATM   21  C   UNL     1       4.592  31.456  49.210  1.00  0.00     0.119 A 
HETATM   22  C   UNL     1       4.841  31.689  50.546  1.00  0.00     0.020 A 
HETATM   23  C   UNL     1       4.719  30.621  51.428  1.00  0.00     0.022 A 
BRANCH  19  24
HETATM   24  N   UNL     1       3.595  27.974  49.008  1.00  0.00    -0.226 N 
HETATM   25  N   UNL     1       4.459  26.932  48.810  1.00  0.00    -0.179 NA
HETATM   26  C   UNL     1       3.715  25.959  48.288  1.00  0.00     0.141 A 
HETATM   27  C   UNL     1       2.396  26.359  48.057  1.00  0.00     0.040 A 
HETATM   28  C   UNL     1       2.353  27.665  48.482  1.00  0.00     0.122 A 
ENDBRANCH  19  24
ENDBRANCH   2  18
TORSDOF 7
ENDMDL
MODEL 9
REMARK VINA RESULT:      -6.9      3.110      5.774
REMARK  7 active torsions:
REMARK  status: ('A' for Active; 'I' for Inactive)
REMARK    1  A    between atoms: C_2  and  N_3 
REMARK    2  A    between atoms: C_2  and  C_17 
REMARK       I    between atoms: N_3  and  C_4 
REMARK    3  A    between atoms: C_4  and  C_5 
REMARK    4  A    between atoms: C_6  and  N_7 
REMARK    5  A    between atoms: C_17  and  O_18 
REMARK    6  A    between atoms: C_17  and  C_19 
REMARK    7  A    between atoms: C_22  and  O_23 
ROOT
HETATM    1  N   UNL     1       5.694  26.539  52.608  1.00  0.00    -0.350 N 
HETATM    2  C   UNL     1       5.521  25.175  52.672  1.00  0.00     0.255 C 
HETATM    3  O   UNL     1       4.591  24.583  52.141  1.00  0.00    -0.268 OA
HETATM    4  H   UNL     1       6.513  26.949  53.043  1.00  0.00     0.163 HD
ENDROOT
BRANCH   1   5
HETATM    5  C   UNL     1       4.831  27.458  51.849  1.00  0.00     0.114 C 
HETATM    6  C   UNL     1       4.927  28.872  52.424  1.00  0.00     0.035 C 
BRANCH   5   7
HETATM    7  C   UNL     1       5.028  27.453  50.297  1.00  0.00     0.173 C 
BRANCH   7   8
HETATM    8  O   UNL     1       5.921  26.434  49.850  1.00  0.00    -0.389 OA
HETATM    9  H   UNL     1       5.421  25.878  49.212  1.00  0.00     0.210 HD
ENDBRANCH   7   8
BRANCH   7  10
HETATM   10  C   UNL     1       3.727  27.429  49.515  1.00  0.00    -0.028 A 
HETATM   11  C   UNL     1       3.469  26.382  48.618  1.00  0.00     0.012 A 
HETATM   12  C   UNL     1       2.274  26.342  47.895  1.00  0.00     0.037 A 
HETATM   13  C   UNL     1       1.312  27.341  48.052  1.00  0.00     0.068 A 
HETATM   14  C   UNL     1       1.563  28.395  48.928  1.00  0.00     0.037 A 
HETATM   15  C   UNL     1       2.759  28.435  49.654  1.00  0.00     0.012 A 
BRANCH  13  16
HETATM   16  O   UNL     1       0.184  27.177  47.295  1.00  0.00    -0.356 OA
HETATM   17  C   UNL     1       0.075  27.992  46.133  1.00  0.00     0.210 C 
ENDBRANCH  13  16
ENDBRANCH   7  10
ENDBRANCH   5   7
ENDBRANCH   1   5
BRANCH   2  18
HETATM   18  C   UNL     1       6.521  24.436  53.465  1.00  0.00     0.079 A 
HETATM   19  C   UNL     1       6.950  24.809  54.742  1.00  0.00     0.165 A 
HETATM   20  N   UNL     1       8.012  24.179  55.341  1.00  0.00    -0.241 NA
HETATM   21  C   UNL     1       8.628  23.171  54.691  1.00  0.00     0.119 A 
HETATM   22  C   UNL     1       8.252  22.736  53.438  1.00  0.00     0.020 A 
HETATM   23  C   UNL     1       7.194  23.386  52.812  1.00  0.00     0.022 A 
BRANCH  19  24
HETATM   24  N   UNL     1       6.297  25.819  55.532  1.00  0.00    -0.226 N 
HETATM   25  N   UNL     1       6.714  27.120  55.459  1.00  0.00    -0.179 NA
HETATM   26  C   UNL     1       5.905  27.791  56.275  1.00  0.00     0.141 A 
HETATM   27  C   UNL     1       5.016  26.954  56.955  1.00  0.00     0.040 A 
HETATM   28  C   UNL     1       5.314  25.693  56.498  1.00  0.00     0.122 A 
ENDBRANCH  19  24
ENDBRANCH   2  18
TORSDOF 7
ENDMDL
MODEL 10
REMARK VINA RESULT:      -6.7      3.252      6.944
REMARK  7 active torsions:
REMARK  status: ('A' for Active; 'I' for Inactive)
REMARK    1  A    between atoms: C_2  and  N_3 
REMARK    2  A    between atoms: C_2  and  C_17 
REMARK       I    between atoms: N_3  and  C_4 
REMARK    3  A    between atoms: C_4  and  C_5 
REMARK    4  A    between atoms: C_6  and  N_7 
REMARK    5  A    between atoms: C_17  and  O_18 
REMARK    6  A    between atoms: C_17  and  C_19 
REMARK    7  A    between atoms: C_22  and  O_23 
ROOT
HETATM    1  N   UNL     1       5.688  28.345  52.190  1.00  0.00    -0.350 N 
HETATM    2  C   UNL     1       5.045  27.847  53.300  1.00  0.00     0.255 C 
HETATM    3  O   UNL     1       3.874  27.491  53.304  1.00  0.00    -0.268 OA
HETATM    4  H   UNL     1       6.671  28.581  52.260  1.00  0.00     0.163 HD
ENDROOT
BRANCH   1   5
HETATM    5  C   UNL     1       5.084  28.459  50.853  1.00  0.00     0.114 C 
HETATM    6  C   UNL     1       5.715  29.621  50.085  1.00  0.00     0.035 C 
BRANCH   5   7
HETATM    7  C   UNL     1       5.065  27.148  50.000  1.00  0.00     0.173 C 
BRANCH   7   8
HETATM    8  O   UNL     1       5.164  25.964  50.790  1.00  0.00    -0.389 OA
HETATM    9  H   UNL     1       4.251  25.731  51.068  1.00  0.00     0.210 HD
ENDBRANCH   7   8
BRANCH   7  10
HETATM   10  C   UNL     1       3.901  27.067  49.028  1.00  0.00    -0.028 A 
HETATM   11  C   UNL     1       2.766  27.865  49.229  1.00  0.00     0.012 A 
HETATM   12  C   UNL     1       1.688  27.807  48.341  1.00  0.00     0.037 A 
HETATM   13  C   UNL     1       1.721  26.956  47.235  1.00  0.00     0.068 A 
HETATM   14  C   UNL     1       2.837  26.147  47.033  1.00  0.00     0.037 A 
HETATM   15  C   UNL     1       3.918  26.205  47.921  1.00  0.00     0.012 A 
BRANCH  13  16
HETATM   16  O   UNL     1       0.609  27.004  46.439  1.00  0.00    -0.356 OA
HETATM   17  C   UNL     1       0.114  28.298  46.117  1.00  0.00     0.210 C 
ENDBRANCH  13  16
ENDBRANCH   7  10
ENDBRANCH   5   7
ENDBRANCH   1   5
BRANCH   2  18
HETATM   18  C   UNL     1       5.847  27.791  54.537  1.00  0.00     0.079 A 
HETATM   19  C   UNL     1       6.670  26.722  54.898  1.00  0.00     0.165 A 
HETATM   20  N   UNL     1       7.241  26.660  56.145  1.00  0.00    -0.241 NA
HETATM   21  C   UNL     1       7.017  27.662  57.018  1.00  0.00     0.119 A 
HETATM   22  C   UNL     1       6.230  28.758  56.730  1.00  0.00     0.020 A 
HETATM   23  C   UNL     1       5.627  28.815  55.479  1.00  0.00     0.022 A 
BRANCH  19  24
HETATM   24  N   UNL     1       7.022  25.656  53.997  1.00  0.00    -0.226 N 
HETATM   25  N   UNL     1       7.754  25.925  52.873  1.00  0.00    -0.179 NA
HETATM   26  C   UNL     1       7.928  24.746  52.280  1.00  0.00     0.141 A 
HETATM   27  C   UNL     1       7.257  23.711  52.939  1.00  0.00     0.040 A 
HETATM   28  C   UNL     1       6.648  24.324  54.009  1.00  0.00     0.122 A 
ENDBRANCH  19  24
ENDBRANCH   2  18
TORSDOF 7
ENDMDL
