MODEL 1
REMARK VINA RESULT:      -9.7      0.000      0.000
REMARK  7 active torsions:
REMARK  status: ('A' for Active; 'I' for Inactive)
REMARK    1  A    between atoms: C_2  and  C_3 
REMARK    2  A    between atoms: C_3  and  N_4 
REMARK       I    between atoms: N_4  and  C_5 
REMARK    3  A    between atoms: C_5  and  C_6 
REMARK    4  A    between atoms: C_7  and  N_8 
REMARK    5  A    between atoms: N_9  and  N_10 
REMARK    6  A    between atoms: C_11  and  C_12 
REMARK    7  A    between atoms: C_13  and  O_14 
ROOT
HETATM    1  C   UNL     1       7.119  26.313  55.259  1.00  0.00     0.104 C 
HETATM    2  C   UNL     1       7.242  26.997  54.057  1.00  0.00     0.123 C 
HETATM    3  N   UNL     1       7.152  26.069  53.025  1.00  0.00    -0.202 N 
HETATM    4  C   UNL     1       7.408  24.818  53.558  1.00  0.00     0.183 A 
HETATM    5  C   UNL     1       7.361  24.948  54.945  1.00  0.00     0.124 A 
HETATM    6  N   UNL     1       7.498  23.864  55.750  1.00  0.00    -0.242 NA
HETATM    7  C   UNL     1       7.744  22.709  55.119  1.00  0.00     0.086 A 
HETATM    8  C   UNL     1       7.809  22.608  53.704  1.00  0.00     0.088 A 
HETATM    9  N   UNL     1       7.621  23.659  52.888  1.00  0.00    -0.225 NA
HETATM   10  C   UNL     1       7.949  21.570  55.886  1.00  0.00     0.034 A 
HETATM   11  C   UNL     1       8.221  20.333  55.300  1.00  0.00     0.002 A 
HETATM   12  C   UNL     1       8.286  20.232  53.918  1.00  0.00     0.002 A 
HETATM   13  C   UNL     1       8.077  21.368  53.135  1.00  0.00     0.034 A 
ENDROOT
BRANCH   3  14
HETATM   14  N   UNL     1       6.787  26.485  51.763  1.00  0.00    -0.176 NA
HETATM   15  C   UNL     1       5.521  26.493  51.491  1.00  0.00     0.153 C 
BRANCH  15  16
HETATM   16  C   UNL     1       5.040  27.131  50.241  1.00  0.00     0.017 A 
HETATM   17  C   UNL     1       5.246  28.494  49.980  1.00  0.00     0.077 A 
HETATM   18  C   UNL     1       4.702  29.089  48.845  1.00  0.00     0.039 A 
HETATM   19  C   UNL     1       3.941  28.324  47.962  1.00  0.00     0.022 A 
HETATM   20  C   UNL     1       3.735  26.967  48.221  1.00  0.00     0.012 A 
HETATM   21 BR   UNL     1       2.685  25.940  47.030  1.00  0.00    -0.051 Br
HETATM   22  C   UNL     1       4.279  26.363  49.356  1.00  0.00     0.034 A 
BRANCH  17  23
HETATM   23  O   UNL     1       5.947  29.315  50.821  1.00  0.00    -0.360 OA
HETATM   24  H   UNL     1       5.474  29.295  51.681  1.00  0.00     0.217 HD
ENDBRANCH  17  23
ENDBRANCH  15  16
ENDBRANCH   3  14
BRANCH   2  25
HETATM   25  N   UNL     1       7.292  28.341  53.793  1.00  0.00    -0.286 NA
HETATM   26  H   UNL     1       7.701  28.623  52.899  1.00  0.00     0.125 HD
HETATM   27  H   UNL     1       6.422  28.859  53.942  1.00  0.00     0.125 HD
ENDBRANCH   2  25
BRANCH   1  28
HETATM   28  C   UNL     1       6.751  26.886  56.552  1.00  0.00     0.257 C 
HETATM   29  N   UNL     1       7.583  27.922  56.941  1.00  0.00    -0.352 N 
HETATM   30  H   UNL     1       8.283  28.170  56.249  1.00  0.00     0.163 HD
HETATM   31  O   UNL     1       5.745  26.565  57.172  1.00  0.00    -0.267 OA
BRANCH  29  32
HETATM   32  C   UNL     1       7.159  28.988  57.838  1.00  0.00     0.080 C 
HETATM   33  C   UNL     1       8.351  29.666  58.513  1.00  0.00     0.032 C 
BRANCH  32  34
HETATM   34  C   UNL     1       6.336  30.039  57.066  1.00  0.00     0.020 C 
HETATM   35  C   UNL     1       4.847  30.016  57.401  1.00  0.00     0.007 C 
ENDBRANCH  32  34
ENDBRANCH  29  32
ENDBRANCH   1  28
TORSDOF 7
ENDMDL
MODEL 2
REMARK VINA RESULT:      -9.4      3.554      7.304
REMARK  7 active torsions:
REMARK  status: ('A' for Active; 'I' for Inactive)
REMARK    1  A    between atoms: C_2  and  C_3 
REMARK    2  A    between atoms: C_3  and  N_4 
REMARK       I    between atoms: N_4  and  C_5 
REMARK    3  A    between atoms: C_5  and  C_6 
REMARK    4  A    between atoms: C_7  and  N_8 
REMARK    5  A    between atoms: N_9  and  N_10 
REMARK    6  A    between atoms: C_11  and  C_12 
REMARK    7  A    between atoms: C_13  and  O_14 
ROOT
HETATM    1  C   UNL     1       5.233  27.451  54.109  1.00  0.00     0.104 C 
HETATM    2  C   UNL     1       5.311  28.095  55.337  1.00  0.00     0.123 C 
HETATM    3  N   UNL     1       6.439  27.621  55.999  1.00  0.00    -0.202 N 
HETATM    4  C   UNL     1       6.800  26.421  55.412  1.00  0.00     0.183 A 
HETATM    5  C   UNL     1       6.081  26.316  54.222  1.00  0.00     0.124 A 
HETATM    6  N   UNL     1       6.280  25.271  53.379  1.00  0.00    -0.242 NA
HETATM    7  C   UNL     1       7.148  24.346  53.808  1.00  0.00     0.086 A 
HETATM    8  C   UNL     1       7.851  24.466  55.036  1.00  0.00     0.088 A 
HETATM    9  N   UNL     1       7.709  25.520  55.858  1.00  0.00    -0.225 NA
HETATM   10  C   UNL     1       7.358  23.223  53.018  1.00  0.00     0.034 A 
HETATM   11  C   UNL     1       8.239  22.212  53.404  1.00  0.00     0.002 A 
HETATM   12  C   UNL     1       8.926  22.327  54.604  1.00  0.00     0.002 A 
HETATM   13  C   UNL     1       8.727  23.452  55.405  1.00  0.00     0.034 A 
ENDROOT
BRANCH   3  14
HETATM   14  N   UNL     1       7.015  28.378  56.995  1.00  0.00    -0.176 NA
HETATM   15  C   UNL     1       8.155  28.930  56.729  1.00  0.00     0.153 C 
BRANCH  15  16
HETATM   16  C   UNL     1       8.726  29.930  57.664  1.00  0.00     0.017 A 
HETATM   17  C   UNL     1       9.915  30.617  57.375  1.00  0.00     0.077 A 
HETATM   18  C   UNL     1      10.481  31.480  58.310  1.00  0.00     0.039 A 
HETATM   19  C   UNL     1       9.864  31.657  59.547  1.00  0.00     0.022 A 
HETATM   20  C   UNL     1       8.681  30.973  59.836  1.00  0.00     0.012 A 
HETATM   21 BR   UNL     1       7.860  31.203  61.524  1.00  0.00    -0.051 Br
HETATM   22  C   UNL     1       8.106  30.108  58.903  1.00  0.00     0.034 A 
BRANCH  17  23
HETATM   23  O   UNL     1      10.597  30.463  56.198  1.00  0.00    -0.360 OA
HETATM   24  H   UNL     1       9.946  30.623  55.481  1.00  0.00     0.217 HD
ENDBRANCH  17  23
ENDBRANCH  15  16
ENDBRANCH   3  14
BRANCH   2  25
HETATM   25  N   UNL     1       4.574  29.128  55.855  1.00  0.00    -0.286 NA
HETATM   26  H   UNL     1       4.694  30.046  55.420  1.00  0.00     0.125 HD
HETATM   27  H   UNL     1       3.576  28.945  55.983  1.00  0.00     0.125 HD
ENDBRANCH   2  25
BRANCH   1  28
HETATM   28  C   UNL     1       4.484  27.900  52.938  1.00  0.00     0.257 C 
HETATM   29  N   UNL     1       5.234  27.877  51.774  1.00  0.00    -0.352 N 
HETATM   30  H   UNL     1       6.167  27.495  51.894  1.00  0.00     0.163 HD
HETATM   31  O   UNL     1       3.288  28.159  52.959  1.00  0.00    -0.267 OA
BRANCH  29  32
HETATM   32  C   UNL     1       4.644  27.731  50.451  1.00  0.00     0.080 C 
HETATM   33  C   UNL     1       5.312  28.651  49.430  1.00  0.00     0.032 C 
BRANCH  32  34
HETATM   34  C   UNL     1       4.752  26.268  49.977  1.00  0.00     0.020 C 
HETATM   35  C   UNL     1       3.873  25.950  48.771  1.00  0.00     0.007 C 
ENDBRANCH  32  34
ENDBRANCH  29  32
ENDBRANCH   1  28
TORSDOF 7
ENDMDL
MODEL 3
REMARK VINA RESULT:      -9.3      3.237      6.663
REMARK  7 active torsions:
REMARK  status: ('A' for Active; 'I' for Inactive)
REMARK    1  A    between atoms: C_2  and  C_3 
REMARK    2  A    between atoms: C_3  and  N_4 
REMARK       I    between atoms: N_4  and  C_5 
REMARK    3  A    between atoms: C_5  and  C_6 
REMARK    4  A    between atoms: C_7  and  N_8 
REMARK    5  A    between atoms: N_9  and  N_10 
REMARK    6  A    between atoms: C_11  and  C_12 
REMARK    7  A    between atoms: C_13  and  O_14 
ROOT
HETATM    1  C   UNL     1       6.003  25.331  53.296  1.00  0.00     0.104 C 
HETATM    2  C   UNL     1       5.413  26.177  54.226  1.00  0.00     0.123 C 
HETATM    3  N   UNL     1       5.994  25.924  55.465  1.00  0.00    -0.202 N 
HETATM    4  C   UNL     1       6.595  24.679  55.402  1.00  0.00     0.183 A 
HETATM    5  C   UNL     1       6.635  24.311  54.058  1.00  0.00     0.124 A 
HETATM    6  N   UNL     1       7.243  23.162  53.668  1.00  0.00    -0.242 NA
HETATM    7  C   UNL     1       7.724  22.403  54.662  1.00  0.00     0.086 A 
HETATM    8  C   UNL     1       7.650  22.790  56.026  1.00  0.00     0.088 A 
HETATM    9  N   UNL     1       7.102  23.950  56.426  1.00  0.00    -0.225 NA
HETATM   10  C   UNL     1       8.311  21.188  54.336  1.00  0.00     0.034 A 
HETATM   11  C   UNL     1       8.824  20.338  55.317  1.00  0.00     0.002 A 
HETATM   12  C   UNL     1       8.752  20.713  56.651  1.00  0.00     0.002 A 
HETATM   13  C   UNL     1       8.170  21.935  56.991  1.00  0.00     0.034 A 
ENDROOT
BRANCH   3  14
HETATM   14  N   UNL     1       5.949  26.886  56.449  1.00  0.00    -0.176 NA
HETATM   15  C   UNL     1       6.882  27.783  56.436  1.00  0.00     0.153 C 
BRANCH  15  16
HETATM   16  C   UNL     1       6.777  28.968  57.322  1.00  0.00     0.017 A 
HETATM   17  C   UNL     1       5.706  29.869  57.229  1.00  0.00     0.077 A 
HETATM   18  C   UNL     1       5.680  31.024  58.006  1.00  0.00     0.039 A 
HETATM   19  C   UNL     1       6.732  31.290  58.881  1.00  0.00     0.022 A 
HETATM   20  C   UNL     1       7.799  30.394  58.975  1.00  0.00     0.012 A 
HETATM   21 BR   UNL     1       9.232  30.772  60.150  1.00  0.00    -0.051 Br
HETATM   22  C   UNL     1       7.831  29.233  58.200  1.00  0.00     0.034 A 
BRANCH  17  23
HETATM   23  O   UNL     1       4.660  29.694  56.363  1.00  0.00    -0.360 OA
HETATM   24  H   UNL     1       4.992  29.951  55.476  1.00  0.00     0.217 HD
ENDBRANCH  17  23
ENDBRANCH  15  16
ENDBRANCH   3  14
BRANCH   2  25
HETATM   25  N   UNL     1       4.530  27.212  54.062  1.00  0.00    -0.286 NA
HETATM   26  H   UNL     1       4.842  28.001  53.490  1.00  0.00     0.125 HD
HETATM   27  H   UNL     1       3.581  26.951  53.784  1.00  0.00     0.125 HD
ENDBRANCH   2  25
BRANCH   1  28
HETATM   28  C   UNL     1       6.016  25.509  51.846  1.00  0.00     0.257 C 
HETATM   29  N   UNL     1       4.841  26.054  51.356  1.00  0.00    -0.352 N 
HETATM   30  H   UNL     1       4.172  26.305  52.078  1.00  0.00     0.163 HD
HETATM   31  O   UNL     1       7.002  25.308  51.149  1.00  0.00    -0.267 OA
BRANCH  29  32
HETATM   32  C   UNL     1       4.775  26.823  50.122  1.00  0.00     0.080 C 
HETATM   33  C   UNL     1       3.931  26.117  49.061  1.00  0.00     0.032 C 
BRANCH  32  34
HETATM   34  C   UNL     1       4.193  28.224  50.397  1.00  0.00     0.020 C 
HETATM   35  C   UNL     1       5.241  29.248  50.824  1.00  0.00     0.007 C 
ENDBRANCH  32  34
ENDBRANCH  29  32
ENDBRANCH   1  28
TORSDOF 7
ENDMDL
MODEL 4
REMARK VINA RESULT:      -9.1      1.368      5.755
REMARK  7 active torsions:
REMARK  status: ('A' for Active; 'I' for Inactive)
REMARK    1  A    between atoms: C_2  and  C_3 
REMARK    2  A    between atoms: C_3  and  N_4 
REMARK       I    between atoms: N_4  and  C_5 
REMARK    3  A    between atoms: C_5  and  C_6 
REMARK    4  A    between atoms: C_7  and  N_8 
REMARK    5  A    between atoms: N_9  and  N_10 
REMARK    6  A    between atoms: C_11  and  C_12 
REMARK    7  A    between atoms: C_13  and  O_14 
ROOT
HETATM    1  C   UNL     1       6.737  25.474  55.178  1.00  0.00     0.104 C 
HETATM    2  C   UNL     1       5.786  25.485  54.165  1.00  0.00     0.123 C 
HETATM    3  N   UNL     1       5.486  26.811  53.873  1.00  0.00    -0.202 N 
HETATM    4  C   UNL     1       5.891  27.582  54.948  1.00  0.00     0.183 A 
HETATM    5  C   UNL     1       6.693  26.774  55.752  1.00  0.00     0.124 A 
HETATM    6  N   UNL     1       7.307  27.277  56.853  1.00  0.00    -0.242 NA
HETATM    7  C   UNL     1       7.029  28.558  57.129  1.00  0.00     0.086 A 
HETATM    8  C   UNL     1       6.190  29.354  56.305  1.00  0.00     0.088 A 
HETATM    9  N   UNL     1       5.618  28.889  55.181  1.00  0.00    -0.225 NA
HETATM   10  C   UNL     1       7.582  29.120  58.272  1.00  0.00     0.034 A 
HETATM   11  C   UNL     1       7.328  30.445  58.630  1.00  0.00     0.002 A 
HETATM   12  C   UNL     1       6.508  31.224  57.828  1.00  0.00     0.002 A 
HETATM   13  C   UNL     1       5.950  30.673  56.674  1.00  0.00     0.034 A 
ENDROOT
BRANCH   3  14
HETATM   14  N   UNL     1       4.949  27.135  52.647  1.00  0.00    -0.176 NA
HETATM   15  C   UNL     1       5.777  27.490  51.718  1.00  0.00     0.153 C 
BRANCH  15  16
HETATM   16  C   UNL     1       5.299  27.640  50.321  1.00  0.00     0.017 A 
HETATM   17  C   UNL     1       5.447  28.843  49.615  1.00  0.00     0.077 A 
HETATM   18  C   UNL     1       4.905  28.989  48.341  1.00  0.00     0.039 A 
HETATM   19  C   UNL     1       4.203  27.930  47.765  1.00  0.00     0.022 A 
HETATM   20  C   UNL     1       4.055  26.732  48.467  1.00  0.00     0.012 A 
HETATM   21 BR   UNL     1       3.085  25.309  47.687  1.00  0.00    -0.051 Br
HETATM   22  C   UNL     1       4.597  26.578  49.744  1.00  0.00     0.034 A 
BRANCH  17  23
HETATM   23  O   UNL     1       6.087  29.936  50.133  1.00  0.00    -0.360 OA
HETATM   24  H   UNL     1       6.638  30.300  49.407  1.00  0.00     0.217 HD
ENDBRANCH  17  23
ENDBRANCH  15  16
ENDBRANCH   3  14
BRANCH   2  25
HETATM   25  N   UNL     1       5.274  24.464  53.408  1.00  0.00    -0.286 NA
HETATM   26  H   UNL     1       4.340  24.128  53.653  1.00  0.00     0.125 HD
HETATM   27  H   UNL     1       5.331  24.588  52.394  1.00  0.00     0.125 HD
ENDBRANCH   2  25
BRANCH   1  28
HETATM   28  C   UNL     1       7.630  24.370  55.520  1.00  0.00     0.257 C 
HETATM   29  N   UNL     1       7.178  23.145  55.058  1.00  0.00    -0.352 N 
HETATM   30  H   UNL     1       6.331  23.203  54.500  1.00  0.00     0.163 HD
HETATM   31  O   UNL     1       8.719  24.523  56.056  1.00  0.00    -0.267 OA
BRANCH  29  32
HETATM   32  C   UNL     1       8.065  22.029  54.765  1.00  0.00     0.080 C 
HETATM   33  C   UNL     1       7.606  20.745  55.455  1.00  0.00     0.032 C 
BRANCH  32  34
HETATM   34  C   UNL     1       8.147  21.797  53.243  1.00  0.00     0.020 C 
HETATM   35  C   UNL     1       8.364  20.336  52.859  1.00  0.00     0.007 C 
ENDBRANCH  32  34
ENDBRANCH  29  32
ENDBRANCH   1  28
TORSDOF 7
ENDMDL
MODEL 5
REMARK VINA RESULT:      -9.1      3.872      7.179
REMARK  7 active torsions:
REMARK  status: ('A' for Active; 'I' for Inactive)
REMARK    1  A    between atoms: C_2  and  C_3 
REMARK    2  A    between atoms: C_3  and  N_4 
REMARK       I    between atoms: N_4  and  C_5 
REMARK    3  A    between atoms: C_5  and  C_6 
REMARK    4  A    between atoms: C_7  and  N_8 
REMARK    5  A    between atoms: N_9  and  N_10 
REMARK    6  A    between atoms: C_11  and  C_12 
REMARK    7  A    between atoms: C_13  and  O_14 
ROOT
HETATM    1  C   UNL     1       7.343  29.006  57.720  1.00  0.00     0.104 C 
HETATM    2  C   UNL     1       7.165  27.632  57.614  1.00  0.00     0.123 C 
HETATM    3  N   UNL     1       6.431  27.383  56.460  1.00  0.00    -0.202 N 
HETATM    4  C   UNL     1       5.798  28.560  56.100  1.00  0.00     0.183 A 
HETATM    5  C   UNL     1       6.375  29.581  56.852  1.00  0.00     0.124 A 
HETATM    6  N   UNL     1       6.012  30.875  56.664  1.00  0.00    -0.242 NA
HETATM    7  C   UNL     1       5.034  31.071  55.770  1.00  0.00     0.086 A 
HETATM    8  C   UNL     1       4.447  30.010  55.032  1.00  0.00     0.088 A 
HETATM    9  N   UNL     1       4.831  28.729  55.164  1.00  0.00    -0.225 NA
HETATM   10  C   UNL     1       4.578  32.367  55.568  1.00  0.00     0.034 A 
HETATM   11  C   UNL     1       3.554  32.648  54.661  1.00  0.00     0.002 A 
HETATM   12  C   UNL     1       2.978  31.613  53.940  1.00  0.00     0.002 A 
HETATM   13  C   UNL     1       3.432  30.307  54.130  1.00  0.00     0.034 A 
ENDROOT
BRANCH   3  14
HETATM   14  N   UNL     1       6.493  26.142  55.865  1.00  0.00    -0.176 NA
HETATM   15  C   UNL     1       7.394  25.974  54.951  1.00  0.00     0.153 C 
BRANCH  15  16
HETATM   16  C   UNL     1       7.666  24.613  54.425  1.00  0.00     0.017 A 
HETATM   17  C   UNL     1       7.768  24.360  53.049  1.00  0.00     0.077 A 
HETATM   18  C   UNL     1       7.929  23.059  52.577  1.00  0.00     0.039 A 
HETATM   19  C   UNL     1       7.982  21.999  53.482  1.00  0.00     0.022 A 
HETATM   20  C   UNL     1       7.880  22.251  54.851  1.00  0.00     0.012 A 
HETATM   21 BR   UNL     1       7.933  20.806  56.070  1.00  0.00    -0.051 Br
HETATM   22  C   UNL     1       7.721  23.552  55.332  1.00  0.00     0.034 A 
BRANCH  17  23
HETATM   23  O   UNL     1       7.684  25.345  52.103  1.00  0.00    -0.360 OA
HETATM   24  H   UNL     1       6.766  25.313  51.756  1.00  0.00     0.217 HD
ENDBRANCH  17  23
ENDBRANCH  15  16
ENDBRANCH   3  14
BRANCH   2  25
HETATM   25  N   UNL     1       7.690  26.603  58.350  1.00  0.00    -0.286 NA
HETATM   26  H   UNL     1       7.046  25.861  58.637  1.00  0.00     0.125 HD
HETATM   27  H   UNL     1       8.546  26.179  57.981  1.00  0.00     0.125 HD
ENDBRANCH   2  25
BRANCH   1  28
HETATM   28  C   UNL     1       8.362  29.691  58.511  1.00  0.00     0.257 C 
HETATM   29  N   UNL     1       7.828  30.593  59.416  1.00  0.00    -0.352 N 
HETATM   30  H   UNL     1       6.813  30.600  59.440  1.00  0.00     0.163 HD
HETATM   31  O   UNL     1       9.553  29.417  58.463  1.00  0.00    -0.267 OA
BRANCH  29  32
HETATM   32  C   UNL     1       8.503  30.978  60.647  1.00  0.00     0.080 C 
HETATM   33  C   UNL     1       9.501  32.113  60.415  1.00  0.00     0.032 C 
BRANCH  32  34
HETATM   34  C   UNL     1       7.471  31.407  61.710  1.00  0.00     0.020 C 
HETATM   35  C   UNL     1       8.102  31.884  63.016  1.00  0.00     0.007 C 
ENDBRANCH  32  34
ENDBRANCH  29  32
ENDBRANCH   1  28
TORSDOF 7
ENDMDL
MODEL 6
REMARK VINA RESULT:      -9.1      3.332      7.030
REMARK  7 active torsions:
REMARK  status: ('A' for Active; 'I' for Inactive)
REMARK    1  A    between atoms: C_2  and  C_3 
REMARK    2  A    between atoms: C_3  and  N_4 
REMARK       I    between atoms: N_4  and  C_5 
REMARK    3  A    between atoms: C_5  and  C_6 
REMARK    4  A    between atoms: C_7  and  N_8 
REMARK    5  A    between atoms: N_9  and  N_10 
REMARK    6  A    between atoms: C_11  and  C_12 
REMARK    7  A    between atoms: C_13  and  O_14 
ROOT
HETATM    1  C   UNL     1       4.946  26.658  51.938  1.00  0.00     0.104 C 
HETATM    2  C   UNL     1       4.230  27.390  52.877  1.00  0.00     0.123 C 
HETATM    3  N   UNL     1       4.798  27.157  54.125  1.00  0.00    -0.202 N 
HETATM    4  C   UNL     1       5.546  25.996  54.038  1.00  0.00     0.183 A 
HETATM    5  C   UNL     1       5.672  25.691  52.685  1.00  0.00     0.124 A 
HETATM    6  N   UNL     1       6.424  24.638  52.275  1.00  0.00    -0.242 NA
HETATM    7  C   UNL     1       6.961  23.902  53.257  1.00  0.00     0.086 A 
HETATM    8  C   UNL     1       6.799  24.222  54.631  1.00  0.00     0.088 A 
HETATM    9  N   UNL     1       6.104  25.291  55.053  1.00  0.00    -0.225 NA
HETATM   10  C   UNL     1       7.699  22.778  52.908  1.00  0.00     0.034 A 
HETATM   11  C   UNL     1       8.279  21.956  53.876  1.00  0.00     0.002 A 
HETATM   12  C   UNL     1       8.121  22.266  55.219  1.00  0.00     0.002 A 
HETATM   13  C   UNL     1       7.386  23.396  55.582  1.00  0.00     0.034 A 
ENDROOT
BRANCH   3  14
HETATM   14  N   UNL     1       4.607  28.066  55.142  1.00  0.00    -0.176 NA
HETATM   15  C   UNL     1       5.563  28.911  55.361  1.00  0.00     0.153 C 
BRANCH  15  16
HETATM   16  C   UNL     1       5.343  30.051  56.284  1.00  0.00     0.017 A 
HETATM   17  C   UNL     1       4.280  30.949  56.108  1.00  0.00     0.077 A 
HETATM   18  C   UNL     1       4.150  32.065  56.931  1.00  0.00     0.039 A 
HETATM   19  C   UNL     1       5.089  32.294  57.936  1.00  0.00     0.022 A 
HETATM   20  C   UNL     1       6.148  31.401  58.112  1.00  0.00     0.012 A 
HETATM   21 BR   UNL     1       7.430  31.729  59.463  1.00  0.00    -0.051 Br
HETATM   22  C   UNL     1       6.284  30.279  57.291  1.00  0.00     0.034 A 
BRANCH  17  23
HETATM   23  O   UNL     1       3.344  30.810  55.119  1.00  0.00    -0.360 OA
HETATM   24  H   UNL     1       3.336  29.858  54.881  1.00  0.00     0.217 HD
ENDBRANCH  17  23
ENDBRANCH  15  16
ENDBRANCH   3  14
BRANCH   2  25
HETATM   25  N   UNL     1       3.236  28.319  52.718  1.00  0.00    -0.286 NA
HETATM   26  H   UNL     1       2.288  28.034  52.979  1.00  0.00     0.125 HD
HETATM   27  H   UNL     1       3.425  29.247  53.105  1.00  0.00     0.125 HD
ENDBRANCH   2  25
BRANCH   1  28
HETATM   28  C   UNL     1       4.984  26.895  50.497  1.00  0.00     0.257 C 
HETATM   29  N   UNL     1       4.174  26.027  49.784  1.00  0.00    -0.352 N 
HETATM   30  H   UNL     1       3.630  25.399  50.368  1.00  0.00     0.163 HD
HETATM   31  O   UNL     1       5.576  27.834  49.981  1.00  0.00    -0.267 OA
BRANCH  29  32
HETATM   32  C   UNL     1       3.601  26.357  48.487  1.00  0.00     0.080 C 
HETATM   33  C   UNL     1       3.072  25.116  47.769  1.00  0.00     0.032 C 
BRANCH  32  34
HETATM   34  C   UNL     1       2.461  27.383  48.653  1.00  0.00     0.020 C 
HETATM   35  C   UNL     1       1.240  27.084  47.787  1.00  0.00     0.007 C 
ENDBRANCH  32  34
ENDBRANCH  29  32
ENDBRANCH   1  28
TORSDOF 7
ENDMDL
MODEL 7
REMARK VINA RESULT:      -8.9      3.375      6.881
REMARK  7 active torsions:
REMARK  status: ('A' for Active; 'I' for Inactive)
REMARK    1  A    between atoms: C_2  and  C_3 
REMARK    2  A    between atoms: C_3  and  N_4 
REMARK       I    between atoms: N_4  and  C_5 
REMARK    3  A    between atoms: C_5  and  C_6 
REMARK    4  A    between atoms: C_7  and  N_8 
REMARK    5  A    between atoms: N_9  and  N_10 
REMARK    6  A    between atoms: C_11  and  C_12 
REMARK    7  A    between atoms: C_13  and  O_14 
ROOT
HETATM    1  C   UNL     1       6.625  29.233  57.100  1.00  0.00     0.104 C 
HETATM    2  C   UNL     1       6.963  27.886  57.106  1.00  0.00     0.123 C 
HETATM    3  N   UNL     1       6.761  27.388  55.823  1.00  0.00    -0.202 N 
HETATM    4  C   UNL     1       5.918  28.261  55.159  1.00  0.00     0.183 A 
HETATM    5  C   UNL     1       5.847  29.423  55.925  1.00  0.00     0.124 A 
HETATM    6  N   UNL     1       5.150  30.503  55.490  1.00  0.00    -0.242 NA
HETATM    7  C   UNL     1       4.499  30.335  54.330  1.00  0.00     0.086 A 
HETATM    8  C   UNL     1       4.570  29.132  53.580  1.00  0.00     0.088 A 
HETATM    9  N   UNL     1       5.300  28.072  53.967  1.00  0.00    -0.225 NA
HETATM   10  C   UNL     1       3.723  31.383  53.854  1.00  0.00     0.034 A 
HETATM   11  C   UNL     1       3.007  31.278  52.660  1.00  0.00     0.002 A 
HETATM   12  C   UNL     1       3.074  30.103  51.926  1.00  0.00     0.002 A 
HETATM   13  C   UNL     1       3.855  29.045  52.391  1.00  0.00     0.034 A 
ENDROOT
BRANCH   3  14
HETATM   14  N   UNL     1       7.423  26.248  55.421  1.00  0.00    -0.176 NA
HETATM   15  C   UNL     1       6.717  25.170  55.305  1.00  0.00     0.153 C 
BRANCH  15  16
HETATM   16  C   UNL     1       7.309  23.966  54.671  1.00  0.00     0.017 A 
HETATM   17  C   UNL     1       7.558  23.904  53.292  1.00  0.00     0.077 A 
HETATM   18  C   UNL     1       8.025  22.730  52.707  1.00  0.00     0.039 A 
HETATM   19  C   UNL     1       8.240  21.603  53.500  1.00  0.00     0.022 A 
HETATM   20  C   UNL     1       7.992  21.663  54.873  1.00  0.00     0.012 A 
HETATM   21 BR   UNL     1       8.267  20.125  55.938  1.00  0.00    -0.051 Br
HETATM   22  C   UNL     1       7.526  22.838  55.466  1.00  0.00     0.034 A 
BRANCH  17  23
HETATM   23  O   UNL     1       7.332  24.957  52.447  1.00  0.00    -0.360 OA
HETATM   24  H   UNL     1       7.405  25.768  52.995  1.00  0.00     0.217 HD
ENDBRANCH  17  23
ENDBRANCH  15  16
ENDBRANCH   3  14
BRANCH   2  25
HETATM   25  N   UNL     1       7.542  27.113  58.078  1.00  0.00    -0.286 NA
HETATM   26  H   UNL     1       8.418  26.643  57.836  1.00  0.00     0.125 HD
HETATM   27  H   UNL     1       7.639  27.550  58.998  1.00  0.00     0.125 HD
ENDBRANCH   2  25
BRANCH   1  28
HETATM   28  C   UNL     1       7.047  30.240  58.071  1.00  0.00     0.257 C 
HETATM   29  N   UNL     1       8.388  30.144  58.401  1.00  0.00    -0.352 N 
HETATM   30  H   UNL     1       8.891  29.434  57.877  1.00  0.00     0.163 HD
HETATM   31  O   UNL     1       6.323  31.145  58.464  1.00  0.00    -0.267 OA
BRANCH  29  32
HETATM   32  C   UNL     1       9.175  31.276  58.868  1.00  0.00     0.080 C 
HETATM   33  C   UNL     1       9.432  31.204  60.373  1.00  0.00     0.032 C 
BRANCH  32  34
HETATM   34  C   UNL     1      10.520  31.338  58.116  1.00  0.00     0.020 C 
HETATM   35  C   UNL     1      10.735  30.175  57.152  1.00  0.00     0.007 C 
ENDBRANCH  32  34
ENDBRANCH  29  32
ENDBRANCH   1  28
TORSDOF 7
ENDMDL
MODEL 8
REMARK VINA RESULT:      -8.7      2.722      6.810
REMARK  7 active torsions:
REMARK  status: ('A' for Active; 'I' for Inactive)
REMARK    1  A    between atoms: C_2  and  C_3 
REMARK    2  A    between atoms: C_3  and  N_4 
REMARK       I    between atoms: N_4  and  C_5 
REMARK    3  A    between atoms: C_5  and  C_6 
REMARK    4  A    between atoms: C_7  and  N_8 
REMARK    5  A    between atoms: N_9  and  N_10 
REMARK    6  A    between atoms: C_11  and  C_12 
REMARK    7  A    between atoms: C_13  and  O_14 
ROOT
HETATM    1  C   UNL     1       4.969  28.852  54.963  1.00  0.00     0.104 C 
HETATM    2  C   UNL     1       4.837  27.556  55.445  1.00  0.00     0.123 C 
HETATM    3  N   UNL     1       5.153  26.680  54.411  1.00  0.00    -0.202 N 
HETATM    4  C   UNL     1       5.052  27.379  53.221  1.00  0.00     0.183 A 
HETATM    5  C   UNL     1       4.967  28.731  53.546  1.00  0.00     0.124 A 
HETATM    6  N   UNL     1       4.935  29.680  52.576  1.00  0.00    -0.242 NA
HETATM    7  C   UNL     1       4.922  29.215  51.320  1.00  0.00     0.086 A 
HETATM    8  C   UNL     1       4.987  27.829  51.016  1.00  0.00     0.088 A 
HETATM    9  N   UNL     1       5.075  26.878  51.961  1.00  0.00    -0.225 NA
HETATM   10  C   UNL     1       4.836  30.130  50.280  1.00  0.00     0.034 A 
HETATM   11  C   UNL     1       4.806  29.720  48.946  1.00  0.00     0.002 A 
HETATM   12  C   UNL     1       4.868  28.367  48.646  1.00  0.00     0.002 A 
HETATM   13  C   UNL     1       4.961  27.437  49.683  1.00  0.00     0.034 A 
ENDROOT
BRANCH   3  14
HETATM   14  N   UNL     1       5.549  25.394  54.703  1.00  0.00    -0.176 NA
HETATM   15  C   UNL     1       6.789  25.097  54.481  1.00  0.00     0.153 C 
BRANCH  15  16
HETATM   16  C   UNL     1       7.338  23.809  54.972  1.00  0.00     0.017 A 
HETATM   17  C   UNL     1       7.651  23.607  56.324  1.00  0.00     0.077 A 
HETATM   18  C   UNL     1       8.253  22.423  56.745  1.00  0.00     0.039 A 
HETATM   19  C   UNL     1       8.554  21.433  55.810  1.00  0.00     0.022 A 
HETATM   20  C   UNL     1       8.243  21.633  54.463  1.00  0.00     0.012 A 
HETATM   21 BR   UNL     1       8.672  20.294  53.199  1.00  0.00    -0.051 Br
HETATM   22  C   UNL     1       7.637  22.816  54.035  1.00  0.00     0.034 A 
BRANCH  17  23
HETATM   23  O   UNL     1       7.422  24.549  57.290  1.00  0.00    -0.360 OA
HETATM   24  H   UNL     1       8.305  24.877  57.568  1.00  0.00     0.217 HD
ENDBRANCH  17  23
ENDBRANCH  15  16
ENDBRANCH   3  14
BRANCH   2  25
HETATM   25  N   UNL     1       4.602  27.093  56.712  1.00  0.00    -0.286 NA
HETATM   26  H   UNL     1       3.933  27.617  57.281  1.00  0.00     0.125 HD
HETATM   27  H   UNL     1       4.399  26.093  56.793  1.00  0.00     0.125 HD
ENDBRANCH   2  25
BRANCH   1  28
HETATM   28  C   UNL     1       5.139  30.063  55.761  1.00  0.00     0.257 C 
HETATM   29  N   UNL     1       5.712  29.820  56.998  1.00  0.00    -0.352 N 
HETATM   30  H   UNL     1       5.983  28.852  57.143  1.00  0.00     0.163 HD
HETATM   31  O   UNL     1       4.909  31.189  55.340  1.00  0.00    -0.267 OA
BRANCH  29  32
HETATM   32  C   UNL     1       6.476  30.819  57.731  1.00  0.00     0.080 C 
HETATM   33  C   UNL     1       5.586  31.642  58.662  1.00  0.00     0.032 C 
BRANCH  32  34
HETATM   34  C   UNL     1       7.593  30.140  58.550  1.00  0.00     0.020 C 
HETATM   35  C   UNL     1       8.306  29.020  57.799  1.00  0.00     0.007 C 
ENDBRANCH  32  34
ENDBRANCH  29  32
ENDBRANCH   1  28
TORSDOF 7
ENDMDL
MODEL 9
REMARK VINA RESULT:      -8.6      2.995      6.961
REMARK  7 active torsions:
REMARK  status: ('A' for Active; 'I' for Inactive)
REMARK    1  A    between atoms: C_2  and  C_3 
REMARK    2  A    between atoms: C_3  and  N_4 
REMARK       I    between atoms: N_4  and  C_5 
REMARK    3  A    between atoms: C_5  and  C_6 
REMARK    4  A    between atoms: C_7  and  N_8 
REMARK    5  A    between atoms: N_9  and  N_10 
REMARK    6  A    between atoms: C_11  and  C_12 
REMARK    7  A    between atoms: C_13  and  O_14 
ROOT
HETATM    1  C   UNL     1       5.073  28.928  54.794  1.00  0.00     0.104 C 
HETATM    2  C   UNL     1       4.908  27.658  55.332  1.00  0.00     0.123 C 
HETATM    3  N   UNL     1       5.159  26.730  54.327  1.00  0.00    -0.202 N 
HETATM    4  C   UNL     1       5.047  27.384  53.112  1.00  0.00     0.183 A 
HETATM    5  C   UNL     1       5.023  28.751  53.384  1.00  0.00     0.124 A 
HETATM    6  N   UNL     1       4.997  29.661  52.378  1.00  0.00    -0.242 NA
HETATM    7  C   UNL     1       4.928  29.147  51.142  1.00  0.00     0.086 A 
HETATM    8  C   UNL     1       4.932  27.749  50.893  1.00  0.00     0.088 A 
HETATM    9  N   UNL     1       5.013  26.833  51.874  1.00  0.00    -0.225 NA
HETATM   10  C   UNL     1       4.844  30.023  50.069  1.00  0.00     0.034 A 
HETATM   11  C   UNL     1       4.758  29.561  48.754  1.00  0.00     0.002 A 
HETATM   12  C   UNL     1       4.760  28.196  48.508  1.00  0.00     0.002 A 
HETATM   13  C   UNL     1       4.850  27.305  49.579  1.00  0.00     0.034 A 
ENDROOT
BRANCH   3  14
HETATM   14  N   UNL     1       5.516  25.442  54.660  1.00  0.00    -0.176 NA
HETATM   15  C   UNL     1       6.705  25.057  54.324  1.00  0.00     0.153 C 
BRANCH  15  16
HETATM   16  C   UNL     1       7.235  23.770  54.838  1.00  0.00     0.017 A 
HETATM   17  C   UNL     1       7.495  23.570  56.201  1.00  0.00     0.077 A 
HETATM   18  C   UNL     1       8.082  22.388  56.646  1.00  0.00     0.039 A 
HETATM   19  C   UNL     1       8.420  21.397  55.725  1.00  0.00     0.022 A 
HETATM   20  C   UNL     1       8.162  21.595  54.367  1.00  0.00     0.012 A 
HETATM   21 BR   UNL     1       8.642  20.256  53.122  1.00  0.00    -0.051 Br
HETATM   22  C   UNL     1       7.572  22.777  53.914  1.00  0.00     0.034 A 
BRANCH  17  23
HETATM   23  O   UNL     1       7.227  24.513  57.157  1.00  0.00    -0.360 OA
HETATM   24  H   UNL     1       6.449  24.184  57.656  1.00  0.00     0.217 HD
ENDBRANCH  17  23
ENDBRANCH  15  16
ENDBRANCH   3  14
BRANCH   2  25
HETATM   25  N   UNL     1       4.695  27.255  56.624  1.00  0.00    -0.286 NA
HETATM   26  H   UNL     1       3.747  27.364  56.993  1.00  0.00     0.125 HD
HETATM   27  H   UNL     1       5.045  26.325  56.867  1.00  0.00     0.125 HD
ENDBRANCH   2  25
BRANCH   1  28
HETATM   28  C   UNL     1       5.313  30.163  55.537  1.00  0.00     0.257 C 
HETATM   29  N   UNL     1       4.920  31.296  54.845  1.00  0.00    -0.352 N 
HETATM   30  H   UNL     1       4.469  31.100  53.956  1.00  0.00     0.163 HD
HETATM   31  O   UNL     1       5.711  30.189  56.694  1.00  0.00    -0.267 OA
BRANCH  29  32
HETATM   32  C   UNL     1       4.531  32.535  55.503  1.00  0.00     0.080 C 
HETATM   33  C   UNL     1       4.597  33.727  54.550  1.00  0.00     0.032 C 
BRANCH  32  34
HETATM   34  C   UNL     1       3.104  32.410  56.076  1.00  0.00     0.020 C 
HETATM   35  C   UNL     1       2.020  32.343  55.004  1.00  0.00     0.007 C 
ENDBRANCH  32  34
ENDBRANCH  29  32
ENDBRANCH   1  28
TORSDOF 7
ENDMDL
MODEL 10
REMARK VINA RESULT:      -8.6      3.138      7.722
REMARK  7 active torsions:
REMARK  status: ('A' for Active; 'I' for Inactive)
REMARK    1  A    between atoms: C_2  and  C_3 
REMARK    2  A    between atoms: C_3  and  N_4 
REMARK       I    between atoms: N_4  and  C_5 
REMARK    3  A    between atoms: C_5  and  C_6 
REMARK    4  A    between atoms: C_7  and  N_8 
REMARK    5  A    between atoms: N_9  and  N_10 
REMARK    6  A    between atoms: C_11  and  C_12 
REMARK    7  A    between atoms: C_13  and  O_14 
ROOT
HETATM    1  C   UNL     1       6.986  25.708  54.766  1.00  0.00     0.104 C 
HETATM    2  C   UNL     1       7.625  26.719  55.473  1.00  0.00     0.123 C 
HETATM    3  N   UNL     1       7.194  27.938  54.962  1.00  0.00    -0.202 N 
HETATM    4  C   UNL     1       6.657  27.704  53.707  1.00  0.00     0.183 A 
HETATM    5  C   UNL     1       6.494  26.326  53.584  1.00  0.00     0.124 A 
HETATM    6  N   UNL     1       5.911  25.789  52.482  1.00  0.00    -0.242 NA
HETATM    7  C   UNL     1       5.580  26.667  51.525  1.00  0.00     0.086 A 
HETATM    8  C   UNL     1       5.778  28.066  51.667  1.00  0.00     0.088 A 
HETATM    9  N   UNL     1       6.302  28.620  52.773  1.00  0.00    -0.225 NA
HETATM   10  C   UNL     1       5.029  26.180  50.347  1.00  0.00     0.034 A 
HETATM   11  C   UNL     1       4.670  27.032  49.301  1.00  0.00     0.002 A 
HETATM   12  C   UNL     1       4.862  28.398  49.438  1.00  0.00     0.002 A 
HETATM   13  C   UNL     1       5.411  28.901  50.618  1.00  0.00     0.034 A 
ENDROOT
BRANCH   3  14
HETATM   14  N   UNL     1       7.291  29.075  55.734  1.00  0.00    -0.176 NA
HETATM   15  C   UNL     1       6.349  29.280  56.597  1.00  0.00     0.153 C 
BRANCH  15  16
HETATM   16  C   UNL     1       6.497  30.357  57.607  1.00  0.00     0.017 A 
HETATM   17  C   UNL     1       7.465  30.292  58.619  1.00  0.00     0.077 A 
HETATM   18  C   UNL     1       7.522  31.268  59.611  1.00  0.00     0.039 A 
HETATM   19  C   UNL     1       6.602  32.316  59.601  1.00  0.00     0.022 A 
HETATM   20  C   UNL     1       5.637  32.381  58.594  1.00  0.00     0.012 A 
HETATM   21 BR   UNL     1       4.380  33.794  58.598  1.00  0.00    -0.051 Br
HETATM   22  C   UNL     1       5.576  31.407  57.595  1.00  0.00     0.034 A 
BRANCH  17  23
HETATM   23  O   UNL     1       8.374  29.273  58.716  1.00  0.00    -0.360 OA
HETATM   24  H   UNL     1       9.044  29.436  58.018  1.00  0.00     0.217 HD
ENDBRANCH  17  23
ENDBRANCH  15  16
ENDBRANCH   3  14
BRANCH   2  25
HETATM   25  N   UNL     1       8.428  26.665  56.582  1.00  0.00    -0.286 NA
HETATM   26  H   UNL     1       8.713  25.737  56.903  1.00  0.00     0.125 HD
HETATM   27  H   UNL     1       9.243  27.283  56.575  1.00  0.00     0.125 HD
ENDBRANCH   2  25
BRANCH   1  28
HETATM   28  C   UNL     1       6.808  24.324  55.198  1.00  0.00     0.257 C 
HETATM   29  N   UNL     1       7.136  23.404  54.216  1.00  0.00    -0.352 N 
HETATM   30  H   UNL     1       7.508  23.823  53.368  1.00  0.00     0.163 HD
HETATM   31  O   UNL     1       6.514  24.005  56.342  1.00  0.00    -0.267 OA
BRANCH  29  32
HETATM   32  C   UNL     1       7.578  22.049  54.511  1.00  0.00     0.080 C 
HETATM   33  C   UNL     1       7.829  21.245  53.235  1.00  0.00     0.032 C 
BRANCH  32  34
HETATM   34  C   UNL     1       8.863  22.080  55.363  1.00  0.00     0.020 C 
HETATM   35  C   UNL     1       9.097  20.801  56.162  1.00  0.00     0.007 C 
ENDBRANCH  32  34
ENDBRANCH  29  32
ENDBRANCH   1  28
TORSDOF 7
ENDMDL
