MODEL 1
REMARK VINA RESULT:      -8.4      0.000      0.000
REMARK  4 active torsions:
REMARK  status: ('A' for Active; 'I' for Inactive)
REMARK    1  A    between atoms: O_2  and  C_3 
REMARK    2  A    between atoms: C_5  and  O_6 
REMARK    3  A    between atoms: C_8  and  N_9 
REMARK    4  A    between atoms: N_9  and  C_10 
ROOT
HETATM    1  C   UNL     1       7.089  25.223  55.595  1.00  0.00     0.153 A 
HETATM    2  S   UNL     1       7.208  25.860  54.021  1.00  0.00    -0.011 SA
HETATM    3  C   UNL     1       7.617  24.464  53.071  1.00  0.00     0.228 A 
HETATM    4  O   UNL     1       7.814  24.585  51.868  1.00  0.00    -0.279 OA
HETATM    5  C   UNL     1       7.718  23.140  53.702  1.00  0.00     0.048 A 
HETATM    6  C   UNL     1       7.509  22.962  55.070  1.00  0.00     0.048 A 
HETATM    7  C   UNL     1       8.025  22.037  52.883  1.00  0.00     0.018 A 
HETATM    8  C   UNL     1       8.126  20.757  53.425  1.00  0.00     0.001 A 
HETATM    9  C   UNL     1       7.920  20.570  54.787  1.00  0.00     0.002 A 
HETATM   10  C   UNL     1       7.614  21.664  55.600  1.00  0.00     0.030 A 
HETATM   11  N   UNL     1       7.212  23.963  55.936  1.00  0.00    -0.336 N 
HETATM   12  H   UNL     1       7.021  23.755  56.906  1.00  0.00     0.168 HD
ENDROOT
BRANCH   1  13
HETATM   13  N   UNL     1       6.765  26.156  56.603  1.00  0.00    -0.334 N 
HETATM   14  H   UNL     1       6.036  25.825  57.235  1.00  0.00     0.168 HD
BRANCH  13  15
HETATM   15  C   UNL     1       7.242  27.428  56.973  1.00  0.00     0.068 A 
HETATM   16  C   UNL     1       6.302  28.436  57.287  1.00  0.00     0.097 A 
HETATM   17  C   UNL     1       6.733  29.694  57.733  1.00  0.00     0.075 A 
HETATM   18  C   UNL     1       8.096  29.959  57.863  1.00  0.00     0.070 A 
HETATM   19  C   UNL     1       9.024  28.969  57.535  1.00  0.00     0.039 A 
HETATM   20  C   UNL     1       8.603  27.712  57.096  1.00  0.00     0.035 A 
BRANCH  16  21
HETATM   21  O   UNL     1       4.987  28.064  57.122  1.00  0.00    -0.354 OA
HETATM   22  C   UNL     1       4.259  28.688  56.070  1.00  0.00     0.210 C 
ENDBRANCH  16  21
BRANCH  18  23
HETATM   23  O   UNL     1       8.652  31.134  58.289  1.00  0.00    -0.356 OA
HETATM   24  C   UNL     1      10.072  31.222  58.287  1.00  0.00     0.210 C 
ENDBRANCH  18  23
ENDBRANCH  13  15
ENDBRANCH   1  13
TORSDOF 4
ENDMDL
MODEL 2
REMARK VINA RESULT:      -8.1      1.237      2.696
REMARK  4 active torsions:
REMARK  status: ('A' for Active; 'I' for Inactive)
REMARK    1  A    between atoms: O_2  and  C_3 
REMARK    2  A    between atoms: C_5  and  O_6 
REMARK    3  A    between atoms: C_8  and  N_9 
REMARK    4  A    between atoms: N_9  and  C_10 
ROOT
HETATM    1  C   UNL     1       7.251  25.068  55.751  1.00  0.00     0.153 A 
HETATM    2  S   UNL     1       7.330  25.758  54.196  1.00  0.00    -0.011 SA
HETATM    3  C   UNL     1       7.676  24.387  53.185  1.00  0.00     0.228 A 
HETATM    4  O   UNL     1       7.834  24.546  51.981  1.00  0.00    -0.279 OA
HETATM    5  C   UNL     1       7.769  23.040  53.766  1.00  0.00     0.048 A 
HETATM    6  C   UNL     1       7.603  22.819  55.134  1.00  0.00     0.048 A 
HETATM    7  C   UNL     1       8.024  21.960  52.900  1.00  0.00     0.018 A 
HETATM    8  C   UNL     1       8.116  20.661  53.395  1.00  0.00     0.001 A 
HETATM    9  C   UNL     1       7.952  20.431  54.755  1.00  0.00     0.002 A 
HETATM   10  C   UNL     1       7.698  21.502  55.616  1.00  0.00     0.030 A 
HETATM   11  N   UNL     1       7.358  23.795  56.044  1.00  0.00    -0.336 N 
HETATM   12  H   UNL     1       7.196  23.557  57.013  1.00  0.00     0.168 HD
ENDROOT
BRANCH   1  13
HETATM   13  N   UNL     1       6.982  25.972  56.800  1.00  0.00    -0.334 N 
HETATM   14  H   UNL     1       7.405  25.694  57.686  1.00  0.00     0.168 HD
BRANCH  13  15
HETATM   15  C   UNL     1       6.300  27.198  56.909  1.00  0.00     0.068 A 
HETATM   16  C   UNL     1       6.998  28.318  57.416  1.00  0.00     0.097 A 
HETATM   17  C   UNL     1       6.380  29.575  57.470  1.00  0.00     0.075 A 
HETATM   18  C   UNL     1       5.066  29.727  57.027  1.00  0.00     0.070 A 
HETATM   19  C   UNL     1       4.371  28.618  56.544  1.00  0.00     0.039 A 
HETATM   20  C   UNL     1       4.980  27.363  56.482  1.00  0.00     0.035 A 
BRANCH  16  21
HETATM   21  O   UNL     1       8.286  28.052  57.823  1.00  0.00    -0.354 OA
HETATM   22  C   UNL     1       9.336  28.760  57.171  1.00  0.00     0.210 C 
ENDBRANCH  16  21
BRANCH  18  23
HETATM   23  O   UNL     1       4.347  30.890  57.019  1.00  0.00    -0.356 OA
HETATM   24  C   UNL     1       3.043  30.847  56.452  1.00  0.00     0.210 C 
ENDBRANCH  18  23
ENDBRANCH  13  15
ENDBRANCH   1  13
TORSDOF 4
ENDMDL
MODEL 3
REMARK VINA RESULT:      -8.1      1.831      2.213
REMARK  4 active torsions:
REMARK  status: ('A' for Active; 'I' for Inactive)
REMARK    1  A    between atoms: O_2  and  C_3 
REMARK    2  A    between atoms: C_5  and  O_6 
REMARK    3  A    between atoms: C_8  and  N_9 
REMARK    4  A    between atoms: N_9  and  C_10 
ROOT
HETATM    1  C   UNL     1       7.623  25.182  55.386  1.00  0.00     0.153 A 
HETATM    2  S   UNL     1       7.957  24.611  56.955  1.00  0.00    -0.011 SA
HETATM    3  C   UNL     1       8.177  22.906  56.705  1.00  0.00     0.228 A 
HETATM    4  O   UNL     1       8.402  22.177  57.662  1.00  0.00    -0.279 OA
HETATM    5  C   UNL     1       8.104  22.338  55.351  1.00  0.00     0.048 A 
HETATM    6  C   UNL     1       7.841  23.135  54.235  1.00  0.00     0.048 A 
HETATM    7  C   UNL     1       8.317  20.955  55.199  1.00  0.00     0.018 A 
HETATM    8  C   UNL     1       8.266  20.364  53.938  1.00  0.00     0.001 A 
HETATM    9  C   UNL     1       8.005  21.149  52.822  1.00  0.00     0.002 A 
HETATM   10  C   UNL     1       7.795  22.522  52.971  1.00  0.00     0.030 A 
HETATM   11  N   UNL     1       7.621  24.472  54.284  1.00  0.00    -0.336 N 
HETATM   12  H   UNL     1       7.489  24.997  53.430  1.00  0.00     0.168 HD
ENDROOT
BRANCH   1  13
HETATM   13  N   UNL     1       7.389  26.570  55.284  1.00  0.00    -0.334 N 
HETATM   14  H   UNL     1       7.074  26.855  54.357  1.00  0.00     0.168 HD
BRANCH  13  15
HETATM   15  C   UNL     1       7.447  27.658  56.176  1.00  0.00     0.068 A 
HETATM   16  C   UNL     1       6.235  28.209  56.648  1.00  0.00     0.097 A 
HETATM   17  C   UNL     1       6.246  29.243  57.594  1.00  0.00     0.075 A 
HETATM   18  C   UNL     1       7.459  29.739  58.072  1.00  0.00     0.070 A 
HETATM   19  C   UNL     1       8.657  29.207  57.592  1.00  0.00     0.039 A 
HETATM   20  C   UNL     1       8.654  28.173  56.653  1.00  0.00     0.035 A 
BRANCH  16  21
HETATM   21  O   UNL     1       5.101  27.644  56.110  1.00  0.00    -0.354 OA
HETATM   22  C   UNL     1       4.270  28.480  55.311  1.00  0.00     0.210 C 
ENDBRANCH  16  21
BRANCH  18  23
HETATM   23  O   UNL     1       7.616  30.737  58.994  1.00  0.00    -0.356 OA
HETATM   24  C   UNL     1       8.540  30.509  60.052  1.00  0.00     0.210 C 
ENDBRANCH  18  23
ENDBRANCH  13  15
ENDBRANCH   1  13
TORSDOF 4
ENDMDL
MODEL 4
REMARK VINA RESULT:      -8.1      4.294      6.882
REMARK  4 active torsions:
REMARK  status: ('A' for Active; 'I' for Inactive)
REMARK    1  A    between atoms: O_2  and  C_3 
REMARK    2  A    between atoms: C_5  and  O_6 
REMARK    3  A    between atoms: C_8  and  N_9 
REMARK    4  A    between atoms: N_9  and  C_10 
ROOT
HETATM    1  C   UNL     1       5.217  26.125  52.070  1.00  0.00     0.153 A 
HETATM    2  S   UNL     1       5.765  27.682  52.489  1.00  0.00    -0.011 SA
HETATM    3  C   UNL     1       5.575  28.569  51.007  1.00  0.00     0.228 A 
HETATM    4  O   UNL     1       5.919  29.743  50.954  1.00  0.00    -0.279 OA
HETATM    5  C   UNL     1       4.995  27.920  49.822  1.00  0.00     0.048 A 
HETATM    6  C   UNL     1       4.598  26.582  49.839  1.00  0.00     0.048 A 
HETATM    7  C   UNL     1       4.836  28.690  48.654  1.00  0.00     0.018 A 
HETATM    8  C   UNL     1       4.286  28.129  47.504  1.00  0.00     0.001 A 
HETATM    9  C   UNL     1       3.889  26.798  47.512  1.00  0.00     0.002 A 
HETATM   10  C   UNL     1       4.044  26.032  48.671  1.00  0.00     0.030 A 
HETATM   11  N   UNL     1       4.714  25.763  50.914  1.00  0.00    -0.336 N 
HETATM   12  H   UNL     1       4.358  24.818  50.874  1.00  0.00     0.168 HD
ENDROOT
BRANCH   1  13
HETATM   13  N   UNL     1       5.265  25.168  53.105  1.00  0.00    -0.334 N 
HETATM   14  H   UNL     1       4.343  24.928  53.470  1.00  0.00     0.168 HD
BRANCH  13  15
HETATM   15  C   UNL     1       6.285  24.427  53.730  1.00  0.00     0.068 A 
HETATM   16  C   UNL     1       6.478  24.582  55.122  1.00  0.00     0.097 A 
HETATM   17  C   UNL     1       7.431  23.809  55.798  1.00  0.00     0.075 A 
HETATM   18  C   UNL     1       8.202  22.882  55.096  1.00  0.00     0.070 A 
HETATM   19  C   UNL     1       8.025  22.741  53.719  1.00  0.00     0.039 A 
HETATM   20  C   UNL     1       7.073  23.504  53.039  1.00  0.00     0.035 A 
BRANCH  16  21
HETATM   21  O   UNL     1       5.663  25.524  55.710  1.00  0.00    -0.354 OA
HETATM   22  C   UNL     1       5.192  25.249  57.025  1.00  0.00     0.210 C 
ENDBRANCH  16  21
BRANCH  18  23
HETATM   23  O   UNL     1       9.160  22.063  55.628  1.00  0.00    -0.356 OA
HETATM   24  C   UNL     1       8.718  20.873  56.270  1.00  0.00     0.210 C 
ENDBRANCH  18  23
ENDBRANCH  13  15
ENDBRANCH   1  13
TORSDOF 4
ENDMDL
MODEL 5
REMARK VINA RESULT:      -8.0     11.729     15.115
REMARK  4 active torsions:
REMARK  status: ('A' for Active; 'I' for Inactive)
REMARK    1  A    between atoms: O_2  and  C_3 
REMARK    2  A    between atoms: C_5  and  O_6 
REMARK    3  A    between atoms: C_8  and  N_9 
REMARK    4  A    between atoms: N_9  and  C_10 
ROOT
HETATM    1  C   UNL     1       5.812  34.372  67.371  1.00  0.00     0.153 A 
HETATM    2  S   UNL     1       4.156  34.482  66.989  1.00  0.00    -0.011 SA
HETATM    3  C   UNL     1       4.120  34.050  65.306  1.00  0.00     0.228 A 
HETATM    4  O   UNL     1       3.057  34.065  64.699  1.00  0.00    -0.279 OA
HETATM    5  C   UNL     1       5.357  33.660  64.613  1.00  0.00     0.048 A 
HETATM    6  C   UNL     1       6.589  33.639  65.268  1.00  0.00     0.048 A 
HETATM    7  C   UNL     1       5.269  33.293  63.257  1.00  0.00     0.018 A 
HETATM    8  C   UNL     1       6.407  32.907  62.552  1.00  0.00     0.001 A 
HETATM    9  C   UNL     1       7.639  32.884  63.195  1.00  0.00     0.002 A 
HETATM   10  C   UNL     1       7.727  33.246  64.542  1.00  0.00     0.030 A 
HETATM   11  N   UNL     1       6.771  33.978  66.568  1.00  0.00    -0.336 N 
HETATM   12  H   UNL     1       7.683  33.890  66.994  1.00  0.00     0.168 HD
ENDROOT
BRANCH   1  13
HETATM   13  N   UNL     1       6.147  34.682  68.706  1.00  0.00    -0.334 N 
HETATM   14  H   UNL     1       5.880  35.629  68.976  1.00  0.00     0.168 HD
BRANCH  13  15
HETATM   15  C   UNL     1       6.727  33.977  69.777  1.00  0.00     0.068 A 
HETATM   16  C   UNL     1       7.827  34.556  70.451  1.00  0.00     0.097 A 
HETATM   17  C   UNL     1       8.388  33.924  71.569  1.00  0.00     0.075 A 
HETATM   18  C   UNL     1       7.865  32.712  72.022  1.00  0.00     0.070 A 
HETATM   19  C   UNL     1       6.791  32.132  71.346  1.00  0.00     0.039 A 
HETATM   20  C   UNL     1       6.223  32.757  70.234  1.00  0.00     0.035 A 
BRANCH  16  21
HETATM   21  O   UNL     1       8.259  35.750  69.918  1.00  0.00    -0.354 OA
HETATM   22  C   UNL     1       8.028  36.928  70.683  1.00  0.00     0.210 C 
ENDBRANCH  16  21
BRANCH  18  23
HETATM   23  O   UNL     1       8.309  31.994  73.097  1.00  0.00    -0.356 OA
HETATM   24  C   UNL     1       8.216  30.576  73.017  1.00  0.00     0.210 C 
ENDBRANCH  18  23
ENDBRANCH  13  15
ENDBRANCH   1  13
TORSDOF 4
ENDMDL
MODEL 6
REMARK VINA RESULT:      -7.9      3.290      5.463
REMARK  4 active torsions:
REMARK  status: ('A' for Active; 'I' for Inactive)
REMARK    1  A    between atoms: O_2  and  C_3 
REMARK    2  A    between atoms: C_5  and  O_6 
REMARK    3  A    between atoms: C_8  and  N_9 
REMARK    4  A    between atoms: N_9  and  C_10 
ROOT
HETATM    1  C   UNL     1       6.519  24.447  54.559  1.00  0.00     0.153 A 
HETATM    2  S   UNL     1       7.036  24.551  56.179  1.00  0.00    -0.011 SA
HETATM    3  C   UNL     1       7.954  23.090  56.384  1.00  0.00     0.228 A 
HETATM    4  O   UNL     1       8.448  22.831  57.473  1.00  0.00    -0.279 OA
HETATM    5  C   UNL     1       8.147  22.169  55.253  1.00  0.00     0.048 A 
HETATM    6  C   UNL     1       7.593  22.423  53.998  1.00  0.00     0.048 A 
HETATM    7  C   UNL     1       8.922  21.013  55.464  1.00  0.00     0.018 A 
HETATM    8  C   UNL     1       9.144  20.109  54.428  1.00  0.00     0.001 A 
HETATM    9  C   UNL     1       8.597  20.353  53.174  1.00  0.00     0.002 A 
HETATM   10  C   UNL     1       7.828  21.501  52.963  1.00  0.00     0.030 A 
HETATM   11  N   UNL     1       6.833  23.506  53.701  1.00  0.00    -0.336 N 
HETATM   12  H   UNL     1       6.507  23.655  52.756  1.00  0.00     0.168 HD
ENDROOT
BRANCH   1  13
HETATM   13  N   UNL     1       5.728  25.524  54.107  1.00  0.00    -0.334 N 
HETATM   14  H   UNL     1       5.203  25.976  54.855  1.00  0.00     0.168 HD
BRANCH  13  15
HETATM   15  C   UNL     1       5.520  26.155  52.866  1.00  0.00     0.068 A 
HETATM   16  C   UNL     1       5.891  27.512  52.727  1.00  0.00     0.097 A 
HETATM   17  C   UNL     1       5.772  28.158  51.489  1.00  0.00     0.075 A 
HETATM   18  C   UNL     1       5.280  27.463  50.384  1.00  0.00     0.070 A 
HETATM   19  C   UNL     1       4.898  26.129  50.525  1.00  0.00     0.039 A 
HETATM   20  C   UNL     1       5.017  25.476  51.754  1.00  0.00     0.035 A 
BRANCH  16  21
HETATM   21  O   UNL     1       6.363  28.096  53.881  1.00  0.00    -0.354 OA
HETATM   22  C   UNL     1       7.775  28.156  54.053  1.00  0.00     0.210 C 
ENDBRANCH  16  21
BRANCH  18  23
HETATM   23  O   UNL     1       5.117  27.966  49.122  1.00  0.00    -0.356 OA
HETATM   24  C   UNL     1       4.822  27.039  48.084  1.00  0.00     0.210 C 
ENDBRANCH  18  23
ENDBRANCH  13  15
ENDBRANCH   1  13
TORSDOF 4
ENDMDL
MODEL 7
REMARK VINA RESULT:      -7.7      2.173      3.485
REMARK  4 active torsions:
REMARK  status: ('A' for Active; 'I' for Inactive)
REMARK    1  A    between atoms: O_2  and  C_3 
REMARK    2  A    between atoms: C_5  and  O_6 
REMARK    3  A    between atoms: C_8  and  N_9 
REMARK    4  A    between atoms: N_9  and  C_10 
ROOT
HETATM    1  C   UNL     1       7.393  25.123  54.895  1.00  0.00     0.153 A 
HETATM    2  S   UNL     1       7.759  24.836  56.533  1.00  0.00    -0.011 SA
HETATM    3  C   UNL     1       8.127  23.138  56.553  1.00  0.00     0.228 A 
HETATM    4  O   UNL     1       8.405  22.590  57.612  1.00  0.00    -0.279 OA
HETATM    5  C   UNL     1       8.117  22.361  55.305  1.00  0.00     0.048 A 
HETATM    6  C   UNL     1       7.798  22.947  54.079  1.00  0.00     0.048 A 
HETATM    7  C   UNL     1       8.451  20.995  55.371  1.00  0.00     0.018 A 
HETATM    8  C   UNL     1       8.464  20.212  54.219  1.00  0.00     0.001 A 
HETATM    9  C   UNL     1       8.148  20.786  52.994  1.00  0.00     0.002 A 
HETATM   10  C   UNL     1       7.819  22.142  52.927  1.00  0.00     0.030 A 
HETATM   11  N   UNL     1       7.463  24.251  53.917  1.00  0.00    -0.336 N 
HETATM   12  H   UNL     1       7.295  24.622  52.993  1.00  0.00     0.168 HD
ENDROOT
BRANCH   1  13
HETATM   13  N   UNL     1       7.041  26.452  54.577  1.00  0.00    -0.334 N 
HETATM   14  H   UNL     1       7.322  26.726  53.636  1.00  0.00     0.168 HD
BRANCH  13  15
HETATM   15  C   UNL     1       6.351  27.485  55.239  1.00  0.00     0.068 A 
HETATM   16  C   UNL     1       7.086  28.604  55.695  1.00  0.00     0.097 A 
HETATM   17  C   UNL     1       6.429  29.689  56.292  1.00  0.00     0.075 A 
HETATM   18  C   UNL     1       5.042  29.668  56.444  1.00  0.00     0.070 A 
HETATM   19  C   UNL     1       4.320  28.555  56.010  1.00  0.00     0.039 A 
HETATM   20  C   UNL     1       4.965  27.472  55.410  1.00  0.00     0.035 A 
BRANCH  16  21
HETATM   21  O   UNL     1       8.444  28.517  55.493  1.00  0.00    -0.354 OA
HETATM   22  C   UNL     1       9.261  29.505  56.111  1.00  0.00     0.210 C 
ENDBRANCH  16  21
BRANCH  18  23
HETATM   23  O   UNL     1       4.277  30.655  57.001  1.00  0.00    -0.356 OA
HETATM   24  C   UNL     1       3.109  31.053  56.293  1.00  0.00     0.210 C 
ENDBRANCH  18  23
ENDBRANCH  13  15
ENDBRANCH   1  13
TORSDOF 4
ENDMDL
MODEL 8
REMARK VINA RESULT:      -7.5     11.988     15.355
REMARK  4 active torsions:
REMARK  status: ('A' for Active; 'I' for Inactive)
REMARK    1  A    between atoms: O_2  and  C_3 
REMARK    2  A    between atoms: C_5  and  O_6 
REMARK    3  A    between atoms: C_8  and  N_9 
REMARK    4  A    between atoms: N_9  and  C_10 
ROOT
HETATM    1  C   UNL     1       5.949  34.306  67.143  1.00  0.00     0.153 A 
HETATM    2  S   UNL     1       4.741  35.426  66.714  1.00  0.00    -0.011 SA
HETATM    3  C   UNL     1       4.851  35.468  64.981  1.00  0.00     0.228 A 
HETATM    4  O   UNL     1       4.125  36.220  64.344  1.00  0.00    -0.279 OA
HETATM    5  C   UNL     1       5.805  34.598  64.276  1.00  0.00     0.048 A 
HETATM    6  C   UNL     1       6.656  33.733  64.966  1.00  0.00     0.048 A 
HETATM    7  C   UNL     1       5.837  34.650  62.870  1.00  0.00     0.018 A 
HETATM    8  C   UNL     1       6.715  33.843  62.150  1.00  0.00     0.001 A 
HETATM    9  C   UNL     1       7.566  32.979  62.828  1.00  0.00     0.002 A 
HETATM   10  C   UNL     1       7.535  32.925  64.224  1.00  0.00     0.030 A 
HETATM   11  N   UNL     1       6.699  33.617  66.317  1.00  0.00    -0.336 N 
HETATM   12  H   UNL     1       7.303  32.931  66.749  1.00  0.00     0.168 HD
ENDROOT
BRANCH   1  13
HETATM   13  N   UNL     1       6.095  34.072  68.527  1.00  0.00    -0.334 N 
HETATM   14  H   UNL     1       5.847  33.121  68.799  1.00  0.00     0.168 HD
BRANCH  13  15
HETATM   15  C   UNL     1       6.544  34.831  69.623  1.00  0.00     0.068 A 
HETATM   16  C   UNL     1       6.187  34.413  70.926  1.00  0.00     0.097 A 
HETATM   17  C   UNL     1       6.675  35.095  72.049  1.00  0.00     0.075 A 
HETATM   18  C   UNL     1       7.514  36.198  71.886  1.00  0.00     0.070 A 
HETATM   19  C   UNL     1       7.852  36.621  70.600  1.00  0.00     0.039 A 
HETATM   20  C   UNL     1       7.374  35.944  69.476  1.00  0.00     0.035 A 
BRANCH  16  21
HETATM   21  O   UNL     1       5.357  33.316  70.967  1.00  0.00    -0.354 OA
HETATM   22  C   UNL     1       5.937  32.070  71.339  1.00  0.00     0.210 C 
ENDBRANCH  16  21
BRANCH  18  23
HETATM   23  O   UNL     1       8.063  36.949  72.889  1.00  0.00    -0.356 OA
HETATM   24  C   UNL     1       8.211  38.344  72.652  1.00  0.00     0.210 C 
ENDBRANCH  18  23
ENDBRANCH  13  15
ENDBRANCH   1  13
TORSDOF 4
ENDMDL
MODEL 9
REMARK VINA RESULT:      -7.4     12.017     15.841
REMARK  4 active torsions:
REMARK  status: ('A' for Active; 'I' for Inactive)
REMARK    1  A    between atoms: O_2  and  C_3 
REMARK    2  A    between atoms: C_5  and  O_6 
REMARK    3  A    between atoms: C_8  and  N_9 
REMARK    4  A    between atoms: N_9  and  C_10 
ROOT
HETATM    1  C   UNL     1       6.814  34.585  69.023  1.00  0.00     0.153 A 
HETATM    2  S   UNL     1       7.660  35.851  69.785  1.00  0.00    -0.011 SA
HETATM    3  C   UNL     1       8.172  35.127  71.279  1.00  0.00     0.228 A 
HETATM    4  O   UNL     1       8.790  35.796  72.097  1.00  0.00    -0.279 OA
HETATM    5  C   UNL     1       7.874  33.714  71.561  1.00  0.00     0.048 A 
HETATM    6  C   UNL     1       7.164  32.921  70.658  1.00  0.00     0.048 A 
HETATM    7  C   UNL     1       8.335  33.168  72.773  1.00  0.00     0.018 A 
HETATM    8  C   UNL     1       8.088  31.834  73.089  1.00  0.00     0.001 A 
HETATM    9  C   UNL     1       7.382  31.036  72.197  1.00  0.00     0.002 A 
HETATM   10  C   UNL     1       6.925  31.577  70.992  1.00  0.00     0.030 A 
HETATM   11  N   UNL     1       6.679  33.359  69.470  1.00  0.00    -0.336 N 
HETATM   12  H   UNL     1       6.219  32.717  68.840  1.00  0.00     0.168 HD
ENDROOT
BRANCH   1  13
HETATM   13  N   UNL     1       6.266  34.897  67.760  1.00  0.00    -0.334 N 
HETATM   14  H   UNL     1       5.892  35.844  67.710  1.00  0.00     0.168 HD
BRANCH  13  15
HETATM   15  C   UNL     1       6.150  34.222  66.531  1.00  0.00     0.068 A 
HETATM   16  C   UNL     1       4.858  33.928  66.040  1.00  0.00     0.097 A 
HETATM   17  C   UNL     1       4.694  33.324  64.786  1.00  0.00     0.075 A 
HETATM   18  C   UNL     1       5.812  33.005  64.014  1.00  0.00     0.070 A 
HETATM   19  C   UNL     1       7.089  33.279  64.506  1.00  0.00     0.039 A 
HETATM   20  C   UNL     1       7.260  33.884  65.753  1.00  0.00     0.035 A 
BRANCH  16  21
HETATM   21  O   UNL     1       3.831  34.286  66.884  1.00  0.00    -0.354 OA
HETATM   22  C   UNL     1       3.048  35.417  66.517  1.00  0.00     0.210 C 
ENDBRANCH  16  21
BRANCH  18  23
HETATM   23  O   UNL     1       5.798  32.422  62.777  1.00  0.00    -0.356 OA
HETATM   24  C   UNL     1       7.036  31.940  62.269  1.00  0.00     0.210 C 
ENDBRANCH  18  23
ENDBRANCH  13  15
ENDBRANCH   1  13
TORSDOF 4
ENDMDL
MODEL 10
REMARK VINA RESULT:      -7.3      2.537      4.022
REMARK  4 active torsions:
REMARK  status: ('A' for Active; 'I' for Inactive)
REMARK    1  A    between atoms: O_2  and  C_3 
REMARK    2  A    between atoms: C_5  and  O_6 
REMARK    3  A    between atoms: C_8  and  N_9 
REMARK    4  A    between atoms: N_9  and  C_10 
ROOT
HETATM    1  C   UNL     1       5.808  25.896  55.832  1.00  0.00     0.153 A 
HETATM    2  S   UNL     1       6.785  25.688  57.212  1.00  0.00    -0.011 SA
HETATM    3  C   UNL     1       7.887  24.439  56.718  1.00  0.00     0.228 A 
HETATM    4  O   UNL     1       8.721  24.019  57.510  1.00  0.00    -0.279 OA
HETATM    5  C   UNL     1       7.829  23.893  55.354  1.00  0.00     0.048 A 
HETATM    6  C   UNL     1       6.888  24.340  54.425  1.00  0.00     0.048 A 
HETATM    7  C   UNL     1       8.762  22.903  54.996  1.00  0.00     0.018 A 
HETATM    8  C   UNL     1       8.759  22.355  53.715  1.00  0.00     0.001 A 
HETATM    9  C   UNL     1       7.825  22.793  52.783  1.00  0.00     0.002 A 
HETATM   10  C   UNL     1       6.899  23.778  53.137  1.00  0.00     0.030 A 
HETATM   11  N   UNL     1       5.950  25.286  54.680  1.00  0.00    -0.336 N 
HETATM   12  H   UNL     1       5.333  25.601  53.944  1.00  0.00     0.168 HD
ENDROOT
BRANCH   1  13
HETATM   13  N   UNL     1       4.794  26.869  55.949  1.00  0.00    -0.334 N 
HETATM   14  H   UNL     1       4.077  26.619  56.630  1.00  0.00     0.168 HD
BRANCH  13  15
HETATM   15  C   UNL     1       4.556  28.133  55.378  1.00  0.00     0.068 A 
HETATM   16  C   UNL     1       4.911  29.286  56.115  1.00  0.00     0.097 A 
HETATM   17  C   UNL     1       4.761  30.562  55.555  1.00  0.00     0.075 A 
HETATM   18  C   UNL     1       4.253  30.701  54.263  1.00  0.00     0.070 A 
HETATM   19  C   UNL     1       3.886  29.564  53.542  1.00  0.00     0.039 A 
HETATM   20  C   UNL     1       4.037  28.289  54.091  1.00  0.00     0.035 A 
BRANCH  16  21
HETATM   21  O   UNL     1       5.400  29.030  57.376  1.00  0.00    -0.354 OA
HETATM   22  C   UNL     1       6.710  29.500  57.677  1.00  0.00     0.210 C 
ENDBRANCH  16  21
BRANCH  18  23
HETATM   23  O   UNL     1       4.060  31.879  53.595  1.00  0.00    -0.356 OA
HETATM   24  C   UNL     1       4.095  31.836  52.173  1.00  0.00     0.210 C 
ENDBRANCH  18  23
ENDBRANCH  13  15
ENDBRANCH   1  13
TORSDOF 4
ENDMDL
