MODEL 1
REMARK VINA RESULT:      -9.0      0.000      0.000
REMARK  5 active torsions:
REMARK  status: ('A' for Active; 'I' for Inactive)
REMARK    1  A    between atoms: C_3  and  S_4 
REMARK    2  A    between atoms: S_4  and  C_5 
REMARK    3  A    between atoms: C_5  and  C_6 
REMARK       I    between atoms: C_6  and  N_7 
REMARK    4  A    between atoms: N_7  and  C_8 
REMARK    5  A    between atoms: C_10  and  C_11 
ROOT
HETATM    1  C   UNL     1       6.253  26.565  56.386  1.00  0.00     0.231 C 
HETATM    2  N   UNL     1       7.280  26.457  55.459  1.00  0.00    -0.327 N 
HETATM    3  O   UNL     1       5.263  25.844  56.466  1.00  0.00    -0.272 OA
HETATM    4  H   UNL     1       7.926  27.236  55.417  1.00  0.00     0.169 HD
ENDROOT
BRANCH   2   5
HETATM    5  C   UNL     1       7.484  25.419  54.525  1.00  0.00     0.035 A 
HETATM    6  C   UNL     1       7.813  24.107  54.881  1.00  0.00     0.042 A 
HETATM    7  C   UNL     1       8.046  23.122  53.905  1.00  0.00    -0.021 A 
HETATM    8  C   UNL     1       7.949  23.478  52.555  1.00  0.00     0.012 A 
HETATM    9  C   UNL     1       7.622  24.785  52.188  1.00  0.00     0.003 A 
HETATM   10  C   UNL     1       7.392  25.750  53.169  1.00  0.00     0.029 A 
BRANCH   7  11
HETATM   11  C   UNL     1       8.401  21.761  54.281  1.00  0.00     0.010 A 
HETATM   12  C   UNL     1       8.577  20.595  53.495  1.00  0.00     0.152 A 
HETATM   13  N   UNL     1       8.903  19.522  54.220  1.00  0.00    -0.187 NA
HETATM   14  N   UNL     1       8.940  19.994  55.476  1.00  0.00    -0.289 N 
HETATM   15  H   UNL     1       9.173  19.351  56.226  1.00  0.00     0.188 HD
HETATM   16  C   UNL     1       8.644  21.322  55.567  1.00  0.00     0.123 A 
ENDBRANCH   7  11
ENDBRANCH   2   5
BRANCH   1  17
HETATM   17  C   UNL     1       6.491  27.671  57.399  1.00  0.00     0.182 C 
BRANCH  17  18
HETATM   18  S   UNL     1       6.529  29.295  56.582  1.00  0.00    -0.120 SA
BRANCH  18  19
HETATM   19  C   UNL     1       8.205  29.774  56.997  1.00  0.00     0.006 A 
HETATM   20  C   UNL     1       8.554  30.511  58.146  1.00  0.00    -0.045 A 
HETATM   21  C   UNL     1       7.547  31.014  59.146  1.00  0.00     0.049 C 
HETATM   22  C   UNL     1       9.914  30.768  58.400  1.00  0.00     0.008 A 
HETATM   23  C   UNL     1      10.904  30.346  57.514  1.00  0.00     0.001 A 
HETATM   24  C   UNL     1      10.552  29.658  56.358  1.00  0.00     0.001 A 
HETATM   25  C   UNL     1       9.210  29.375  56.103  1.00  0.00     0.019 A 
ENDBRANCH  18  19
ENDBRANCH  17  18
ENDBRANCH   1  17
TORSDOF 5
ENDMDL
MODEL 2
REMARK VINA RESULT:      -8.9      3.044      8.659
REMARK  5 active torsions:
REMARK  status: ('A' for Active; 'I' for Inactive)
REMARK    1  A    between atoms: C_3  and  S_4 
REMARK    2  A    between atoms: S_4  and  C_5 
REMARK    3  A    between atoms: C_5  and  C_6 
REMARK       I    between atoms: C_6  and  N_7 
REMARK    4  A    between atoms: N_7  and  C_8 
REMARK    5  A    between atoms: C_10  and  C_11 
ROOT
HETATM    1  C   UNL     1       7.511  26.505  57.375  1.00  0.00     0.231 C 
HETATM    2  N   UNL     1       7.788  27.743  56.811  1.00  0.00    -0.327 N 
HETATM    3  O   UNL     1       8.002  26.045  58.402  1.00  0.00    -0.272 OA
HETATM    4  H   UNL     1       7.435  27.893  55.873  1.00  0.00     0.169 HD
ENDROOT
BRANCH   2   5
HETATM    5  C   UNL     1       8.559  28.784  57.367  1.00  0.00     0.035 A 
HETATM    6  C   UNL     1       8.236  29.438  58.560  1.00  0.00     0.042 A 
HETATM    7  C   UNL     1       9.020  30.499  59.048  1.00  0.00    -0.021 A 
HETATM    8  C   UNL     1      10.140  30.900  58.310  1.00  0.00     0.012 A 
HETATM    9  C   UNL     1      10.472  30.255  57.117  1.00  0.00     0.003 A 
HETATM   10  C   UNL     1       9.684  29.203  56.648  1.00  0.00     0.029 A 
BRANCH   7  11
HETATM   11  C   UNL     1       8.672  31.186  60.283  1.00  0.00     0.010 A 
HETATM   12  C   UNL     1       8.948  30.866  61.635  1.00  0.00     0.152 A 
HETATM   13  N   UNL     1       8.448  31.757  62.495  1.00  0.00    -0.187 NA
HETATM   14  N   UNL     1       7.849  32.656  61.699  1.00  0.00    -0.289 N 
HETATM   15  H   UNL     1       7.385  33.449  62.129  1.00  0.00     0.188 HD
HETATM   16  C   UNL     1       7.949  32.359  60.371  1.00  0.00     0.123 A 
ENDBRANCH   7  11
ENDBRANCH   2   5
BRANCH   1  17
HETATM   17  C   UNL     1       6.441  25.740  56.618  1.00  0.00     0.182 C 
BRANCH  17  18
HETATM   18  S   UNL     1       6.635  25.966  54.824  1.00  0.00    -0.120 SA
BRANCH  18  19
HETATM   19  C   UNL     1       7.200  24.320  54.398  1.00  0.00     0.006 A 
HETATM   20  C   UNL     1       7.651  23.948  53.116  1.00  0.00    -0.045 A 
HETATM   21  C   UNL     1       7.678  24.887  51.941  1.00  0.00     0.049 C 
HETATM   22  C   UNL     1       8.136  22.641  52.921  1.00  0.00     0.008 A 
HETATM   23  C   UNL     1       8.131  21.709  53.958  1.00  0.00     0.001 A 
HETATM   24  C   UNL     1       7.643  22.067  55.209  1.00  0.00     0.001 A 
HETATM   25  C   UNL     1       7.180  23.365  55.426  1.00  0.00     0.019 A 
ENDBRANCH  18  19
ENDBRANCH  17  18
ENDBRANCH   1  17
TORSDOF 5
ENDMDL
MODEL 3
REMARK VINA RESULT:      -8.6      3.006      8.747
REMARK  5 active torsions:
REMARK  status: ('A' for Active; 'I' for Inactive)
REMARK    1  A    between atoms: C_3  and  S_4 
REMARK    2  A    between atoms: S_4  and  C_5 
REMARK    3  A    between atoms: C_5  and  C_6 
REMARK       I    between atoms: C_6  and  N_7 
REMARK    4  A    between atoms: N_7  and  C_8 
REMARK    5  A    between atoms: C_10  and  C_11 
ROOT
HETATM    1  C   UNL     1       7.253  27.260  55.821  1.00  0.00     0.231 C 
HETATM    2  N   UNL     1       8.186  27.351  56.846  1.00  0.00    -0.327 N 
HETATM    3  O   UNL     1       6.706  28.197  55.248  1.00  0.00    -0.272 OA
HETATM    4  H   UNL     1       8.403  26.488  57.328  1.00  0.00     0.169 HD
ENDROOT
BRANCH   2   5
HETATM    5  C   UNL     1       8.812  28.518  57.332  1.00  0.00     0.035 A 
HETATM    6  C   UNL     1       8.321  29.275  58.401  1.00  0.00     0.042 A 
HETATM    7  C   UNL     1       8.964  30.454  58.818  1.00  0.00    -0.021 A 
HETATM    8  C   UNL     1      10.114  30.868  58.136  1.00  0.00     0.012 A 
HETATM    9  C   UNL     1      10.612  30.122  57.067  1.00  0.00     0.003 A 
HETATM   10  C   UNL     1       9.963  28.953  56.667  1.00  0.00     0.029 A 
BRANCH   7  11
HETATM   11  C   UNL     1       8.441  31.245  59.923  1.00  0.00     0.010 A 
HETATM   12  C   UNL     1       7.266  32.029  60.032  1.00  0.00     0.152 A 
HETATM   13  N   UNL     1       7.139  32.614  61.225  1.00  0.00    -0.187 NA
HETATM   14  N   UNL     1       8.231  32.208  61.890  1.00  0.00    -0.289 N 
HETATM   15  H   UNL     1       8.363  32.528  62.844  1.00  0.00     0.188 HD
HETATM   16  C   UNL     1       9.043  31.393  61.156  1.00  0.00     0.123 A 
ENDBRANCH   7  11
ENDBRANCH   2   5
BRANCH   1  17
HETATM   17  C   UNL     1       6.992  25.828  55.391  1.00  0.00     0.182 C 
BRANCH  17  18
HETATM   18  S   UNL     1       7.981  24.667  56.381  1.00  0.00    -0.120 SA
BRANCH  18  19
HETATM   19  C   UNL     1       8.030  23.294  55.232  1.00  0.00     0.006 A 
HETATM   20  C   UNL     1       8.183  21.948  55.616  1.00  0.00    -0.045 A 
HETATM   21  C   UNL     1       8.360  21.508  57.044  1.00  0.00     0.049 C 
HETATM   22  C   UNL     1       8.137  20.950  54.625  1.00  0.00     0.008 A 
HETATM   23  C   UNL     1       7.990  21.279  53.277  1.00  0.00     0.001 A 
HETATM   24  C   UNL     1       7.884  22.612  52.898  1.00  0.00     0.001 A 
HETATM   25  C   UNL     1       7.905  23.613  53.870  1.00  0.00     0.019 A 
ENDBRANCH  18  19
ENDBRANCH  17  18
ENDBRANCH   1  17
TORSDOF 5
ENDMDL
MODEL 4
REMARK VINA RESULT:      -8.3      2.912      8.523
REMARK  5 active torsions:
REMARK  status: ('A' for Active; 'I' for Inactive)
REMARK    1  A    between atoms: C_3  and  S_4 
REMARK    2  A    between atoms: S_4  and  C_5 
REMARK    3  A    between atoms: C_5  and  C_6 
REMARK       I    between atoms: C_6  and  N_7 
REMARK    4  A    between atoms: N_7  and  C_8 
REMARK    5  A    between atoms: C_10  and  C_11 
ROOT
HETATM    1  C   UNL     1       5.867  26.219  55.571  1.00  0.00     0.231 C 
HETATM    2  N   UNL     1       5.832  26.806  56.828  1.00  0.00    -0.327 N 
HETATM    3  O   UNL     1       5.781  26.798  54.492  1.00  0.00    -0.272 OA
HETATM    4  H   UNL     1       5.734  26.173  57.612  1.00  0.00     0.169 HD
ENDROOT
BRANCH   2   5
HETATM    5  C   UNL     1       5.846  28.184  57.129  1.00  0.00     0.035 A 
HETATM    6  C   UNL     1       6.977  28.868  57.587  1.00  0.00     0.042 A 
HETATM    7  C   UNL     1       6.923  30.235  57.911  1.00  0.00    -0.021 A 
HETATM    8  C   UNL     1       5.705  30.910  57.774  1.00  0.00     0.012 A 
HETATM    9  C   UNL     1       4.569  30.238  57.319  1.00  0.00     0.003 A 
HETATM   10  C   UNL     1       4.640  28.881  57.000  1.00  0.00     0.029 A 
BRANCH   7  11
HETATM   11  C   UNL     1       8.101  30.939  58.400  1.00  0.00     0.010 A 
HETATM   12  C   UNL     1       8.234  31.980  59.352  1.00  0.00     0.152 A 
HETATM   13  N   UNL     1       9.500  32.367  59.527  1.00  0.00    -0.187 NA
HETATM   14  N   UNL     1      10.187  31.575  58.690  1.00  0.00    -0.289 N 
HETATM   15  H   UNL     1      11.195  31.681  58.643  1.00  0.00     0.188 HD
HETATM   16  C   UNL     1       9.399  30.708  57.991  1.00  0.00     0.123 A 
ENDBRANCH   7  11
ENDBRANCH   2   5
BRANCH   1  17
HETATM   17  C   UNL     1       6.101  24.720  55.630  1.00  0.00     0.182 C 
BRANCH  17  18
HETATM   18  S   UNL     1       7.867  24.352  55.860  1.00  0.00    -0.120 SA
BRANCH  18  19
HETATM   19  C   UNL     1       7.960  22.836  54.910  1.00  0.00     0.006 A 
HETATM   20  C   UNL     1       7.983  22.787  53.502  1.00  0.00    -0.045 A 
HETATM   21  C   UNL     1       7.896  24.009  52.628  1.00  0.00     0.049 C 
HETATM   22  C   UNL     1       8.127  21.538  52.869  1.00  0.00     0.008 A 
HETATM   23  C   UNL     1       8.200  20.359  53.611  1.00  0.00     0.001 A 
HETATM   24  C   UNL     1       8.132  20.409  54.998  1.00  0.00     0.001 A 
HETATM   25  C   UNL     1       8.012  21.640  55.642  1.00  0.00     0.019 A 
ENDBRANCH  18  19
ENDBRANCH  17  18
ENDBRANCH   1  17
TORSDOF 5
ENDMDL
MODEL 5
REMARK VINA RESULT:      -8.3      4.184      6.889
REMARK  5 active torsions:
REMARK  status: ('A' for Active; 'I' for Inactive)
REMARK    1  A    between atoms: C_3  and  S_4 
REMARK    2  A    between atoms: S_4  and  C_5 
REMARK    3  A    between atoms: C_5  and  C_6 
REMARK       I    between atoms: C_6  and  N_7 
REMARK    4  A    between atoms: N_7  and  C_8 
REMARK    5  A    between atoms: C_10  and  C_11 
ROOT
HETATM    1  C   UNL     1       5.423  27.264  53.069  1.00  0.00     0.231 C 
HETATM    2  N   UNL     1       5.045  26.124  53.765  1.00  0.00    -0.327 N 
HETATM    3  O   UNL     1       6.528  27.798  53.089  1.00  0.00    -0.272 OA
HETATM    4  H   UNL     1       4.053  25.920  53.780  1.00  0.00     0.169 HD
ENDROOT
BRANCH   2   5
HETATM    5  C   UNL     1       5.876  25.260  54.508  1.00  0.00     0.035 A 
HETATM    6  C   UNL     1       6.421  24.077  53.999  1.00  0.00     0.042 A 
HETATM    7  C   UNL     1       7.210  23.232  54.799  1.00  0.00    -0.021 A 
HETATM    8  C   UNL     1       7.441  23.593  56.131  1.00  0.00     0.012 A 
HETATM    9  C   UNL     1       6.902  24.771  56.651  1.00  0.00     0.003 A 
HETATM   10  C   UNL     1       6.123  25.599  55.843  1.00  0.00     0.029 A 
BRANCH   7  11
HETATM   11  C   UNL     1       7.763  21.994  54.267  1.00  0.00     0.010 A 
HETATM   12  C   UNL     1       8.219  20.823  54.921  1.00  0.00     0.152 A 
HETATM   13  N   UNL     1       8.666  19.893  54.073  1.00  0.00    -0.187 NA
HETATM   14  N   UNL     1       8.498  20.462  52.869  1.00  0.00    -0.289 N 
HETATM   15  H   UNL     1       8.771  19.937  52.045  1.00  0.00     0.188 HD
HETATM   16  C   UNL     1       7.968  21.717  52.931  1.00  0.00     0.123 A 
ENDBRANCH   7  11
ENDBRANCH   2   5
BRANCH   1  17
HETATM   17  C   UNL     1       4.320  27.798  52.173  1.00  0.00     0.182 C 
BRANCH  17  18
HETATM   18  S   UNL     1       5.001  28.387  50.593  1.00  0.00    -0.120 SA
BRANCH  18  19
HETATM   19  C   UNL     1       3.839  27.599  49.480  1.00  0.00     0.006 A 
HETATM   20  C   UNL     1       2.579  28.132  49.147  1.00  0.00    -0.045 A 
HETATM   21  C   UNL     1       2.046  29.418  49.718  1.00  0.00     0.049 C 
HETATM   22  C   UNL     1       1.782  27.454  48.206  1.00  0.00     0.008 A 
HETATM   23  C   UNL     1       2.202  26.249  47.642  1.00  0.00     0.001 A 
HETATM   24  C   UNL     1       3.427  25.703  48.009  1.00  0.00     0.001 A 
HETATM   25  C   UNL     1       4.239  26.374  48.922  1.00  0.00     0.019 A 
ENDBRANCH  18  19
ENDBRANCH  17  18
ENDBRANCH   1  17
TORSDOF 5
ENDMDL
MODEL 6
REMARK VINA RESULT:      -8.2      4.243      7.570
REMARK  5 active torsions:
REMARK  status: ('A' for Active; 'I' for Inactive)
REMARK    1  A    between atoms: C_3  and  S_4 
REMARK    2  A    between atoms: S_4  and  C_5 
REMARK    3  A    between atoms: C_5  and  C_6 
REMARK       I    between atoms: C_6  and  N_7 
REMARK    4  A    between atoms: N_7  and  C_8 
REMARK    5  A    between atoms: C_10  and  C_11 
ROOT
HETATM    1  C   UNL     1       5.688  26.041  55.413  1.00  0.00     0.231 C 
HETATM    2  N   UNL     1       5.590  25.831  54.045  1.00  0.00    -0.327 N 
HETATM    3  O   UNL     1       5.376  27.062  56.019  1.00  0.00    -0.272 OA
HETATM    4  H   UNL     1       6.054  25.006  53.687  1.00  0.00     0.169 HD
ENDROOT
BRANCH   2   5
HETATM    5  C   UNL     1       4.977  26.671  53.092  1.00  0.00     0.035 A 
HETATM    6  C   UNL     1       5.227  26.600  51.718  1.00  0.00     0.042 A 
HETATM    7  C   UNL     1       4.618  27.491  50.817  1.00  0.00    -0.021 A 
HETATM    8  C   UNL     1       3.750  28.467  51.321  1.00  0.00     0.012 A 
HETATM    9  C   UNL     1       3.493  28.548  52.691  1.00  0.00     0.003 A 
HETATM   10  C   UNL     1       4.105  27.654  53.571  1.00  0.00     0.029 A 
BRANCH   7  11
HETATM   11  C   UNL     1       4.893  27.422  49.389  1.00  0.00     0.010 A 
HETATM   12  C   UNL     1       4.531  26.456  48.417  1.00  0.00     0.152 A 
HETATM   13  N   UNL     1       4.983  26.752  47.195  1.00  0.00    -0.187 NA
HETATM   14  N   UNL     1       5.636  27.910  47.375  1.00  0.00    -0.289 N 
HETATM   15  H   UNL     1       6.076  28.346  46.572  1.00  0.00     0.188 HD
HETATM   16  C   UNL     1       5.616  28.350  48.666  1.00  0.00     0.123 A 
ENDBRANCH   7  11
ENDBRANCH   2   5
BRANCH   1  17
HETATM   17  C   UNL     1       6.178  24.815  56.162  1.00  0.00     0.182 C 
BRANCH  17  18
HETATM   18  S   UNL     1       7.961  24.571  55.902  1.00  0.00    -0.120 SA
BRANCH  18  19
HETATM   19  C   UNL     1       7.902  23.019  55.010  1.00  0.00     0.006 A 
HETATM   20  C   UNL     1       7.959  22.912  53.607  1.00  0.00    -0.045 A 
HETATM   21  C   UNL     1       8.043  24.100  52.687  1.00  0.00     0.049 C 
HETATM   22  C   UNL     1       7.973  21.631  53.024  1.00  0.00     0.008 A 
HETATM   23  C   UNL     1       7.885  20.482  53.809  1.00  0.00     0.001 A 
HETATM   24  C   UNL     1       7.783  20.593  55.191  1.00  0.00     0.001 A 
HETATM   25  C   UNL     1       7.791  21.854  55.787  1.00  0.00     0.019 A 
ENDBRANCH  18  19
ENDBRANCH  17  18
ENDBRANCH   1  17
TORSDOF 5
ENDMDL
MODEL 7
REMARK VINA RESULT:      -8.2      4.609      7.670
REMARK  5 active torsions:
REMARK  status: ('A' for Active; 'I' for Inactive)
REMARK    1  A    between atoms: C_3  and  S_4 
REMARK    2  A    between atoms: S_4  and  C_5 
REMARK    3  A    between atoms: C_5  and  C_6 
REMARK       I    between atoms: C_6  and  N_7 
REMARK    4  A    between atoms: N_7  and  C_8 
REMARK    5  A    between atoms: C_10  and  C_11 
ROOT
HETATM    1  C   UNL     1       8.965  30.925  61.509  1.00  0.00     0.231 C 
HETATM    2  N   UNL     1       8.576  31.229  60.212  1.00  0.00    -0.327 N 
HETATM    3  O   UNL     1       9.635  29.959  61.862  1.00  0.00    -0.272 OA
HETATM    4  H   UNL     1       7.879  31.958  60.115  1.00  0.00     0.169 HD
ENDROOT
BRANCH   2   5
HETATM    5  C   UNL     1       8.990  30.593  59.023  1.00  0.00     0.035 A 
HETATM    6  C   UNL     1       8.357  29.471  58.481  1.00  0.00     0.042 A 
HETATM    7  C   UNL     1       8.838  28.852  57.314  1.00  0.00    -0.021 A 
HETATM    8  C   UNL     1       9.978  29.379  56.696  1.00  0.00     0.012 A 
HETATM    9  C   UNL     1      10.620  30.499  57.229  1.00  0.00     0.003 A 
HETATM   10  C   UNL     1      10.128  31.102  58.387  1.00  0.00     0.029 A 
BRANCH   7  11
HETATM   11  C   UNL     1       8.183  27.675  56.761  1.00  0.00     0.010 A 
HETATM   12  C   UNL     1       8.186  26.323  57.185  1.00  0.00     0.152 A 
HETATM   13  N   UNL     1       7.454  25.529  56.399  1.00  0.00    -0.187 NA
HETATM   14  N   UNL     1       6.976  26.367  55.467  1.00  0.00    -0.289 N 
HETATM   15  H   UNL     1       6.376  25.989  54.741  1.00  0.00     0.188 HD
HETATM   16  C   UNL     1       7.384  27.657  55.635  1.00  0.00     0.123 A 
ENDBRANCH   7  11
ENDBRANCH   2   5
BRANCH   1  17
HETATM   17  C   UNL     1       8.529  31.975  62.515  1.00  0.00     0.182 C 
BRANCH  17  18
HETATM   18  S   UNL     1       7.008  32.805  61.961  1.00  0.00    -0.120 SA
BRANCH  18  19
HETATM   19  C   UNL     1       6.372  33.311  63.558  1.00  0.00     0.006 A 
HETATM   20  C   UNL     1       5.009  33.544  63.827  1.00  0.00    -0.045 A 
HETATM   21  C   UNL     1       3.927  33.427  62.787  1.00  0.00     0.049 C 
HETATM   22  C   UNL     1       4.623  33.871  65.140  1.00  0.00     0.008 A 
HETATM   23  C   UNL     1       5.569  34.011  66.155  1.00  0.00     0.001 A 
HETATM   24  C   UNL     1       6.918  33.825  65.875  1.00  0.00     0.001 A 
HETATM   25  C   UNL     1       7.316  33.477  64.584  1.00  0.00     0.019 A 
ENDBRANCH  18  19
ENDBRANCH  17  18
ENDBRANCH   1  17
TORSDOF 5
ENDMDL
MODEL 8
REMARK VINA RESULT:      -7.8      5.149      8.890
REMARK  5 active torsions:
REMARK  status: ('A' for Active; 'I' for Inactive)
REMARK    1  A    between atoms: C_3  and  S_4 
REMARK    2  A    between atoms: S_4  and  C_5 
REMARK    3  A    between atoms: C_5  and  C_6 
REMARK       I    between atoms: C_6  and  N_7 
REMARK    4  A    between atoms: N_7  and  C_8 
REMARK    5  A    between atoms: C_10  and  C_11 
ROOT
HETATM    1  C   UNL     1       5.163  25.956  52.234  1.00  0.00     0.231 C 
HETATM    2  N   UNL     1       5.522  25.948  50.893  1.00  0.00    -0.327 N 
HETATM    3  O   UNL     1       4.470  26.797  52.797  1.00  0.00    -0.272 OA
HETATM    4  H   UNL     1       6.242  25.286  50.629  1.00  0.00     0.169 HD
ENDROOT
BRANCH   2   5
HETATM    5  C   UNL     1       5.049  26.801  49.874  1.00  0.00     0.035 A 
HETATM    6  C   UNL     1       5.348  28.165  49.802  1.00  0.00     0.042 A 
HETATM    7  C   UNL     1       4.815  28.977  48.786  1.00  0.00    -0.021 A 
HETATM    8  C   UNL     1       3.964  28.396  47.839  1.00  0.00     0.012 A 
HETATM    9  C   UNL     1       3.657  27.035  47.902  1.00  0.00     0.003 A 
HETATM   10  C   UNL     1       4.197  26.243  48.915  1.00  0.00     0.029 A 
BRANCH   7  11
HETATM   11  C   UNL     1       5.118  30.400  48.723  1.00  0.00     0.010 A 
HETATM   12  C   UNL     1       5.987  31.201  49.504  1.00  0.00     0.152 A 
HETATM   13  N   UNL     1       5.988  32.484  49.132  1.00  0.00    -0.187 NA
HETATM   14  N   UNL     1       5.120  32.513  48.110  1.00  0.00    -0.289 N 
HETATM   15  H   UNL     1       4.947  33.400  47.648  1.00  0.00     0.188 HD
HETATM   16  C   UNL     1       4.570  31.297  47.828  1.00  0.00     0.123 A 
ENDBRANCH   7  11
ENDBRANCH   2   5
BRANCH   1  17
HETATM   17  C   UNL     1       5.668  24.737  52.985  1.00  0.00     0.182 C 
BRANCH  17  18
HETATM   18  S   UNL     1       7.472  24.583  52.823  1.00  0.00    -0.120 SA
BRANCH  18  19
HETATM   19  C   UNL     1       7.693  23.019  53.668  1.00  0.00     0.006 A 
HETATM   20  C   UNL     1       7.669  22.868  55.069  1.00  0.00    -0.045 A 
HETATM   21  C   UNL     1       7.488  24.017  56.023  1.00  0.00     0.049 C 
HETATM   22  C   UNL     1       7.786  21.576  55.614  1.00  0.00     0.008 A 
HETATM   23  C   UNL     1       7.970  20.462  54.794  1.00  0.00     0.001 A 
HETATM   24  C   UNL     1       8.039  20.622  53.415  1.00  0.00     0.001 A 
HETATM   25  C   UNL     1       7.901  21.892  52.857  1.00  0.00     0.019 A 
ENDBRANCH  18  19
ENDBRANCH  17  18
ENDBRANCH   1  17
TORSDOF 5
ENDMDL
MODEL 9
REMARK VINA RESULT:      -7.8      2.957      8.791
REMARK  5 active torsions:
REMARK  status: ('A' for Active; 'I' for Inactive)
REMARK    1  A    between atoms: C_3  and  S_4 
REMARK    2  A    between atoms: S_4  and  C_5 
REMARK    3  A    between atoms: C_5  and  C_6 
REMARK       I    between atoms: C_6  and  N_7 
REMARK    4  A    between atoms: N_7  and  C_8 
REMARK    5  A    between atoms: C_10  and  C_11 
ROOT
HETATM    1  C   UNL     1       6.845  26.303  55.320  1.00  0.00     0.231 C 
HETATM    2  N   UNL     1       7.026  26.683  56.643  1.00  0.00    -0.327 N 
HETATM    3  O   UNL     1       7.022  27.005  54.329  1.00  0.00    -0.272 OA
HETATM    4  H   UNL     1       6.665  26.046  57.342  1.00  0.00     0.169 HD
ENDROOT
BRANCH   2   5
HETATM    5  C   UNL     1       7.592  27.884  57.118  1.00  0.00     0.035 A 
HETATM    6  C   UNL     1       6.848  28.919  57.694  1.00  0.00     0.042 A 
HETATM    7  C   UNL     1       7.460  30.113  58.114  1.00  0.00    -0.021 A 
HETATM    8  C   UNL     1       8.842  30.256  57.941  1.00  0.00     0.012 A 
HETATM    9  C   UNL     1       9.594  29.231  57.366  1.00  0.00     0.003 A 
HETATM   10  C   UNL     1       8.971  28.051  56.957  1.00  0.00     0.029 A 
BRANCH   7  11
HETATM   11  C   UNL     1       6.679  31.193  58.700  1.00  0.00     0.010 A 
HETATM   12  C   UNL     1       5.437  31.757  58.318  1.00  0.00     0.152 A 
HETATM   13  N   UNL     1       5.046  32.750  59.121  1.00  0.00    -0.187 NA
HETATM   14  N   UNL     1       6.035  32.829  60.024  1.00  0.00    -0.289 N 
HETATM   15  H   UNL     1       5.965  33.526  60.758  1.00  0.00     0.188 HD
HETATM   16  C   UNL     1       7.035  31.925  59.815  1.00  0.00     0.123 A 
ENDBRANCH   7  11
ENDBRANCH   2   5
BRANCH   1  17
HETATM   17  C   UNL     1       6.450  24.845  55.176  1.00  0.00     0.182 C 
BRANCH  17  18
HETATM   18  S   UNL     1       7.480  24.018  53.926  1.00  0.00    -0.120 SA
BRANCH  18  19
HETATM   19  C   UNL     1       7.891  22.535  54.843  1.00  0.00     0.006 A 
HETATM   20  C   UNL     1       8.061  21.266  54.256  1.00  0.00    -0.045 A 
HETATM   21  C   UNL     1       7.882  21.002  52.785  1.00  0.00     0.049 C 
HETATM   22  C   UNL     1       8.452  20.188  55.072  1.00  0.00     0.008 A 
HETATM   23  C   UNL     1       8.625  20.351  56.446  1.00  0.00     0.001 A 
HETATM   24  C   UNL     1       8.412  21.595  57.028  1.00  0.00     0.001 A 
HETATM   25  C   UNL     1       8.047  22.679  56.231  1.00  0.00     0.019 A 
ENDBRANCH  18  19
ENDBRANCH  17  18
ENDBRANCH   1  17
TORSDOF 5
ENDMDL
MODEL 10
REMARK VINA RESULT:      -7.8      5.393     11.038
REMARK  5 active torsions:
REMARK  status: ('A' for Active; 'I' for Inactive)
REMARK    1  A    between atoms: C_3  and  S_4 
REMARK    2  A    between atoms: S_4  and  C_5 
REMARK    3  A    between atoms: C_5  and  C_6 
REMARK       I    between atoms: C_6  and  N_7 
REMARK    4  A    between atoms: N_7  and  C_8 
REMARK    5  A    between atoms: C_10  and  C_11 
ROOT
HETATM    1  C   UNL     1       7.751  31.111  59.484  1.00  0.00     0.231 C 
HETATM    2  N   UNL     1       7.548  30.837  60.830  1.00  0.00    -0.327 N 
HETATM    3  O   UNL     1       7.575  32.190  58.925  1.00  0.00    -0.272 OA
HETATM    4  H   UNL     1       7.566  29.859  61.092  1.00  0.00     0.169 HD
ENDROOT
BRANCH   2   5
HETATM    5  C   UNL     1       7.252  31.758  61.856  1.00  0.00     0.035 A 
HETATM    6  C   UNL     1       6.079  32.519  61.903  1.00  0.00     0.042 A 
HETATM    7  C   UNL     1       5.855  33.453  62.929  1.00  0.00    -0.021 A 
HETATM    8  C   UNL     1       6.836  33.618  63.914  1.00  0.00     0.012 A 
HETATM    9  C   UNL     1       8.011  32.865  63.877  1.00  0.00     0.003 A 
HETATM   10  C   UNL     1       8.217  31.940  62.852  1.00  0.00     0.029 A 
BRANCH   7  11
HETATM   11  C   UNL     1       4.639  34.253  62.966  1.00  0.00     0.010 A 
HETATM   12  C   UNL     1       3.912  34.890  61.929  1.00  0.00     0.152 A 
HETATM   13  N   UNL     1       2.834  35.542  62.373  1.00  0.00    -0.187 NA
HETATM   14  N   UNL     1       2.861  35.325  63.696  1.00  0.00    -0.289 N 
HETATM   15  H   UNL     1       2.126  35.729  64.267  1.00  0.00     0.188 HD
HETATM   16  C   UNL     1       3.920  34.567  64.102  1.00  0.00     0.123 A 
ENDBRANCH   7  11
ENDBRANCH   2   5
BRANCH   1  17
HETATM   17  C   UNL     1       8.304  29.922  58.720  1.00  0.00     0.182 C 
BRANCH  17  18
HETATM   18  S   UNL     1       7.560  29.818  57.064  1.00  0.00    -0.120 SA
BRANCH  18  19
HETATM   19  C   UNL     1       6.966  28.130  57.133  1.00  0.00     0.006 A 
HETATM   20  C   UNL     1       5.659  27.738  56.781  1.00  0.00    -0.045 A 
HETATM   21  C   UNL     1       4.595  28.704  56.336  1.00  0.00     0.049 C 
HETATM   22  C   UNL     1       5.330  26.370  56.811  1.00  0.00     0.008 A 
HETATM   23  C   UNL     1       6.258  25.415  57.226  1.00  0.00     0.001 A 
HETATM   24  C   UNL     1       7.532  25.811  57.616  1.00  0.00     0.001 A 
HETATM   25  C   UNL     1       7.882  27.161  57.570  1.00  0.00     0.019 A 
ENDBRANCH  18  19
ENDBRANCH  17  18
ENDBRANCH   1  17
TORSDOF 5
ENDMDL
