MODEL 1
REMARK VINA RESULT:     -12.5      0.000      0.000
REMARK  8 active torsions:
REMARK  status: ('A' for Active; 'I' for Inactive)
REMARK    1  A    between atoms: N_5  and  C_6 
REMARK    2  A    between atoms: C_6  and  C_7 
REMARK       I    between atoms: C_7  and  N_8 
REMARK    3  A    between atoms: N_8  and  C_9 
REMARK    4  A    between atoms: N_19  and  C_20 
REMARK    5  A    between atoms: C_20  and  C_21 
REMARK    6  A    between atoms: C_24  and  C_25 
REMARK       I    between atoms: C_25  and  N_26 
REMARK    7  A    between atoms: N_26  and  C_27 
REMARK    8  A    between atoms: C_27  and  C_28 
ROOT
HETATM    1  C   UNL     1       8.142  22.193  54.773  1.00  0.00     0.001 A 
HETATM    2  C   UNL     1       7.377  23.027  55.582  1.00  0.00     0.019 A 
HETATM    3  C   UNL     1       6.867  24.229  55.065  1.00  0.00     0.059 A 
HETATM    4  C   UNL     1       7.104  24.608  53.745  1.00  0.00     0.055 A 
HETATM    5  N   UNL     1       6.569  25.836  53.267  1.00  0.00    -0.290 N 
HETATM    6  C   UNL     1       5.893  26.719  54.098  1.00  0.00     0.332 C 
HETATM    7  O   UNL     1       5.614  27.855  53.706  1.00  0.00    -0.246 OA
HETATM    8  N   UNL     1       5.604  26.287  55.381  1.00  0.00    -0.261 N 
HETATM    9  C   UNL     1       6.057  25.098  55.933  1.00  0.00     0.264 C 
HETATM   10  O   UNL     1       5.832  24.748  57.090  1.00  0.00    -0.267 OA
HETATM   11  C   UNL     1       7.882  23.757  52.944  1.00  0.00     0.031 A 
HETATM   12  C   UNL     1       8.395  22.559  53.456  1.00  0.00     0.002 A 
ENDROOT
BRANCH   8  13
HETATM   13  C   UNL     1       4.793  27.157  56.226  1.00  0.00     0.175 C 
BRANCH  13  14
HETATM   14  C   UNL     1       5.637  28.170  56.974  1.00  0.00    -0.040 A 
HETATM   15  C   UNL     1       6.977  27.900  57.285  1.00  0.00     0.010 A 
HETATM   16  C   UNL     1       7.760  28.834  57.978  1.00  0.00     0.017 A 
HETATM   17  C   UNL     1       7.213  30.060  58.370  1.00  0.00     0.032 A 
HETATM   18  C   UNL     1       5.871  30.329  58.060  1.00  0.00     0.017 A 
HETATM   19  C   UNL     1       5.089  29.394  57.376  1.00  0.00     0.010 A 
BRANCH  17  20
HETATM   20  C   UNL     1       7.976  31.114  59.111  1.00  0.00     0.251 C 
HETATM   21  N   UNL     1       7.597  31.400  60.406  1.00  0.00    -0.353 N 
HETATM   22  H   UNL     1       6.904  30.850  60.888  1.00  0.00     0.163 HD
HETATM   23  O   UNL     1       8.897  31.701  58.553  1.00  0.00    -0.268 OA
BRANCH  21  24
HETATM   24  C   UNL     1       8.295  32.404  61.182  1.00  0.00     0.161 C 
BRANCH  24  25
HETATM   25  C   UNL     1       7.491  32.884  62.368  1.00  0.00    -0.038 A 
HETATM   26  C   UNL     1       6.169  33.323  62.176  1.00  0.00     0.048 A 
HETATM   27  C   UNL     1       5.429  33.681  63.285  1.00  0.00     0.105 A 
HETATM   28  C   UNL     1       5.950  33.621  64.554  1.00  0.00     0.105 A 
HETATM   29  O   UNL     1       4.138  34.108  63.274  1.00  0.00    -0.323 OA
HETATM   30  O   UNL     1       5.055  34.006  65.503  1.00  0.00    -0.323 OA
HETATM   31  C   UNL     1       7.237  33.193  64.789  1.00  0.00     0.040 A 
HETATM   32  C   UNL     1       3.897  34.279  64.686  1.00  0.00     0.352 A 
HETATM   33  C   UNL     1       8.006  32.808  63.684  1.00  0.00     0.012 A 
ENDBRANCH  24  25
ENDBRANCH  21  24
ENDBRANCH  17  20
ENDBRANCH  13  14
ENDBRANCH   8  13
BRANCH   5  34
HETATM   34  C   UNL     1       6.691  26.192  51.846  1.00  0.00     0.237 C 
BRANCH  34  35
HETATM   35  C   UNL     1       5.436  25.945  51.000  1.00  0.00     0.240 C 
HETATM   36  N   UNL     1       5.252  26.864  49.983  1.00  0.00    -0.326 N 
HETATM   37  H   UNL     1       5.973  27.570  49.885  1.00  0.00     0.169 HD
HETATM   38  O   UNL     1       4.650  25.058  51.322  1.00  0.00    -0.271 OA
BRANCH  36  39
HETATM   39  C   UNL     1       4.157  26.966  49.099  1.00  0.00     0.036 A 
HETATM   40  C   UNL     1       3.217  27.998  49.129  1.00  0.00     0.053 A 
HETATM   41  C   UNL     1       2.178  28.027  48.195  1.00  0.00     0.036 A 
HETATM   42 CL   UNL     1       1.039  29.318  48.224  1.00  0.00    -0.084 Cl
HETATM   43  C   UNL     1       2.055  27.027  47.234  1.00  0.00     0.024 A 
HETATM   44  C   UNL     1       2.982  25.989  47.202  1.00  0.00     0.004 A 
HETATM   45  C   UNL     1       4.030  25.963  48.127  1.00  0.00     0.029 A 
ENDBRANCH  36  39
ENDBRANCH  34  35
ENDBRANCH   5  34
TORSDOF 8
ENDMDL
MODEL 2
REMARK VINA RESULT:     -11.2      2.810      5.487
REMARK  8 active torsions:
REMARK  status: ('A' for Active; 'I' for Inactive)
REMARK    1  A    between atoms: N_5  and  C_6 
REMARK    2  A    between atoms: C_6  and  C_7 
REMARK       I    between atoms: C_7  and  N_8 
REMARK    3  A    between atoms: N_8  and  C_9 
REMARK    4  A    between atoms: N_19  and  C_20 
REMARK    5  A    between atoms: C_20  and  C_21 
REMARK    6  A    between atoms: C_24  and  C_25 
REMARK       I    between atoms: C_25  and  N_26 
REMARK    7  A    between atoms: N_26  and  C_27 
REMARK    8  A    between atoms: C_27  and  C_28 
ROOT
HETATM    1  C   UNL     1       5.305  30.926  49.803  1.00  0.00     0.001 A 
HETATM    2  C   UNL     1       4.850  30.856  51.116  1.00  0.00     0.019 A 
HETATM    3  C   UNL     1       4.840  29.624  51.790  1.00  0.00     0.059 A 
HETATM    4  C   UNL     1       5.286  28.457  51.172  1.00  0.00     0.055 A 
HETATM    5  N   UNL     1       5.255  27.232  51.892  1.00  0.00    -0.290 N 
HETATM    6  C   UNL     1       4.707  27.139  53.164  1.00  0.00     0.332 C 
HETATM    7  O   UNL     1       4.516  26.036  53.683  1.00  0.00    -0.246 OA
HETATM    8  N   UNL     1       4.342  28.321  53.786  1.00  0.00    -0.261 N 
HETATM    9  C   UNL     1       4.360  29.569  53.179  1.00  0.00     0.264 C 
HETATM   10  O   UNL     1       3.988  30.604  53.727  1.00  0.00    -0.267 OA
HETATM   11  C   UNL     1       5.737  28.545  49.844  1.00  0.00     0.031 A 
HETATM   12  C   UNL     1       5.746  29.771  49.169  1.00  0.00     0.002 A 
ENDROOT
BRANCH   8  13
HETATM   13  C   UNL     1       3.875  28.249  55.166  1.00  0.00     0.175 C 
BRANCH  13  14
HETATM   14  C   UNL     1       4.847  28.901  56.130  1.00  0.00    -0.040 A 
HETATM   15  C   UNL     1       4.470  30.022  56.882  1.00  0.00     0.010 A 
HETATM   16  C   UNL     1       5.365  30.628  57.775  1.00  0.00     0.017 A 
HETATM   17  C   UNL     1       6.658  30.117  57.932  1.00  0.00     0.032 A 
HETATM   18  C   UNL     1       7.036  28.996  57.178  1.00  0.00     0.017 A 
HETATM   19  C   UNL     1       6.144  28.397  56.283  1.00  0.00     0.010 A 
BRANCH  17  20
HETATM   20  C   UNL     1       7.677  30.700  58.861  1.00  0.00     0.251 C 
HETATM   21  N   UNL     1       7.251  31.143  60.096  1.00  0.00    -0.353 N 
HETATM   22  H   UNL     1       6.311  30.985  60.419  1.00  0.00     0.163 HD
HETATM   23  O   UNL     1       8.847  30.785  58.502  1.00  0.00    -0.268 OA
BRANCH  21  24
HETATM   24  C   UNL     1       8.185  31.713  61.045  1.00  0.00     0.161 C 
BRANCH  24  25
HETATM   25  C   UNL     1       7.494  32.343  62.233  1.00  0.00    -0.038 A 
HETATM   26  C   UNL     1       6.098  32.502  62.216  1.00  0.00     0.048 A 
HETATM   27  C   UNL     1       5.482  33.007  63.343  1.00  0.00     0.105 A 
HETATM   28  C   UNL     1       6.195  33.355  64.465  1.00  0.00     0.105 A 
HETATM   29  O   UNL     1       4.145  33.204  63.497  1.00  0.00    -0.323 OA
HETATM   30  O   UNL     1       5.398  33.819  65.464  1.00  0.00    -0.323 OA
HETATM   31  C   UNL     1       7.563  33.212  64.526  1.00  0.00     0.040 A 
HETATM   32  C   UNL     1       4.097  33.687  64.855  1.00  0.00     0.352 A 
HETATM   33  C   UNL     1       8.213  32.687  63.403  1.00  0.00     0.012 A 
ENDBRANCH  24  25
ENDBRANCH  21  24
ENDBRANCH  17  20
ENDBRANCH  13  14
ENDBRANCH   8  13
BRANCH   5  34
HETATM   34  C   UNL     1       5.843  26.017  51.311  1.00  0.00     0.237 C 
BRANCH  34  35
HETATM   35  C   UNL     1       6.922  25.339  52.165  1.00  0.00     0.240 C 
HETATM   36  N   UNL     1       6.479  24.223  52.852  1.00  0.00    -0.326 N 
HETATM   37  H   UNL     1       5.514  23.957  52.693  1.00  0.00     0.169 HD
HETATM   38  O   UNL     1       8.030  25.860  52.270  1.00  0.00    -0.271 OA
BRANCH  36  39
HETATM   39  C   UNL     1       7.195  23.444  53.784  1.00  0.00     0.036 A 
HETATM   40  C   UNL     1       7.704  22.171  53.517  1.00  0.00     0.053 A 
HETATM   41  C   UNL     1       8.424  21.484  54.498  1.00  0.00     0.036 A 
HETATM   42 CL   UNL     1       9.069  19.926  54.151  1.00  0.00    -0.084 Cl
HETATM   43  C   UNL     1       8.635  22.048  55.754  1.00  0.00     0.024 A 
HETATM   44  C   UNL     1       8.125  23.313  56.032  1.00  0.00     0.004 A 
HETATM   45  C   UNL     1       7.413  24.009  55.049  1.00  0.00     0.029 A 
ENDBRANCH  36  39
ENDBRANCH  34  35
ENDBRANCH   5  34
TORSDOF 8
ENDMDL
MODEL 3
REMARK VINA RESULT:     -11.1      2.039      2.937
REMARK  8 active torsions:
REMARK  status: ('A' for Active; 'I' for Inactive)
REMARK    1  A    between atoms: N_5  and  C_6 
REMARK    2  A    between atoms: C_6  and  C_7 
REMARK       I    between atoms: C_7  and  N_8 
REMARK    3  A    between atoms: N_8  and  C_9 
REMARK    4  A    between atoms: N_19  and  C_20 
REMARK    5  A    between atoms: C_20  and  C_21 
REMARK    6  A    between atoms: C_24  and  C_25 
REMARK       I    between atoms: C_25  and  N_26 
REMARK    7  A    between atoms: N_26  and  C_27 
REMARK    8  A    between atoms: C_27  and  C_28 
ROOT
HETATM    1  C   UNL     1       8.497  23.784  57.293  1.00  0.00     0.001 A 
HETATM    2  C   UNL     1       8.649  25.164  57.384  1.00  0.00     0.019 A 
HETATM    3  C   UNL     1       7.912  26.008  56.538  1.00  0.00     0.059 A 
HETATM    4  C   UNL     1       7.017  25.493  55.602  1.00  0.00     0.055 A 
HETATM    5  N   UNL     1       6.294  26.386  54.764  1.00  0.00    -0.290 N 
HETATM    6  C   UNL     1       6.519  27.756  54.781  1.00  0.00     0.332 C 
HETATM    7  O   UNL     1       6.025  28.480  53.913  1.00  0.00    -0.246 OA
HETATM    8  N   UNL     1       7.354  28.250  55.769  1.00  0.00    -0.261 N 
HETATM    9  C   UNL     1       8.083  27.464  56.650  1.00  0.00     0.264 C 
HETATM   10  O   UNL     1       8.858  27.915  57.491  1.00  0.00    -0.267 OA
HETATM   11  C   UNL     1       6.878  24.097  55.520  1.00  0.00     0.031 A 
HETATM   12  C   UNL     1       7.613  23.252  56.361  1.00  0.00     0.002 A 
ENDROOT
BRANCH   8  13
HETATM   13  C   UNL     1       7.506  29.697  55.871  1.00  0.00     0.175 C 
BRANCH  13  14
HETATM   14  C   UNL     1       6.598  30.291  56.930  1.00  0.00    -0.040 A 
HETATM   15  C   UNL     1       5.204  30.231  56.796  1.00  0.00     0.010 A 
HETATM   16  C   UNL     1       4.361  30.780  57.773  1.00  0.00     0.017 A 
HETATM   17  C   UNL     1       4.901  31.399  58.905  1.00  0.00     0.032 A 
HETATM   18  C   UNL     1       6.297  31.460  59.037  1.00  0.00     0.017 A 
HETATM   19  C   UNL     1       7.137  30.918  58.059  1.00  0.00     0.010 A 
BRANCH  17  20
HETATM   20  C   UNL     1       4.077  32.010  59.994  1.00  0.00     0.251 C 
HETATM   21  N   UNL     1       4.734  32.621  61.041  1.00  0.00    -0.353 N 
HETATM   22  H   UNL     1       5.732  32.757  61.031  1.00  0.00     0.163 HD
HETATM   23  O   UNL     1       2.853  31.940  59.940  1.00  0.00    -0.268 OA
BRANCH  21  24
HETATM   24  C   UNL     1       3.997  33.237  62.125  1.00  0.00     0.161 C 
BRANCH  24  25
HETATM   25  C   UNL     1       4.861  33.499  63.338  1.00  0.00    -0.038 A 
HETATM   26  C   UNL     1       4.254  33.873  64.550  1.00  0.00     0.048 A 
HETATM   27  C   UNL     1       5.056  34.031  65.663  1.00  0.00     0.105 A 
HETATM   28  C   UNL     1       6.415  33.834  65.612  1.00  0.00     0.105 A 
HETATM   29  O   UNL     1       4.628  34.370  66.908  1.00  0.00    -0.323 OA
HETATM   30  O   UNL     1       7.014  34.029  66.816  1.00  0.00    -0.323 OA
HETATM   31  C   UNL     1       7.049  33.463  64.447  1.00  0.00     0.040 A 
HETATM   32  C   UNL     1       5.870  34.334  67.641  1.00  0.00     0.352 A 
HETATM   33  C   UNL     1       6.259  33.281  63.306  1.00  0.00     0.012 A 
ENDBRANCH  24  25
ENDBRANCH  21  24
ENDBRANCH  17  20
ENDBRANCH  13  14
ENDBRANCH   8  13
BRANCH   5  34
HETATM   34  C   UNL     1       5.248  25.875  53.866  1.00  0.00     0.237 C 
BRANCH  34  35
HETATM   35  C   UNL     1       5.571  25.963  52.370  1.00  0.00     0.240 C 
HETATM   36  N   UNL     1       4.706  26.770  51.653  1.00  0.00    -0.326 N 
HETATM   37  H   UNL     1       3.984  27.237  52.191  1.00  0.00     0.169 HD
HETATM   38  O   UNL     1       6.465  25.265  51.898  1.00  0.00    -0.271 OA
BRANCH  36  39
HETATM   39  C   UNL     1       4.678  26.980  50.259  1.00  0.00     0.036 A 
HETATM   40  C   UNL     1       3.984  26.171  49.357  1.00  0.00     0.053 A 
HETATM   41  C   UNL     1       3.995  26.473  47.993  1.00  0.00     0.036 A 
HETATM   42 CL   UNL     1       3.114  25.484  46.891  1.00  0.00    -0.084 Cl
HETATM   43  C   UNL     1       4.704  27.570  47.510  1.00  0.00     0.024 A 
HETATM   44  C   UNL     1       5.406  28.377  48.401  1.00  0.00     0.004 A 
HETATM   45  C   UNL     1       5.389  28.086  49.768  1.00  0.00     0.029 A 
ENDBRANCH  36  39
ENDBRANCH  34  35
ENDBRANCH   5  34
TORSDOF 8
ENDMDL
MODEL 4
REMARK VINA RESULT:     -10.7      4.641     12.942
REMARK  8 active torsions:
REMARK  status: ('A' for Active; 'I' for Inactive)
REMARK    1  A    between atoms: N_5  and  C_6 
REMARK    2  A    between atoms: C_6  and  C_7 
REMARK       I    between atoms: C_7  and  N_8 
REMARK    3  A    between atoms: N_8  and  C_9 
REMARK    4  A    between atoms: N_19  and  C_20 
REMARK    5  A    between atoms: C_20  and  C_21 
REMARK    6  A    between atoms: C_24  and  C_25 
REMARK       I    between atoms: C_25  and  N_26 
REMARK    7  A    between atoms: N_26  and  C_27 
REMARK    8  A    between atoms: C_27  and  C_28 
ROOT
HETATM    1  C   UNL     1       8.956  31.978  61.757  1.00  0.00     0.001 A 
HETATM    2  C   UNL     1       8.418  31.943  60.475  1.00  0.00     0.019 A 
HETATM    3  C   UNL     1       7.027  32.007  60.296  1.00  0.00     0.059 A 
HETATM    4  C   UNL     1       6.161  32.113  61.383  1.00  0.00     0.055 A 
HETATM    5  N   UNL     1       4.759  32.172  61.153  1.00  0.00    -0.290 N 
HETATM    6  C   UNL     1       4.214  32.033  59.884  1.00  0.00     0.332 C 
HETATM    7  O   UNL     1       2.997  31.892  59.740  1.00  0.00    -0.246 OA
HETATM    8  N   UNL     1       5.094  32.007  58.815  1.00  0.00    -0.261 N 
HETATM    9  C   UNL     1       6.476  31.972  58.932  1.00  0.00     0.264 C 
HETATM   10  O   UNL     1       7.244  31.901  57.976  1.00  0.00    -0.267 OA
HETATM   11  C   UNL     1       6.721  32.142  62.671  1.00  0.00     0.031 A 
HETATM   12  C   UNL     1       8.108  32.076  62.853  1.00  0.00     0.002 A 
ENDROOT
BRANCH   8  13
HETATM   13  C   UNL     1       4.531  31.980  57.470  1.00  0.00     0.175 C 
BRANCH  13  14
HETATM   14  C   UNL     1       4.846  30.686  56.746  1.00  0.00    -0.040 A 
HETATM   15  C   UNL     1       4.975  29.482  57.452  1.00  0.00     0.010 A 
HETATM   16  C   UNL     1       5.268  28.282  56.787  1.00  0.00     0.017 A 
HETATM   17  C   UNL     1       5.434  28.269  55.398  1.00  0.00     0.032 A 
HETATM   18  C   UNL     1       5.306  29.475  54.693  1.00  0.00     0.017 A 
HETATM   19  C   UNL     1       5.022  30.671  55.358  1.00  0.00     0.010 A 
BRANCH  17  20
HETATM   20  C   UNL     1       5.747  27.036  54.608  1.00  0.00     0.251 C 
HETATM   21  N   UNL     1       7.062  26.628  54.536  1.00  0.00    -0.353 N 
HETATM   22  H   UNL     1       7.784  27.071  55.081  1.00  0.00     0.163 HD
HETATM   23  O   UNL     1       4.842  26.435  54.039  1.00  0.00    -0.268 OA
BRANCH  21  24
HETATM   24  C   UNL     1       7.434  25.442  53.793  1.00  0.00     0.161 C 
BRANCH  24  25
HETATM   25  C   UNL     1       7.705  24.256  54.691  1.00  0.00    -0.038 A 
HETATM   26  C   UNL     1       7.684  22.959  54.148  1.00  0.00     0.048 A 
HETATM   27  C   UNL     1       8.012  21.900  54.970  1.00  0.00     0.105 A 
HETATM   28  C   UNL     1       8.352  22.082  56.289  1.00  0.00     0.105 A 
HETATM   29  O   UNL     1       8.057  20.592  54.600  1.00  0.00    -0.323 OA
HETATM   30  O   UNL     1       8.649  20.913  56.916  1.00  0.00    -0.323 OA
HETATM   31  C   UNL     1       8.389  23.335  56.859  1.00  0.00     0.040 A 
HETATM   32  C   UNL     1       8.495  19.977  55.829  1.00  0.00     0.352 A 
HETATM   33  C   UNL     1       8.076  24.430  56.046  1.00  0.00     0.012 A 
ENDBRANCH  24  25
ENDBRANCH  21  24
ENDBRANCH  17  20
ENDBRANCH  13  14
ENDBRANCH   8  13
BRANCH   5  34
HETATM   34  C   UNL     1       3.837  32.419  62.271  1.00  0.00     0.237 C 
BRANCH  34  35
HETATM   35  C   UNL     1       4.221  33.583  63.191  1.00  0.00     0.240 C 
HETATM   36  N   UNL     1       4.347  33.232  64.523  1.00  0.00    -0.326 N 
HETATM   37  H   UNL     1       4.208  32.251  64.739  1.00  0.00     0.169 HD
HETATM   38  O   UNL     1       4.286  34.723  62.735  1.00  0.00    -0.271 OA
BRANCH  36  39
HETATM   39  C   UNL     1       4.595  34.083  65.620  1.00  0.00     0.036 A 
HETATM   40  C   UNL     1       5.681  33.949  66.487  1.00  0.00     0.053 A 
HETATM   41  C   UNL     1       5.858  34.859  67.533  1.00  0.00     0.036 A 
HETATM   42 CL   UNL     1       7.215  34.700  68.583  1.00  0.00    -0.084 Cl
HETATM   43  C   UNL     1       4.954  35.899  67.736  1.00  0.00     0.024 A 
HETATM   44  C   UNL     1       3.864  36.035  66.881  1.00  0.00     0.004 A 
HETATM   45  C   UNL     1       3.689  35.135  65.826  1.00  0.00     0.029 A 
ENDBRANCH  36  39
ENDBRANCH  34  35
ENDBRANCH   5  34
TORSDOF 8
ENDMDL
MODEL 5
REMARK VINA RESULT:     -10.5      4.141     12.248
REMARK  8 active torsions:
REMARK  status: ('A' for Active; 'I' for Inactive)
REMARK    1  A    between atoms: N_5  and  C_6 
REMARK    2  A    between atoms: C_6  and  C_7 
REMARK       I    between atoms: C_7  and  N_8 
REMARK    3  A    between atoms: N_8  and  C_9 
REMARK    4  A    between atoms: N_19  and  C_20 
REMARK    5  A    between atoms: C_20  and  C_21 
REMARK    6  A    between atoms: C_24  and  C_25 
REMARK       I    between atoms: C_25  and  N_26 
REMARK    7  A    between atoms: N_26  and  C_27 
REMARK    8  A    between atoms: C_27  and  C_28 
ROOT
HETATM    1  C   UNL     1       9.056  31.876  61.913  1.00  0.00     0.001 A 
HETATM    2  C   UNL     1       8.506  31.867  60.635  1.00  0.00     0.019 A 
HETATM    3  C   UNL     1       7.122  32.029  60.465  1.00  0.00     0.059 A 
HETATM    4  C   UNL     1       6.275  32.208  61.558  1.00  0.00     0.055 A 
HETATM    5  N   UNL     1       4.879  32.365  61.338  1.00  0.00    -0.290 N 
HETATM    6  C   UNL     1       4.315  32.254  60.074  1.00  0.00     0.332 C 
HETATM    7  O   UNL     1       3.090  32.200  59.940  1.00  0.00    -0.246 OA
HETATM    8  N   UNL     1       5.182  32.154  58.999  1.00  0.00    -0.261 N 
HETATM    9  C   UNL     1       6.559  32.021  59.107  1.00  0.00     0.264 C 
HETATM   10  O   UNL     1       7.312  31.885  58.146  1.00  0.00    -0.267 OA
HETATM   11  C   UNL     1       6.845  32.210  62.841  1.00  0.00     0.031 A 
HETATM   12  C   UNL     1       8.225  32.046  63.014  1.00  0.00     0.002 A 
ENDROOT
BRANCH   8  13
HETATM   13  C   UNL     1       4.608  32.154  57.659  1.00  0.00     0.175 C 
BRANCH  13  14
HETATM   14  C   UNL     1       4.885  30.860  56.920  1.00  0.00    -0.040 A 
HETATM   15  C   UNL     1       4.941  29.639  57.607  1.00  0.00     0.010 A 
HETATM   16  C   UNL     1       5.198  28.439  56.928  1.00  0.00     0.017 A 
HETATM   17  C   UNL     1       5.401  28.442  55.544  1.00  0.00     0.032 A 
HETATM   18  C   UNL     1       5.346  29.665  54.857  1.00  0.00     0.017 A 
HETATM   19  C   UNL     1       5.096  30.861  55.537  1.00  0.00     0.010 A 
BRANCH  17  20
HETATM   20  C   UNL     1       5.680  27.210  54.740  1.00  0.00     0.251 C 
HETATM   21  N   UNL     1       6.983  26.766  54.664  1.00  0.00    -0.353 N 
HETATM   22  H   UNL     1       7.716  27.182  55.215  1.00  0.00     0.163 HD
HETATM   23  O   UNL     1       4.759  26.641  54.163  1.00  0.00    -0.268 OA
BRANCH  21  24
HETATM   24  C   UNL     1       7.322  25.578  53.908  1.00  0.00     0.161 C 
BRANCH  24  25
HETATM   25  C   UNL     1       7.598  24.385  54.794  1.00  0.00    -0.038 A 
HETATM   26  C   UNL     1       7.547  23.091  54.247  1.00  0.00     0.048 A 
HETATM   27  C   UNL     1       7.880  22.024  55.056  1.00  0.00     0.105 A 
HETATM   28  C   UNL     1       8.255  22.197  56.367  1.00  0.00     0.105 A 
HETATM   29  O   UNL     1       7.899  20.717  54.680  1.00  0.00    -0.323 OA
HETATM   30  O   UNL     1       8.552  21.021  56.982  1.00  0.00    -0.323 OA
HETATM   31  C   UNL     1       8.323  23.446  56.941  1.00  0.00     0.040 A 
HETATM   32  C   UNL     1       8.359  20.092  55.896  1.00  0.00     0.352 A 
HETATM   33  C   UNL     1       8.005  24.549  56.140  1.00  0.00     0.012 A 
ENDBRANCH  24  25
ENDBRANCH  21  24
ENDBRANCH  17  20
ENDBRANCH  13  14
ENDBRANCH   8  13
BRANCH   5  34
HETATM   34  C   UNL     1       3.986  32.689  62.459  1.00  0.00     0.237 C 
BRANCH  34  35
HETATM   35  C   UNL     1       3.797  34.185  62.734  1.00  0.00     0.240 C 
HETATM   36  N   UNL     1       4.758  34.992  62.151  1.00  0.00    -0.326 N 
HETATM   37  H   UNL     1       5.452  34.518  61.585  1.00  0.00     0.169 HD
HETATM   38  O   UNL     1       2.914  34.556  63.505  1.00  0.00    -0.271 OA
BRANCH  36  39
HETATM   39  C   UNL     1       4.914  36.386  62.292  1.00  0.00     0.036 A 
HETATM   40  C   UNL     1       4.187  37.335  61.570  1.00  0.00     0.053 A 
HETATM   41  C   UNL     1       4.394  38.698  61.797  1.00  0.00     0.036 A 
HETATM   42 CL   UNL     1       3.474  39.860  60.920  1.00  0.00    -0.084 Cl
HETATM   43  C   UNL     1       5.332  39.131  62.731  1.00  0.00     0.024 A 
HETATM   44  C   UNL     1       6.068  38.193  63.449  1.00  0.00     0.004 A 
HETATM   45  C   UNL     1       5.856  36.828  63.234  1.00  0.00     0.029 A 
ENDBRANCH  36  39
ENDBRANCH  34  35
ENDBRANCH   5  34
TORSDOF 8
ENDMDL
MODEL 6
REMARK VINA RESULT:     -10.5      4.714     12.214
REMARK  8 active torsions:
REMARK  status: ('A' for Active; 'I' for Inactive)
REMARK    1  A    between atoms: N_5  and  C_6 
REMARK    2  A    between atoms: C_6  and  C_7 
REMARK       I    between atoms: C_7  and  N_8 
REMARK    3  A    between atoms: N_8  and  C_9 
REMARK    4  A    between atoms: N_19  and  C_20 
REMARK    5  A    between atoms: C_20  and  C_21 
REMARK    6  A    between atoms: C_24  and  C_25 
REMARK       I    between atoms: C_25  and  N_26 
REMARK    7  A    between atoms: N_26  and  C_27 
REMARK    8  A    between atoms: C_27  and  C_28 
ROOT
HETATM    1  C   UNL     1       4.793  37.966  57.543  1.00  0.00     0.001 A 
HETATM    2  C   UNL     1       4.638  36.810  56.785  1.00  0.00     0.019 A 
HETATM    3  C   UNL     1       4.105  35.651  57.372  1.00  0.00     0.059 A 
HETATM    4  C   UNL     1       3.718  35.631  58.710  1.00  0.00     0.055 A 
HETATM    5  N   UNL     1       3.186  34.434  59.263  1.00  0.00    -0.290 N 
HETATM    6  C   UNL     1       3.125  33.252  58.538  1.00  0.00     0.332 C 
HETATM    7  O   UNL     1       2.845  32.189  59.099  1.00  0.00    -0.246 OA
HETATM    8  N   UNL     1       3.442  33.315  57.192  1.00  0.00    -0.261 N 
HETATM    9  C   UNL     1       3.944  34.440  56.553  1.00  0.00     0.264 C 
HETATM   10  O   UNL     1       4.267  34.470  55.368  1.00  0.00    -0.267 OA
HETATM   11  C   UNL     1       3.886  36.804  59.464  1.00  0.00     0.031 A 
HETATM   12  C   UNL     1       4.419  37.961  58.882  1.00  0.00     0.002 A 
ENDROOT
BRANCH   8  13
HETATM   13  C   UNL     1       3.270  32.107  56.393  1.00  0.00     0.175 C 
BRANCH  13  14
HETATM   14  C   UNL     1       4.316  31.058  56.714  1.00  0.00    -0.040 A 
HETATM   15  C   UNL     1       4.019  29.692  56.611  1.00  0.00     0.010 A 
HETATM   16  C   UNL     1       4.984  28.719  56.907  1.00  0.00     0.017 A 
HETATM   17  C   UNL     1       6.268  29.099  57.311  1.00  0.00     0.032 A 
HETATM   18  C   UNL     1       6.564  30.467  57.416  1.00  0.00     0.017 A 
HETATM   19  C   UNL     1       5.599  31.436  57.127  1.00  0.00     0.010 A 
BRANCH  17  20
HETATM   20  C   UNL     1       7.358  28.128  57.646  1.00  0.00     0.251 C 
HETATM   21  N   UNL     1       7.255  26.843  57.157  1.00  0.00    -0.353 N 
HETATM   22  H   UNL     1       6.535  26.582  56.503  1.00  0.00     0.163 HD
HETATM   23  O   UNL     1       8.295  28.488  58.351  1.00  0.00    -0.268 OA
BRANCH  21  24
HETATM   24  C   UNL     1       8.276  25.856  57.439  1.00  0.00     0.161 C 
BRANCH  24  25
HETATM   25  C   UNL     1       8.165  24.636  56.552  1.00  0.00    -0.038 A 
HETATM   26  C   UNL     1       8.471  23.369  57.078  1.00  0.00     0.048 A 
HETATM   27  C   UNL     1       8.286  22.263  56.273  1.00  0.00     0.105 A 
HETATM   28  C   UNL     1       7.818  22.373  54.986  1.00  0.00     0.105 A 
HETATM   29  O   UNL     1       8.516  20.972  56.632  1.00  0.00    -0.323 OA
HETATM   30  O   UNL     1       7.698  21.166  54.371  1.00  0.00    -0.323 OA
HETATM   31  C   UNL     1       7.502  23.593  54.433  1.00  0.00     0.040 A 
HETATM   32  C   UNL     1       8.109  20.280  55.433  1.00  0.00     0.352 A 
HETATM   33  C   UNL     1       7.664  24.731  55.231  1.00  0.00     0.012 A 
ENDBRANCH  24  25
ENDBRANCH  21  24
ENDBRANCH  17  20
ENDBRANCH  13  14
ENDBRANCH   8  13
BRANCH   5  34
HETATM   34  C   UNL     1       2.647  34.426  60.631  1.00  0.00     0.237 C 
BRANCH  34  35
HETATM   35  C   UNL     1       3.580  33.842  61.698  1.00  0.00     0.240 C 
HETATM   36  N   UNL     1       4.925  34.023  61.433  1.00  0.00    -0.326 N 
HETATM   37  H   UNL     1       5.146  34.545  60.592  1.00  0.00     0.169 HD
HETATM   38  O   UNL     1       3.108  33.186  62.625  1.00  0.00    -0.271 OA
BRANCH  36  39
HETATM   39  C   UNL     1       6.023  33.526  62.165  1.00  0.00     0.036 A 
HETATM   40  C   UNL     1       6.990  32.666  61.641  1.00  0.00     0.053 A 
HETATM   41  C   UNL     1       8.059  32.245  62.438  1.00  0.00     0.036 A 
HETATM   42 CL   UNL     1       9.261  31.204  61.776  1.00  0.00    -0.084 Cl
HETATM   43  C   UNL     1       8.169  32.663  63.762  1.00  0.00     0.024 A 
HETATM   44  C   UNL     1       7.205  33.514  64.295  1.00  0.00     0.004 A 
HETATM   45  C   UNL     1       6.141  33.946  63.498  1.00  0.00     0.029 A 
ENDBRANCH  36  39
ENDBRANCH  34  35
ENDBRANCH   5  34
TORSDOF 8
ENDMDL
MODEL 7
REMARK VINA RESULT:     -10.4      2.027      2.773
REMARK  8 active torsions:
REMARK  status: ('A' for Active; 'I' for Inactive)
REMARK    1  A    between atoms: N_5  and  C_6 
REMARK    2  A    between atoms: C_6  and  C_7 
REMARK       I    between atoms: C_7  and  N_8 
REMARK    3  A    between atoms: N_8  and  C_9 
REMARK    4  A    between atoms: N_19  and  C_20 
REMARK    5  A    between atoms: C_20  and  C_21 
REMARK    6  A    between atoms: C_24  and  C_25 
REMARK       I    between atoms: C_25  and  N_26 
REMARK    7  A    between atoms: N_26  and  C_27 
REMARK    8  A    between atoms: C_27  and  C_28 
ROOT
HETATM    1  C   UNL     1       8.156  22.687  57.125  1.00  0.00     0.001 A 
HETATM    2  C   UNL     1       8.308  24.067  57.208  1.00  0.00     0.019 A 
HETATM    3  C   UNL     1       8.052  24.870  56.084  1.00  0.00     0.059 A 
HETATM    4  C   UNL     1       7.638  24.312  54.876  1.00  0.00     0.055 A 
HETATM    5  N   UNL     1       7.393  25.164  53.764  1.00  0.00    -0.290 N 
HETATM    6  C   UNL     1       7.642  26.529  53.813  1.00  0.00     0.332 C 
HETATM    7  O   UNL     1       7.608  27.206  52.783  1.00  0.00    -0.246 OA
HETATM    8  N   UNL     1       7.978  27.069  55.042  1.00  0.00    -0.261 N 
HETATM    9  C   UNL     1       8.214  26.328  56.191  1.00  0.00     0.264 C 
HETATM   10  O   UNL     1       8.557  26.816  57.265  1.00  0.00    -0.267 OA
HETATM   11  C   UNL     1       7.494  22.917  54.808  1.00  0.00     0.031 A 
HETATM   12  C   UNL     1       7.751  22.113  55.926  1.00  0.00     0.002 A 
ENDROOT
BRANCH   8  13
HETATM   13  C   UNL     1       8.127  28.517  55.132  1.00  0.00     0.175 C 
BRANCH  13  14
HETATM   14  C   UNL     1       7.058  29.147  56.004  1.00  0.00    -0.040 A 
HETATM   15  C   UNL     1       7.405  29.919  57.121  1.00  0.00     0.010 A 
HETATM   16  C   UNL     1       6.420  30.503  57.931  1.00  0.00     0.017 A 
HETATM   17  C   UNL     1       5.065  30.324  57.632  1.00  0.00     0.032 A 
HETATM   18  C   UNL     1       4.718  29.549  56.514  1.00  0.00     0.017 A 
HETATM   19  C   UNL     1       5.702  28.962  55.713  1.00  0.00     0.010 A 
BRANCH  17  20
HETATM   20  C   UNL     1       3.949  30.909  58.440  1.00  0.00     0.251 C 
HETATM   21  N   UNL     1       4.268  31.551  59.618  1.00  0.00    -0.353 N 
HETATM   22  H   UNL     1       5.224  31.725  59.883  1.00  0.00     0.163 HD
HETATM   23  O   UNL     1       2.792  30.792  58.050  1.00  0.00    -0.268 OA
BRANCH  21  24
HETATM   24  C   UNL     1       3.238  32.144  60.445  1.00  0.00     0.161 C 
BRANCH  24  25
HETATM   25  C   UNL     1       3.776  32.661  61.760  1.00  0.00    -0.038 A 
HETATM   26  C   UNL     1       5.082  32.321  62.155  1.00  0.00     0.048 A 
HETATM   27  C   UNL     1       5.578  32.869  63.321  1.00  0.00     0.105 A 
HETATM   28  C   UNL     1       4.832  33.726  64.094  1.00  0.00     0.105 A 
HETATM   29  O   UNL     1       6.820  32.658  63.831  1.00  0.00    -0.323 OA
HETATM   30  O   UNL     1       5.509  34.159  65.191  1.00  0.00    -0.323 OA
HETATM   31  C   UNL     1       3.552  34.089  63.743  1.00  0.00     0.040 A 
HETATM   32  C   UNL     1       6.781  33.506  64.998  1.00  0.00     0.352 A 
HETATM   33  C   UNL     1       3.028  33.561  62.557  1.00  0.00     0.012 A 
ENDBRANCH  24  25
ENDBRANCH  21  24
ENDBRANCH  17  20
ENDBRANCH  13  14
ENDBRANCH   8  13
BRANCH   5  34
HETATM   34  C   UNL     1       6.828  24.616  52.522  1.00  0.00     0.237 C 
BRANCH  34  35
HETATM   35  C   UNL     1       5.541  25.292  52.035  1.00  0.00     0.240 C 
HETATM   36  N   UNL     1       5.675  25.959  50.831  1.00  0.00    -0.326 N 
HETATM   37  H   UNL     1       6.585  25.901  50.389  1.00  0.00     0.169 HD
HETATM   38  O   UNL     1       4.545  25.295  52.756  1.00  0.00    -0.271 OA
BRANCH  36  39
HETATM   39  C   UNL     1       4.711  26.750  50.171  1.00  0.00     0.036 A 
HETATM   40  C   UNL     1       4.022  26.352  49.024  1.00  0.00     0.053 A 
HETATM   41  C   UNL     1       3.064  27.196  48.454  1.00  0.00     0.036 A 
HETATM   42 CL   UNL     1       2.200  26.687  47.054  1.00  0.00    -0.084 Cl
HETATM   43  C   UNL     1       2.793  28.444  49.009  1.00  0.00     0.024 A 
HETATM   44  C   UNL     1       3.481  28.852  50.148  1.00  0.00     0.004 A 
HETATM   45  C   UNL     1       4.432  28.006  50.728  1.00  0.00     0.029 A 
ENDBRANCH  36  39
ENDBRANCH  34  35
ENDBRANCH   5  34
TORSDOF 8
ENDMDL
MODEL 8
REMARK VINA RESULT:     -10.3      3.522      6.261
REMARK  8 active torsions:
REMARK  status: ('A' for Active; 'I' for Inactive)
REMARK    1  A    between atoms: N_5  and  C_6 
REMARK    2  A    between atoms: C_6  and  C_7 
REMARK       I    between atoms: C_7  and  N_8 
REMARK    3  A    between atoms: N_8  and  C_9 
REMARK    4  A    between atoms: N_19  and  C_20 
REMARK    5  A    between atoms: C_20  and  C_21 
REMARK    6  A    between atoms: C_24  and  C_25 
REMARK       I    between atoms: C_25  and  N_26 
REMARK    7  A    between atoms: N_26  and  C_27 
REMARK    8  A    between atoms: C_27  and  C_28 
ROOT
HETATM    1  C   UNL     1       7.944  24.475  52.468  1.00  0.00     0.001 A 
HETATM    2  C   UNL     1       7.105  25.535  52.140  1.00  0.00     0.019 A 
HETATM    3  C   UNL     1       6.355  26.172  53.142  1.00  0.00     0.059 A 
HETATM    4  C   UNL     1       6.436  25.767  54.474  1.00  0.00     0.055 A 
HETATM    5  N   UNL     1       5.656  26.440  55.454  1.00  0.00    -0.290 N 
HETATM    6  C   UNL     1       4.741  27.428  55.117  1.00  0.00     0.332 C 
HETATM    7  O   UNL     1       3.943  27.853  55.956  1.00  0.00    -0.246 OA
HETATM    8  N   UNL     1       4.734  27.865  53.803  1.00  0.00    -0.261 N 
HETATM    9  C   UNL     1       5.476  27.293  52.779  1.00  0.00     0.264 C 
HETATM   10  O   UNL     1       5.424  27.660  51.607  1.00  0.00    -0.267 OA
HETATM   11  C   UNL     1       7.284  24.693  54.787  1.00  0.00     0.031 A 
HETATM   12  C   UNL     1       8.032  24.054  53.789  1.00  0.00     0.002 A 
ENDROOT
BRANCH   8  13
HETATM   13  C   UNL     1       3.863  28.982  53.461  1.00  0.00     0.175 C 
BRANCH  13  14
HETATM   14  C   UNL     1       4.066  30.167  54.385  1.00  0.00    -0.040 A 
HETATM   15  C   UNL     1       3.043  31.103  54.589  1.00  0.00     0.010 A 
HETATM   16  C   UNL     1       3.227  32.200  55.443  1.00  0.00     0.017 A 
HETATM   17  C   UNL     1       4.444  32.378  56.110  1.00  0.00     0.032 A 
HETATM   18  C   UNL     1       5.469  31.442  55.903  1.00  0.00     0.017 A 
HETATM   19  C   UNL     1       5.285  30.352  55.047  1.00  0.00     0.010 A 
BRANCH  17  20
HETATM   20  C   UNL     1       4.727  33.518  57.037  1.00  0.00     0.251 C 
HETATM   21  N   UNL     1       4.283  33.421  58.339  1.00  0.00    -0.353 N 
HETATM   22  H   UNL     1       3.878  32.572  58.698  1.00  0.00     0.163 HD
HETATM   23  O   UNL     1       5.323  34.505  56.620  1.00  0.00    -0.268 OA
BRANCH  21  24
HETATM   24  C   UNL     1       4.527  34.486  59.290  1.00  0.00     0.161 C 
BRANCH  24  25
HETATM   25  C   UNL     1       4.708  33.974  60.701  1.00  0.00    -0.038 A 
HETATM   26  C   UNL     1       4.304  34.774  61.784  1.00  0.00     0.048 A 
HETATM   27  C   UNL     1       4.407  34.253  63.058  1.00  0.00     0.105 A 
HETATM   28  C   UNL     1       4.891  32.988  63.288  1.00  0.00     0.105 A 
HETATM   29  O   UNL     1       4.045  34.886  64.206  1.00  0.00    -0.323 OA
HETATM   30  O   UNL     1       4.899  32.666  64.608  1.00  0.00    -0.323 OA
HETATM   31  C   UNL     1       5.293  32.170  62.256  1.00  0.00     0.040 A 
HETATM   32  C   UNL     1       4.327  33.860  65.181  1.00  0.00     0.352 A 
HETATM   33  C   UNL     1       5.186  32.666  60.952  1.00  0.00     0.012 A 
ENDBRANCH  24  25
ENDBRANCH  21  24
ENDBRANCH  17  20
ENDBRANCH  13  14
ENDBRANCH   8  13
BRANCH   5  34
HETATM   34  C   UNL     1       5.825  26.122  56.879  1.00  0.00     0.237 C 
BRANCH  34  35
HETATM   35  C   UNL     1       6.943  26.891  57.592  1.00  0.00     0.240 C 
HETATM   36  N   UNL     1       6.917  28.256  57.375  1.00  0.00    -0.326 N 
HETATM   37  H   UNL     1       6.153  28.601  56.805  1.00  0.00     0.169 HD
HETATM   38  O   UNL     1       7.817  26.272  58.196  1.00  0.00    -0.271 OA
BRANCH  36  39
HETATM   39  C   UNL     1       7.854  29.217  57.809  1.00  0.00     0.036 A 
HETATM   40  C   UNL     1       9.204  29.215  57.451  1.00  0.00     0.053 A 
HETATM   41  C   UNL     1      10.052  30.225  57.912  1.00  0.00     0.036 A 
HETATM   42 CL   UNL     1      11.710  30.228  57.445  1.00  0.00    -0.084 Cl
HETATM   43  C   UNL     1       9.573  31.236  58.741  1.00  0.00     0.024 A 
HETATM   44  C   UNL     1       8.231  31.242  59.110  1.00  0.00     0.004 A 
HETATM   45  C   UNL     1       7.376  30.240  58.642  1.00  0.00     0.029 A 
ENDBRANCH  36  39
ENDBRANCH  34  35
ENDBRANCH   5  34
TORSDOF 8
ENDMDL
MODEL 9
REMARK VINA RESULT:     -10.3      4.226     11.966
REMARK  8 active torsions:
REMARK  status: ('A' for Active; 'I' for Inactive)
REMARK    1  A    between atoms: N_5  and  C_6 
REMARK    2  A    between atoms: C_6  and  C_7 
REMARK       I    between atoms: C_7  and  N_8 
REMARK    3  A    between atoms: N_8  and  C_9 
REMARK    4  A    between atoms: N_19  and  C_20 
REMARK    5  A    between atoms: C_20  and  C_21 
REMARK    6  A    between atoms: C_24  and  C_25 
REMARK       I    between atoms: C_25  and  N_26 
REMARK    7  A    between atoms: N_26  and  C_27 
REMARK    8  A    between atoms: C_27  and  C_28 
ROOT
HETATM    1  C   UNL     1       7.409  32.773  63.862  1.00  0.00     0.001 A 
HETATM    2  C   UNL     1       8.204  32.250  62.847  1.00  0.00     0.019 A 
HETATM    3  C   UNL     1       7.681  32.104  61.552  1.00  0.00     0.059 A 
HETATM    4  C   UNL     1       6.373  32.480  61.253  1.00  0.00     0.055 A 
HETATM    5  N   UNL     1       5.885  32.311  59.928  1.00  0.00    -0.290 N 
HETATM    6  C   UNL     1       6.640  31.696  58.938  1.00  0.00     0.332 C 
HETATM    7  O   UNL     1       6.124  31.388  57.861  1.00  0.00    -0.246 OA
HETATM    8  N   UNL     1       7.959  31.402  59.237  1.00  0.00    -0.261 N 
HETATM    9  C   UNL     1       8.536  31.554  60.490  1.00  0.00     0.264 C 
HETATM   10  O   UNL     1       9.696  31.244  60.753  1.00  0.00    -0.267 OA
HETATM   11  C   UNL     1       5.582  33.001  62.291  1.00  0.00     0.031 A 
HETATM   12  C   UNL     1       6.100  33.146  63.584  1.00  0.00     0.002 A 
ENDROOT
BRANCH   8  13
HETATM   13  C   UNL     1       8.796  30.864  58.170  1.00  0.00     0.175 C 
BRANCH  13  14
HETATM   14  C   UNL     1       8.163  29.658  57.505  1.00  0.00    -0.040 A 
HETATM   15  C   UNL     1       7.889  28.494  58.237  1.00  0.00     0.010 A 
HETATM   16  C   UNL     1       7.305  27.376  57.625  1.00  0.00     0.017 A 
HETATM   17  C   UNL     1       6.981  27.406  56.264  1.00  0.00     0.032 A 
HETATM   18  C   UNL     1       7.257  28.570  55.531  1.00  0.00     0.017 A 
HETATM   19  C   UNL     1       7.846  29.682  56.142  1.00  0.00     0.010 A 
BRANCH  17  20
HETATM   20  C   UNL     1       6.356  26.260  55.532  1.00  0.00     0.251 C 
HETATM   21  N   UNL     1       6.984  25.796  54.395  1.00  0.00    -0.353 N 
HETATM   22  H   UNL     1       7.891  26.134  54.117  1.00  0.00     0.163 HD
HETATM   23  O   UNL     1       5.306  25.777  55.944  1.00  0.00    -0.268 OA
BRANCH  21  24
HETATM   24  C   UNL     1       6.436  24.688  53.641  1.00  0.00     0.161 C 
BRANCH  24  25
HETATM   25  C   UNL     1       7.181  23.395  53.885  1.00  0.00    -0.038 A 
HETATM   26  C   UNL     1       7.388  22.954  55.204  1.00  0.00     0.048 A 
HETATM   27  C   UNL     1       8.001  21.733  55.398  1.00  0.00     0.105 A 
HETATM   28  C   UNL     1       8.409  20.950  54.345  1.00  0.00     0.105 A 
HETATM   29  O   UNL     1       8.258  21.156  56.602  1.00  0.00    -0.323 OA
HETATM   30  O   UNL     1       8.979  19.785  54.753  1.00  0.00    -0.323 OA
HETATM   31  C   UNL     1       8.223  21.341  53.038  1.00  0.00     0.040 A 
HETATM   32  C   UNL     1       8.846  19.907  56.184  1.00  0.00     0.352 A 
HETATM   33  C   UNL     1       7.590  22.569  52.810  1.00  0.00     0.012 A 
ENDBRANCH  24  25
ENDBRANCH  21  24
ENDBRANCH  17  20
ENDBRANCH  13  14
ENDBRANCH   8  13
BRANCH   5  34
HETATM   34  C   UNL     1       4.558  32.823  59.557  1.00  0.00     0.237 C 
BRANCH  34  35
HETATM   35  C   UNL     1       4.531  34.275  59.067  1.00  0.00     0.240 C 
HETATM   36  N   UNL     1       3.943  35.159  59.954  1.00  0.00    -0.326 N 
HETATM   37  H   UNL     1       3.629  34.764  60.833  1.00  0.00     0.169 HD
HETATM   38  O   UNL     1       4.915  34.541  57.930  1.00  0.00    -0.271 OA
BRANCH  36  39
HETATM   39  C   UNL     1       3.683  36.532  59.758  1.00  0.00     0.036 A 
HETATM   40  C   UNL     1       4.656  37.531  59.820  1.00  0.00     0.053 A 
HETATM   41  C   UNL     1       4.307  38.864  59.587  1.00  0.00     0.036 A 
HETATM   42 CL   UNL     1       5.519  40.087  59.639  1.00  0.00    -0.084 Cl
HETATM   43  C   UNL     1       2.990  39.218  59.305  1.00  0.00     0.024 A 
HETATM   44  C   UNL     1       2.011  38.229  59.250  1.00  0.00     0.004 A 
HETATM   45  C   UNL     1       2.358  36.893  59.471  1.00  0.00     0.029 A 
ENDBRANCH  36  39
ENDBRANCH  34  35
ENDBRANCH   5  34
TORSDOF 8
ENDMDL
MODEL 10
REMARK VINA RESULT:     -10.3      4.378      9.290
REMARK  8 active torsions:
REMARK  status: ('A' for Active; 'I' for Inactive)
REMARK    1  A    between atoms: N_5  and  C_6 
REMARK    2  A    between atoms: C_6  and  C_7 
REMARK       I    between atoms: C_7  and  N_8 
REMARK    3  A    between atoms: N_8  and  C_9 
REMARK    4  A    between atoms: N_19  and  C_20 
REMARK    5  A    between atoms: C_20  and  C_21 
REMARK    6  A    between atoms: C_24  and  C_25 
REMARK       I    between atoms: C_25  and  N_26 
REMARK    7  A    between atoms: N_26  and  C_27 
REMARK    8  A    between atoms: C_27  and  C_28 
ROOT
HETATM    1  C   UNL     1       7.589  36.597  52.450  1.00  0.00     0.001 A 
HETATM    2  C   UNL     1       6.934  35.959  53.498  1.00  0.00     0.019 A 
HETATM    3  C   UNL     1       6.037  34.912  53.230  1.00  0.00     0.059 A 
HETATM    4  C   UNL     1       5.789  34.487  51.926  1.00  0.00     0.055 A 
HETATM    5  N   UNL     1       4.871  33.424  51.703  1.00  0.00    -0.290 N 
HETATM    6  C   UNL     1       4.139  32.855  52.736  1.00  0.00     0.332 C 
HETATM    7  O   UNL     1       3.214  32.076  52.490  1.00  0.00    -0.246 OA
HETATM    8  N   UNL     1       4.457  33.239  54.027  1.00  0.00    -0.261 N 
HETATM    9  C   UNL     1       5.356  34.246  54.351  1.00  0.00     0.264 C 
HETATM   10  O   UNL     1       5.594  34.610  55.500  1.00  0.00    -0.267 OA
HETATM   11  C   UNL     1       6.456  35.145  50.880  1.00  0.00     0.031 A 
HETATM   12  C   UNL     1       7.349  36.191  51.143  1.00  0.00     0.002 A 
ENDROOT
BRANCH   8  13
HETATM   13  C   UNL     1       3.778  32.563  55.127  1.00  0.00     0.175 C 
BRANCH  13  14
HETATM   14  C   UNL     1       4.561  31.366  55.630  1.00  0.00    -0.040 A 
HETATM   15  C   UNL     1       5.278  31.431  56.833  1.00  0.00     0.010 A 
HETATM   16  C   UNL     1       6.004  30.326  57.301  1.00  0.00     0.017 A 
HETATM   17  C   UNL     1       6.022  29.133  56.571  1.00  0.00     0.032 A 
HETATM   18  C   UNL     1       5.305  29.070  55.366  1.00  0.00     0.017 A 
HETATM   19  C   UNL     1       4.588  30.174  54.897  1.00  0.00     0.010 A 
BRANCH  17  20
HETATM   20  C   UNL     1       6.769  27.907  56.997  1.00  0.00     0.251 C 
HETATM   21  N   UNL     1       6.237  26.678  56.670  1.00  0.00    -0.353 N 
HETATM   22  H   UNL     1       5.432  26.592  56.071  1.00  0.00     0.163 HD
HETATM   23  O   UNL     1       7.812  28.023  57.630  1.00  0.00    -0.268 OA
BRANCH  21  24
HETATM   24  C   UNL     1       6.910  25.452  57.047  1.00  0.00     0.161 C 
BRANCH  24  25
HETATM   25  C   UNL     1       7.163  24.542  55.866  1.00  0.00    -0.038 A 
HETATM   26  C   UNL     1       7.565  23.214  56.090  1.00  0.00     0.048 A 
HETATM   27  C   UNL     1       7.712  22.381  55.000  1.00  0.00     0.105 A 
HETATM   28  C   UNL     1       7.480  22.816  53.717  1.00  0.00     0.105 A 
HETATM   29  O   UNL     1       8.075  21.071  55.044  1.00  0.00    -0.323 OA
HETATM   30  O   UNL     1       7.672  21.838  52.793  1.00  0.00    -0.323 OA
HETATM   31  C   UNL     1       7.081  24.107  53.453  1.00  0.00     0.040 A 
HETATM   32  C   UNL     1       8.014  20.725  53.645  1.00  0.00     0.352 A 
HETATM   33  C   UNL     1       6.908  24.970  54.541  1.00  0.00     0.012 A 
ENDBRANCH  24  25
ENDBRANCH  21  24
ENDBRANCH  17  20
ENDBRANCH  13  14
ENDBRANCH   8  13
BRANCH   5  34
HETATM   34  C   UNL     1       4.695  32.869  50.354  1.00  0.00     0.237 C 
BRANCH  34  35
HETATM   35  C   UNL     1       5.252  31.455  50.150  1.00  0.00     0.240 C 
HETATM   36  N   UNL     1       4.320  30.450  50.333  1.00  0.00    -0.326 N 
HETATM   37  H   UNL     1       3.376  30.752  50.544  1.00  0.00     0.169 HD
HETATM   38  O   UNL     1       6.455  31.298  49.953  1.00  0.00    -0.271 OA
BRANCH  36  39
HETATM   39  C   UNL     1       4.538  29.057  50.310  1.00  0.00     0.036 A 
HETATM   40  C   UNL     1       4.360  28.253  49.181  1.00  0.00     0.053 A 
HETATM   41  C   UNL     1       4.626  26.883  49.248  1.00  0.00     0.036 A 
HETATM   42 CL   UNL     1       4.429  25.904  47.845  1.00  0.00    -0.084 Cl
HETATM   43  C   UNL     1       5.057  26.297  50.436  1.00  0.00     0.024 A 
HETATM   44  C   UNL     1       5.229  27.089  51.568  1.00  0.00     0.004 A 
HETATM   45  C   UNL     1       4.976  28.463  51.502  1.00  0.00     0.029 A 
ENDBRANCH  36  39
ENDBRANCH  34  35
ENDBRANCH   5  34
TORSDOF 8
ENDMDL
