MODEL 1
REMARK VINA RESULT:     -10.2      0.000      0.000
REMARK  7 active torsions:
REMARK  status: ('A' for Active; 'I' for Inactive)
REMARK    1  A    between atoms: C_2  and  O_3 
REMARK    2  A    between atoms: O_3  and  C_4 
REMARK    3  A    between atoms: C_7  and  N_8 
REMARK    4  A    between atoms: C_9  and  C_11 
REMARK    5  A    between atoms: C_9  and  O_10 
REMARK       I    between atoms: C_11  and  N_12 
REMARK    6  A    between atoms: N_12  and  C_13 
REMARK    7  A    between atoms: C_13  and  C_14 
ROOT
HETATM    1  N   UNL     1       5.703  26.635  52.992  1.00  0.00    -0.254 N 
HETATM    2  C   UNL     1       6.044  27.845  53.766  1.00  0.00     0.256 C 
HETATM    3  C   UNL     1       4.986  28.928  53.687  1.00  0.00     0.034 A 
HETATM    4  C   UNL     1       4.105  28.910  52.611  1.00  0.00     0.048 A 
HETATM    5  N   UNL     1       4.187  27.874  51.692  1.00  0.00    -0.308 N 
HETATM    6  C   UNL     1       4.947  26.750  51.833  1.00  0.00     0.330 C 
HETATM    7  O   UNL     1       4.857  25.887  50.959  1.00  0.00    -0.246 OA
HETATM    8  C   UNL     1       4.908  30.004  54.591  1.00  0.00     0.015 A 
HETATM    9  C   UNL     1       3.944  31.004  54.431  1.00  0.00     0.001 A 
HETATM   10  C   UNL     1       3.065  30.958  53.352  1.00  0.00     0.002 A 
HETATM   11  C   UNL     1       3.150  29.913  52.433  1.00  0.00     0.030 A 
HETATM   12  H   UNL     1       3.584  27.869  50.880  1.00  0.00     0.170 HD
ENDROOT
BRANCH   2  13
HETATM   13  C   UNL     1       6.387  27.542  55.287  1.00  0.00     0.279 C 
HETATM   14  N   UNL     1       7.739  27.630  55.582  1.00  0.00    -0.352 N 
HETATM   15  H   UNL     1       8.314  28.133  54.913  1.00  0.00     0.162 HD
HETATM   16  O   UNL     1       5.553  27.220  56.133  1.00  0.00    -0.268 OA
BRANCH  14  17
HETATM   17  C   UNL     1       8.227  27.442  56.923  1.00  0.00     0.161 C 
BRANCH  17  18
HETATM   18  C   UNL     1       8.674  28.751  57.515  1.00  0.00    -0.038 A 
HETATM   19  C   UNL     1       7.924  29.366  58.530  1.00  0.00     0.048 A 
HETATM   20  C   UNL     1       8.373  30.570  59.030  1.00  0.00     0.105 A 
HETATM   21  C   UNL     1       9.515  31.172  58.558  1.00  0.00     0.105 A 
HETATM   22  O   UNL     1       7.774  31.293  60.015  1.00  0.00    -0.323 OA
HETATM   23  O   UNL     1       9.781  32.348  59.188  1.00  0.00    -0.323 OA
HETATM   24  C   UNL     1      10.270  30.608  57.554  1.00  0.00     0.040 A 
HETATM   25  C   UNL     1       8.678  32.413  60.118  1.00  0.00     0.352 A 
HETATM   26  C   UNL     1       9.840  29.386  57.026  1.00  0.00     0.012 A 
ENDBRANCH  17  18
ENDBRANCH  14  17
ENDBRANCH   2  13
BRANCH   2  27
HETATM   27  O   UNL     1       7.212  28.413  53.144  1.00  0.00    -0.359 OA
HETATM   28  H   UNL     1       7.082  29.371  53.228  1.00  0.00     0.213 HD
ENDBRANCH   2  27
BRANCH   1  29
HETATM   29  C   UNL     1       6.492  25.455  53.173  1.00  0.00     0.043 A 
HETATM   30  C   UNL     1       7.618  25.211  52.379  1.00  0.00     0.032 A 
HETATM   31  C   UNL     1       8.388  24.061  52.581  1.00  0.00     0.039 A 
HETATM   32  C   UNL     1       8.036  23.128  53.558  1.00  0.00     0.068 A 
HETATM   33  C   UNL     1       6.897  23.351  54.328  1.00  0.00     0.039 A 
HETATM   34  C   UNL     1       6.127  24.503  54.129  1.00  0.00     0.032 A 
BRANCH  32  35
HETATM   35  O   UNL     1       8.871  22.050  53.652  1.00  0.00    -0.352 OA
BRANCH  35  36
HETATM   36  C   UNL     1       8.258  20.767  53.768  1.00  0.00     0.171 C 
HETATM   37  C   UNL     1       8.482  20.264  55.183  1.00  0.00     0.034 C 
ENDBRANCH  35  36
ENDBRANCH  32  35
ENDBRANCH   1  29
TORSDOF 7
ENDMDL
MODEL 2
REMARK VINA RESULT:      -9.8      3.013      8.060
REMARK  7 active torsions:
REMARK  status: ('A' for Active; 'I' for Inactive)
REMARK    1  A    between atoms: C_2  and  O_3 
REMARK    2  A    between atoms: O_3  and  C_4 
REMARK    3  A    between atoms: C_7  and  N_8 
REMARK    4  A    between atoms: C_9  and  C_11 
REMARK    5  A    between atoms: C_9  and  O_10 
REMARK       I    between atoms: C_11  and  N_12 
REMARK    6  A    between atoms: N_12  and  C_13 
REMARK    7  A    between atoms: C_13  and  C_14 
ROOT
HETATM    1  N   UNL     1       7.253  25.301  55.286  1.00  0.00    -0.254 N 
HETATM    2  C   UNL     1       7.297  24.683  53.946  1.00  0.00     0.256 C 
HETATM    3  C   UNL     1       7.740  23.232  53.968  1.00  0.00     0.034 A 
HETATM    4  C   UNL     1       8.471  22.785  55.062  1.00  0.00     0.048 A 
HETATM    5  N   UNL     1       8.714  23.658  56.113  1.00  0.00    -0.308 N 
HETATM    6  C   UNL     1       8.145  24.888  56.265  1.00  0.00     0.330 C 
HETATM    7  O   UNL     1       8.409  25.516  57.292  1.00  0.00    -0.246 OA
HETATM    8  C   UNL     1       7.532  22.341  52.898  1.00  0.00     0.015 A 
HETATM    9  C   UNL     1       8.015  21.031  52.956  1.00  0.00     0.001 A 
HETATM   10  C   UNL     1       8.735  20.602  54.067  1.00  0.00     0.002 A 
HETATM   11  C   UNL     1       8.973  21.483  55.121  1.00  0.00     0.030 A 
HETATM   12  H   UNL     1       9.282  23.363  56.896  1.00  0.00     0.170 HD
ENDROOT
BRANCH   2  13
HETATM   13  C   UNL     1       5.931  24.813  53.147  1.00  0.00     0.279 C 
HETATM   14  N   UNL     1       6.065  25.422  51.909  1.00  0.00    -0.352 N 
HETATM   15  H   UNL     1       7.004  25.461  51.525  1.00  0.00     0.162 HD
HETATM   16  O   UNL     1       4.838  24.450  53.582  1.00  0.00    -0.268 OA
BRANCH  14  17
HETATM   17  C   UNL     1       4.940  25.574  51.023  1.00  0.00     0.161 C 
BRANCH  17  18
HETATM   18  C   UNL     1       5.018  26.883  50.286  1.00  0.00    -0.038 A 
HETATM   19  C   UNL     1       5.463  28.042  50.940  1.00  0.00     0.048 A 
HETATM   20  C   UNL     1       5.506  29.219  50.221  1.00  0.00     0.105 A 
HETATM   21  C   UNL     1       5.121  29.278  48.903  1.00  0.00     0.105 A 
HETATM   22  O   UNL     1       5.916  30.425  50.697  1.00  0.00    -0.323 OA
HETATM   23  O   UNL     1       5.244  30.529  48.382  1.00  0.00    -0.323 OA
HETATM   24  C   UNL     1       4.664  28.167  48.230  1.00  0.00     0.040 A 
HETATM   25  C   UNL     1       5.758  31.248  49.523  1.00  0.00     0.352 A 
HETATM   26  C   UNL     1       4.610  26.959  48.933  1.00  0.00     0.012 A 
ENDBRANCH  17  18
ENDBRANCH  14  17
ENDBRANCH   2  13
BRANCH   2  27
HETATM   27  O   UNL     1       8.320  25.377  53.208  1.00  0.00    -0.359 OA
HETATM   28  H   UNL     1       9.083  24.779  53.242  1.00  0.00     0.213 HD
ENDBRANCH   2  27
BRANCH   1  29
HETATM   29  C   UNL     1       6.627  26.580  55.433  1.00  0.00     0.043 A 
HETATM   30  C   UNL     1       7.244  27.745  54.966  1.00  0.00     0.032 A 
HETATM   31  C   UNL     1       6.612  28.984  55.102  1.00  0.00     0.039 A 
HETATM   32  C   UNL     1       5.367  29.085  55.728  1.00  0.00     0.068 A 
HETATM   33  C   UNL     1       4.764  27.932  56.226  1.00  0.00     0.039 A 
HETATM   34  C   UNL     1       5.395  26.691  56.086  1.00  0.00     0.032 A 
BRANCH  32  35
HETATM   35  O   UNL     1       4.859  30.352  55.799  1.00  0.00    -0.352 OA
BRANCH  35  36
HETATM   36  C   UNL     1       3.523  30.539  55.335  1.00  0.00     0.171 C 
HETATM   37  C   UNL     1       3.536  30.472  53.818  1.00  0.00     0.034 C 
ENDBRANCH  35  36
ENDBRANCH  32  35
ENDBRANCH   1  29
TORSDOF 7
ENDMDL
MODEL 3
REMARK VINA RESULT:      -9.3      2.743      6.709
REMARK  7 active torsions:
REMARK  status: ('A' for Active; 'I' for Inactive)
REMARK    1  A    between atoms: C_2  and  O_3 
REMARK    2  A    between atoms: O_3  and  C_4 
REMARK    3  A    between atoms: C_7  and  N_8 
REMARK    4  A    between atoms: C_9  and  C_11 
REMARK    5  A    between atoms: C_9  and  O_10 
REMARK       I    between atoms: C_11  and  N_12 
REMARK    6  A    between atoms: N_12  and  C_13 
REMARK    7  A    between atoms: C_13  and  C_14 
ROOT
HETATM    1  N   UNL     1       6.967  26.304  55.686  1.00  0.00    -0.254 N 
HETATM    2  C   UNL     1       5.601  26.539  55.179  1.00  0.00     0.256 C 
HETATM    3  C   UNL     1       5.217  28.006  55.142  1.00  0.00     0.034 A 
HETATM    4  C   UNL     1       5.910  28.888  55.963  1.00  0.00     0.048 A 
HETATM    5  N   UNL     1       6.959  28.407  56.734  1.00  0.00    -0.308 N 
HETATM    6  C   UNL     1       7.506  27.162  56.634  1.00  0.00     0.330 C 
HETATM    7  O   UNL     1       8.483  26.909  57.342  1.00  0.00    -0.246 OA
HETATM    8  C   UNL     1       4.136  28.507  54.393  1.00  0.00     0.015 A 
HETATM    9  C   UNL     1       3.797  29.861  54.445  1.00  0.00     0.001 A 
HETATM   10  C   UNL     1       4.513  30.728  55.267  1.00  0.00     0.002 A 
HETATM   11  C   UNL     1       5.567  30.240  56.036  1.00  0.00     0.030 A 
HETATM   12  H   UNL     1       7.446  29.025  57.370  1.00  0.00     0.170 HD
ENDROOT
BRANCH   2  13
HETATM   13  C   UNL     1       5.335  25.881  53.759  1.00  0.00     0.279 C 
HETATM   14  N   UNL     1       6.006  26.507  52.719  1.00  0.00    -0.352 N 
HETATM   15  H   UNL     1       6.785  27.104  52.981  1.00  0.00     0.162 HD
HETATM   16  O   UNL     1       4.577  24.930  53.568  1.00  0.00    -0.268 OA
BRANCH  14  17
HETATM   17  C   UNL     1       5.926  26.012  51.370  1.00  0.00     0.161 C 
BRANCH  17  18
HETATM   18  C   UNL     1       5.019  26.878  50.539  1.00  0.00    -0.038 A 
HETATM   19  C   UNL     1       4.474  26.393  49.340  1.00  0.00     0.048 A 
HETATM   20  C   UNL     1       3.656  27.231  48.611  1.00  0.00     0.105 A 
HETATM   21  C   UNL     1       3.376  28.512  49.024  1.00  0.00     0.105 A 
HETATM   22  O   UNL     1       3.044  26.919  47.437  1.00  0.00    -0.323 OA
HETATM   23  O   UNL     1       2.550  29.166  48.165  1.00  0.00    -0.323 OA
HETATM   24  C   UNL     1       3.903  29.030  50.187  1.00  0.00     0.040 A 
HETATM   25  C   UNL     1       2.335  28.146  47.166  1.00  0.00     0.352 A 
HETATM   26  C   UNL     1       4.735  28.203  50.948  1.00  0.00     0.012 A 
ENDBRANCH  17  18
ENDBRANCH  14  17
ENDBRANCH   2  13
BRANCH   2  27
HETATM   27  O   UNL     1       4.702  25.939  56.130  1.00  0.00    -0.359 OA
HETATM   28  H   UNL     1       4.976  26.313  56.983  1.00  0.00     0.213 HD
ENDBRANCH   2  27
BRANCH   1  29
HETATM   29  C   UNL     1       7.538  24.999  55.547  1.00  0.00     0.043 A 
HETATM   30  C   UNL     1       8.084  24.575  54.331  1.00  0.00     0.032 A 
HETATM   31  C   UNL     1       8.653  23.303  54.218  1.00  0.00     0.039 A 
HETATM   32  C   UNL     1       8.666  22.427  55.305  1.00  0.00     0.068 A 
HETATM   33  C   UNL     1       8.093  22.833  56.509  1.00  0.00     0.039 A 
HETATM   34  C   UNL     1       7.526  24.107  56.624  1.00  0.00     0.032 A 
BRANCH  32  35
HETATM   35  O   UNL     1       9.250  21.215  55.062  1.00  0.00    -0.352 OA
BRANCH  35  36
HETATM   36  C   UNL     1       8.417  20.194  54.515  1.00  0.00     0.171 C 
HETATM   37  C   UNL     1       8.474  20.300  53.001  1.00  0.00     0.034 C 
ENDBRANCH  35  36
ENDBRANCH  32  35
ENDBRANCH   1  29
TORSDOF 7
ENDMDL
MODEL 4
REMARK VINA RESULT:      -9.2      2.707      3.687
REMARK  7 active torsions:
REMARK  status: ('A' for Active; 'I' for Inactive)
REMARK    1  A    between atoms: C_2  and  O_3 
REMARK    2  A    between atoms: O_3  and  C_4 
REMARK    3  A    between atoms: C_7  and  N_8 
REMARK    4  A    between atoms: C_9  and  C_11 
REMARK    5  A    between atoms: C_9  and  O_10 
REMARK       I    between atoms: C_11  and  N_12 
REMARK    6  A    between atoms: N_12  and  C_13 
REMARK    7  A    between atoms: C_13  and  C_14 
ROOT
HETATM    1  N   UNL     1       4.833  27.349  51.215  1.00  0.00    -0.254 N 
HETATM    2  C   UNL     1       4.809  28.676  51.860  1.00  0.00     0.256 C 
HETATM    3  C   UNL     1       3.746  29.600  51.297  1.00  0.00     0.034 A 
HETATM    4  C   UNL     1       3.258  29.340  50.021  1.00  0.00     0.048 A 
HETATM    5  N   UNL     1       3.714  28.220  49.341  1.00  0.00    -0.308 N 
HETATM    6  C   UNL     1       4.479  27.227  49.878  1.00  0.00     0.330 C 
HETATM    7  O   UNL     1       4.744  26.259  49.162  1.00  0.00    -0.246 OA
HETATM    8  C   UNL     1       3.296  30.758  51.957  1.00  0.00     0.015 A 
HETATM    9  C   UNL     1       2.355  31.601  51.360  1.00  0.00     0.001 A 
HETATM   10  C   UNL     1       1.872  31.314  50.086  1.00  0.00     0.002 A 
HETATM   11  C   UNL     1       2.331  30.186  49.409  1.00  0.00     0.030 A 
HETATM   12  H   UNL     1       3.403  28.040  48.395  1.00  0.00     0.170 HD
ENDROOT
BRANCH   2  13
HETATM   13  C   UNL     1       4.673  28.605  53.440  1.00  0.00     0.279 C 
HETATM   14  N   UNL     1       5.814  29.011  54.117  1.00  0.00    -0.352 N 
HETATM   15  H   UNL     1       6.483  29.558  53.584  1.00  0.00     0.162 HD
HETATM   16  O   UNL     1       3.674  28.194  54.031  1.00  0.00    -0.268 OA
BRANCH  14  17
HETATM   17  C   UNL     1       5.852  29.064  55.555  1.00  0.00     0.161 C 
BRANCH  17  18
HETATM   18  C   UNL     1       6.688  27.942  56.107  1.00  0.00    -0.038 A 
HETATM   19  C   UNL     1       6.279  26.608  55.950  1.00  0.00     0.048 A 
HETATM   20  C   UNL     1       7.077  25.617  56.483  1.00  0.00     0.105 A 
HETATM   21  C   UNL     1       8.239  25.905  57.159  1.00  0.00     0.105 A 
HETATM   22  O   UNL     1       6.833  24.280  56.416  1.00  0.00    -0.323 OA
HETATM   23  O   UNL     1       8.874  24.786  57.598  1.00  0.00    -0.323 OA
HETATM   24  C   UNL     1       8.666  27.200  57.346  1.00  0.00     0.040 A 
HETATM   25  C   UNL     1       7.983  23.759  57.115  1.00  0.00     0.352 A 
HETATM   26  C   UNL     1       7.878  28.227  56.816  1.00  0.00     0.012 A 
ENDBRANCH  17  18
ENDBRANCH  14  17
ENDBRANCH   2  13
BRANCH   2  27
HETATM   27  O   UNL     1       6.064  29.309  51.543  1.00  0.00    -0.359 OA
HETATM   28  H   UNL     1       6.214  29.081  50.612  1.00  0.00     0.213 HD
ENDBRANCH   2  27
BRANCH   1  29
HETATM   29  C   UNL     1       5.618  26.309  51.807  1.00  0.00     0.043 A 
HETATM   30  C   UNL     1       7.016  26.357  51.784  1.00  0.00     0.032 A 
HETATM   31  C   UNL     1       7.768  25.341  52.382  1.00  0.00     0.039 A 
HETATM   32  C   UNL     1       7.140  24.252  52.990  1.00  0.00     0.068 A 
HETATM   33  C   UNL     1       5.749  24.183  52.985  1.00  0.00     0.039 A 
HETATM   34  C   UNL     1       4.995  25.201  52.390  1.00  0.00     0.032 A 
BRANCH  32  35
HETATM   35  O   UNL     1       7.989  23.329  53.535  1.00  0.00    -0.352 OA
BRANCH  35  36
HETATM   36  C   UNL     1       7.821  21.974  53.123  1.00  0.00     0.171 C 
HETATM   37  C   UNL     1       7.986  21.086  54.343  1.00  0.00     0.034 C 
ENDBRANCH  35  36
ENDBRANCH  32  35
ENDBRANCH   1  29
TORSDOF 7
ENDMDL
MODEL 5
REMARK VINA RESULT:      -9.2      2.496      6.288
REMARK  7 active torsions:
REMARK  status: ('A' for Active; 'I' for Inactive)
REMARK    1  A    between atoms: C_2  and  O_3 
REMARK    2  A    between atoms: O_3  and  C_4 
REMARK    3  A    between atoms: C_7  and  N_8 
REMARK    4  A    between atoms: C_9  and  C_11 
REMARK    5  A    between atoms: C_9  and  O_10 
REMARK       I    between atoms: C_11  and  N_12 
REMARK    6  A    between atoms: N_12  and  C_13 
REMARK    7  A    between atoms: C_13  and  C_14 
ROOT
HETATM    1  N   UNL     1       4.382  29.383  54.039  1.00  0.00    -0.254 N 
HETATM    2  C   UNL     1       4.122  28.617  52.804  1.00  0.00     0.256 C 
HETATM    3  C   UNL     1       3.517  29.455  51.693  1.00  0.00     0.034 A 
HETATM    4  C   UNL     1       2.860  30.630  52.039  1.00  0.00     0.048 A 
HETATM    5  N   UNL     1       2.836  31.021  53.371  1.00  0.00    -0.308 N 
HETATM    6  C   UNL     1       3.557  30.447  54.375  1.00  0.00     0.330 C 
HETATM    7  O   UNL     1       3.481  30.955  55.495  1.00  0.00    -0.246 OA
HETATM    8  C   UNL     1       3.502  29.059  50.343  1.00  0.00     0.015 A 
HETATM    9  C   UNL     1       2.878  29.848  49.373  1.00  0.00     0.001 A 
HETATM   10  C   UNL     1       2.236  31.028  49.742  1.00  0.00     0.002 A 
HETATM   11  C   UNL     1       2.218  31.417  51.080  1.00  0.00     0.030 A 
HETATM   12  H   UNL     1       2.324  31.849  53.646  1.00  0.00     0.170 HD
ENDROOT
BRANCH   2  13
HETATM   13  C   UNL     1       5.399  27.849  52.258  1.00  0.00     0.279 C 
HETATM   14  N   UNL     1       5.281  26.468  52.303  1.00  0.00    -0.352 N 
HETATM   15  H   UNL     1       4.340  26.099  52.399  1.00  0.00     0.162 HD
HETATM   16  O   UNL     1       6.425  28.404  51.865  1.00  0.00    -0.268 OA
BRANCH  14  17
HETATM   17  C   UNL     1       6.321  25.610  51.798  1.00  0.00     0.161 C 
BRANCH  17  18
HETATM   18  C   UNL     1       6.794  24.662  52.867  1.00  0.00    -0.038 A 
HETATM   19  C   UNL     1       7.831  23.753  52.603  1.00  0.00     0.048 A 
HETATM   20  C   UNL     1       8.219  22.899  53.614  1.00  0.00     0.105 A 
HETATM   21  C   UNL     1       7.617  22.915  54.849  1.00  0.00     0.105 A 
HETATM   22  O   UNL     1       9.207  21.968  53.529  1.00  0.00    -0.323 OA
HETATM   23  O   UNL     1       8.152  21.998  55.699  1.00  0.00    -0.323 OA
HETATM   24  C   UNL     1       6.587  23.781  55.143  1.00  0.00     0.040 A 
HETATM   25  C   UNL     1       9.166  21.408  54.859  1.00  0.00     0.352 A 
HETATM   26  C   UNL     1       6.171  24.660  54.137  1.00  0.00     0.012 A 
ENDBRANCH  17  18
ENDBRANCH  14  17
ENDBRANCH   2  13
BRANCH   2  27
HETATM   27  O   UNL     1       3.113  27.642  53.131  1.00  0.00    -0.359 OA
HETATM   28  H   UNL     1       2.822  27.893  54.022  1.00  0.00     0.213 HD
ENDBRANCH   2  27
BRANCH   1  29
HETATM   29  C   UNL     1       5.165  28.777  55.072  1.00  0.00     0.043 A 
HETATM   30  C   UNL     1       6.478  29.192  55.320  1.00  0.00     0.032 A 
HETATM   31  C   UNL     1       7.224  28.602  56.345  1.00  0.00     0.039 A 
HETATM   32  C   UNL     1       6.683  27.574  57.120  1.00  0.00     0.068 A 
HETATM   33  C   UNL     1       5.388  27.135  56.855  1.00  0.00     0.039 A 
HETATM   34  C   UNL     1       4.640  27.727  55.831  1.00  0.00     0.032 A 
BRANCH  32  35
HETATM   35  O   UNL     1       7.516  27.083  58.086  1.00  0.00    -0.352 OA
BRANCH  35  36
HETATM   36  C   UNL     1       7.714  25.670  58.112  1.00  0.00     0.171 C 
HETATM   37  C   UNL     1       8.902  25.344  57.225  1.00  0.00     0.034 C 
ENDBRANCH  35  36
ENDBRANCH  32  35
ENDBRANCH   1  29
TORSDOF 7
ENDMDL
MODEL 6
REMARK VINA RESULT:      -9.2      2.439      8.561
REMARK  7 active torsions:
REMARK  status: ('A' for Active; 'I' for Inactive)
REMARK    1  A    between atoms: C_2  and  O_3 
REMARK    2  A    between atoms: O_3  and  C_4 
REMARK    3  A    between atoms: C_7  and  N_8 
REMARK    4  A    between atoms: C_9  and  C_11 
REMARK    5  A    between atoms: C_9  and  O_10 
REMARK       I    between atoms: C_11  and  N_12 
REMARK    6  A    between atoms: N_12  and  C_13 
REMARK    7  A    between atoms: C_13  and  C_14 
ROOT
HETATM    1  N   UNL     1       6.929  27.223  56.139  1.00  0.00    -0.254 N 
HETATM    2  C   UNL     1       7.026  27.134  54.668  1.00  0.00     0.256 C 
HETATM    3  C   UNL     1       7.309  25.729  54.169  1.00  0.00     0.034 A 
HETATM    4  C   UNL     1       7.890  24.824  55.049  1.00  0.00     0.048 A 
HETATM    5  N   UNL     1       8.130  25.216  56.358  1.00  0.00    -0.308 N 
HETATM    6  C   UNL     1       7.683  26.370  56.931  1.00  0.00     0.330 C 
HETATM    7  O   UNL     1       7.921  26.541  58.129  1.00  0.00    -0.246 OA
HETATM    8  C   UNL     1       7.104  25.323  52.837  1.00  0.00     0.015 A 
HETATM    9  C   UNL     1       7.439  24.031  52.425  1.00  0.00     0.001 A 
HETATM   10  C   UNL     1       8.009  23.137  53.327  1.00  0.00     0.002 A 
HETATM   11  C   UNL     1       8.245  23.535  54.642  1.00  0.00     0.030 A 
HETATM   12  H   UNL     1       8.592  24.584  57.000  1.00  0.00     0.170 HD
ENDROOT
BRANCH   2  13
HETATM   13  C   UNL     1       5.757  27.722  53.917  1.00  0.00     0.279 C 
HETATM   14  N   UNL     1       6.048  28.797  53.090  1.00  0.00    -0.352 N 
HETATM   15  H   UNL     1       7.022  28.915  52.830  1.00  0.00     0.162 HD
HETATM   16  O   UNL     1       4.608  27.306  54.069  1.00  0.00    -0.268 OA
BRANCH  14  17
HETATM   17  C   UNL     1       5.028  29.421  52.288  1.00  0.00     0.161 C 
BRANCH  17  18
HETATM   18  C   UNL     1       4.995  28.822  50.909  1.00  0.00    -0.038 A 
HETATM   19  C   UNL     1       4.276  27.641  50.664  1.00  0.00     0.048 A 
HETATM   20  C   UNL     1       4.287  27.127  49.384  1.00  0.00     0.105 A 
HETATM   21  C   UNL     1       4.982  27.733  48.364  1.00  0.00     0.105 A 
HETATM   22  O   UNL     1       3.641  26.003  48.975  1.00  0.00    -0.323 OA
HETATM   23  O   UNL     1       4.857  27.068  47.184  1.00  0.00    -0.323 OA
HETATM   24  C   UNL     1       5.711  28.884  48.567  1.00  0.00     0.040 A 
HETATM   25  C   UNL     1       3.998  25.977  47.577  1.00  0.00     0.352 A 
HETATM   26  C   UNL     1       5.719  29.429  49.855  1.00  0.00     0.012 A 
ENDBRANCH  17  18
ENDBRANCH  14  17
ENDBRANCH   2  13
BRANCH   2  27
HETATM   27  O   UNL     1       8.178  27.909  54.285  1.00  0.00    -0.359 OA
HETATM   28  H   UNL     1       7.836  28.813  54.199  1.00  0.00     0.213 HD
ENDBRANCH   2  27
BRANCH   1  29
HETATM   29  C   UNL     1       6.431  28.431  56.724  1.00  0.00     0.043 A 
HETATM   30  C   UNL     1       5.076  28.575  57.040  1.00  0.00     0.032 A 
HETATM   31  C   UNL     1       4.609  29.755  57.627  1.00  0.00     0.039 A 
HETATM   32  C   UNL     1       5.479  30.817  57.884  1.00  0.00     0.068 A 
HETATM   33  C   UNL     1       6.822  30.690  57.540  1.00  0.00     0.039 A 
HETATM   34  C   UNL     1       7.291  29.508  56.955  1.00  0.00     0.032 A 
BRANCH  32  35
HETATM   35  O   UNL     1       4.896  31.912  58.458  1.00  0.00    -0.352 OA
BRANCH  35  36
HETATM   36  C   UNL     1       5.714  32.703  59.318  1.00  0.00     0.171 C 
HETATM   37  C   UNL     1       5.103  32.676  60.708  1.00  0.00     0.034 C 
ENDBRANCH  35  36
ENDBRANCH  32  35
ENDBRANCH   1  29
TORSDOF 7
ENDMDL
MODEL 7
REMARK VINA RESULT:      -9.1      2.417      6.231
REMARK  7 active torsions:
REMARK  status: ('A' for Active; 'I' for Inactive)
REMARK    1  A    between atoms: C_2  and  O_3 
REMARK    2  A    between atoms: O_3  and  C_4 
REMARK    3  A    between atoms: C_7  and  N_8 
REMARK    4  A    between atoms: C_9  and  C_11 
REMARK    5  A    between atoms: C_9  and  O_10 
REMARK       I    between atoms: C_11  and  N_12 
REMARK    6  A    between atoms: N_12  and  C_13 
REMARK    7  A    between atoms: C_13  and  C_14 
ROOT
HETATM    1  N   UNL     1       5.780  26.285  53.273  1.00  0.00    -0.254 N 
HETATM    2  C   UNL     1       6.187  25.983  54.659  1.00  0.00     0.256 C 
HETATM    3  C   UNL     1       7.084  24.765  54.771  1.00  0.00     0.034 A 
HETATM    4  C   UNL     1       7.054  23.830  53.743  1.00  0.00     0.048 A 
HETATM    5  N   UNL     1       6.259  24.075  52.633  1.00  0.00    -0.308 N 
HETATM    6  C   UNL     1       5.622  25.250  52.362  1.00  0.00     0.330 C 
HETATM    7  O   UNL     1       5.008  25.334  51.296  1.00  0.00    -0.246 OA
HETATM    8  C   UNL     1       7.872  24.483  55.903  1.00  0.00     0.015 A 
HETATM    9  C   UNL     1       8.634  23.313  55.970  1.00  0.00     0.001 A 
HETATM   10  C   UNL     1       8.597  22.397  54.922  1.00  0.00     0.002 A 
HETATM   11  C   UNL     1       7.798  22.650  53.808  1.00  0.00     0.030 A 
HETATM   12  H   UNL     1       6.191  23.385  51.896  1.00  0.00     0.170 HD
ENDROOT
BRANCH   2  13
HETATM   13  C   UNL     1       6.864  27.214  55.398  1.00  0.00     0.279 C 
HETATM   14  N   UNL     1       6.162  27.651  56.512  1.00  0.00    -0.352 N 
HETATM   15  H   UNL     1       5.483  27.003  56.899  1.00  0.00     0.162 HD
HETATM   16  O   UNL     1       7.893  27.771  55.015  1.00  0.00    -0.268 OA
BRANCH  14  17
HETATM   17  C   UNL     1       6.657  28.723  57.336  1.00  0.00     0.161 C 
BRANCH  17  18
HETATM   18  C   UNL     1       5.685  29.871  57.355  1.00  0.00    -0.038 A 
HETATM   19  C   UNL     1       6.099  31.146  57.774  1.00  0.00     0.048 A 
HETATM   20  C   UNL     1       5.166  32.162  57.782  1.00  0.00     0.105 A 
HETATM   21  C   UNL     1       3.862  31.953  57.400  1.00  0.00     0.105 A 
HETATM   22  O   UNL     1       5.399  33.450  58.150  1.00  0.00    -0.323 OA
HETATM   23  O   UNL     1       3.111  33.084  57.478  1.00  0.00    -0.323 OA
HETATM   24  C   UNL     1       3.414  30.715  56.997  1.00  0.00     0.040 A 
HETATM   25  C   UNL     1       4.095  34.032  57.944  1.00  0.00     0.352 A 
HETATM   26  C   UNL     1       4.337  29.664  56.978  1.00  0.00     0.012 A 
ENDBRANCH  17  18
ENDBRANCH  14  17
ENDBRANCH   2  13
BRANCH   2  27
HETATM   27  O   UNL     1       4.986  25.633  55.372  1.00  0.00    -0.359 OA
HETATM   28  H   UNL     1       4.277  25.773  54.724  1.00  0.00     0.213 HD
ENDBRANCH   2  27
BRANCH   1  29
HETATM   29  C   UNL     1       5.139  27.535  53.000  1.00  0.00     0.043 A 
HETATM   30  C   UNL     1       3.891  27.842  53.553  1.00  0.00     0.032 A 
HETATM   31  C   UNL     1       3.286  29.074  53.290  1.00  0.00     0.039 A 
HETATM   32  C   UNL     1       3.902  30.008  52.453  1.00  0.00     0.068 A 
HETATM   33  C   UNL     1       5.128  29.692  51.873  1.00  0.00     0.039 A 
HETATM   34  C   UNL     1       5.736  28.460  52.139  1.00  0.00     0.032 A 
BRANCH  32  35
HETATM   35  O   UNL     1       3.205  31.171  52.277  1.00  0.00    -0.352 OA
BRANCH  35  36
HETATM   36  C   UNL     1       2.927  31.941  53.446  1.00  0.00     0.171 C 
HETATM   37  C   UNL     1       4.181  32.717  53.808  1.00  0.00     0.034 C 
ENDBRANCH  35  36
ENDBRANCH  32  35
ENDBRANCH   1  29
TORSDOF 7
ENDMDL
MODEL 8
REMARK VINA RESULT:      -8.7      2.326      7.469
REMARK  7 active torsions:
REMARK  status: ('A' for Active; 'I' for Inactive)
REMARK    1  A    between atoms: C_2  and  O_3 
REMARK    2  A    between atoms: O_3  and  C_4 
REMARK    3  A    between atoms: C_7  and  N_8 
REMARK    4  A    between atoms: C_9  and  C_11 
REMARK    5  A    between atoms: C_9  and  O_10 
REMARK       I    between atoms: C_11  and  N_12 
REMARK    6  A    between atoms: N_12  and  C_13 
REMARK    7  A    between atoms: C_13  and  C_14 
ROOT
HETATM    1  N   UNL     1       4.161  29.637  53.501  1.00  0.00    -0.254 N 
HETATM    2  C   UNL     1       4.501  28.237  53.176  1.00  0.00     0.256 C 
HETATM    3  C   UNL     1       4.562  27.965  51.685  1.00  0.00     0.034 A 
HETATM    4  C   UNL     1       3.881  28.825  50.831  1.00  0.00     0.048 A 
HETATM    5  N   UNL     1       3.228  29.927  51.365  1.00  0.00    -0.308 N 
HETATM    6  C   UNL     1       3.334  30.359  52.654  1.00  0.00     0.330 C 
HETATM    7  O   UNL     1       2.745  31.399  52.958  1.00  0.00    -0.246 OA
HETATM    8  C   UNL     1       5.190  26.836  51.128  1.00  0.00     0.015 A 
HETATM    9  C   UNL     1       5.163  26.610  49.749  1.00  0.00     0.001 A 
HETATM   10  C   UNL     1       4.485  27.492  48.912  1.00  0.00     0.002 A 
HETATM   11  C   UNL     1       3.833  28.599  49.454  1.00  0.00     0.030 A 
HETATM   12  H   UNL     1       2.691  30.538  50.764  1.00  0.00     0.170 HD
ENDROOT
BRANCH   2  13
HETATM   13  C   UNL     1       5.840  27.737  53.866  1.00  0.00     0.279 C 
HETATM   14  N   UNL     1       5.661  26.650  54.708  1.00  0.00    -0.352 N 
HETATM   15  H   UNL     1       4.801  26.124  54.588  1.00  0.00     0.162 HD
HETATM   16  O   UNL     1       6.938  28.273  53.714  1.00  0.00    -0.268 OA
BRANCH  14  17
HETATM   17  C   UNL     1       6.776  26.029  55.376  1.00  0.00     0.161 C 
BRANCH  17  18
HETATM   18  C   UNL     1       7.161  24.749  54.686  1.00  0.00    -0.038 A 
HETATM   19  C   UNL     1       7.227  23.545  55.406  1.00  0.00     0.048 A 
HETATM   20  C   UNL     1       7.596  22.402  54.729  1.00  0.00     0.105 A 
HETATM   21  C   UNL     1       7.902  22.419  53.389  1.00  0.00     0.105 A 
HETATM   22  O   UNL     1       7.702  21.159  55.270  1.00  0.00    -0.323 OA
HETATM   23  O   UNL     1       8.236  21.188  52.917  1.00  0.00    -0.323 OA
HETATM   24  C   UNL     1       7.863  23.581  52.651  1.00  0.00     0.040 A 
HETATM   25  C   UNL     1       8.097  20.392  54.113  1.00  0.00     0.352 A 
HETATM   26  C   UNL     1       7.492  24.757  53.311  1.00  0.00     0.012 A 
ENDBRANCH  17  18
ENDBRANCH  14  17
ENDBRANCH   2  13
BRANCH   2  27
HETATM   27  O   UNL     1       3.413  27.428  53.662  1.00  0.00    -0.359 OA
HETATM   28  H   UNL     1       2.636  28.004  53.583  1.00  0.00     0.213 HD
ENDBRANCH   2  27
BRANCH   1  29
HETATM   29  C   UNL     1       4.306  30.083  54.854  1.00  0.00     0.043 A 
HETATM   30  C   UNL     1       5.277  31.028  55.202  1.00  0.00     0.032 A 
HETATM   31  C   UNL     1       5.393  31.467  56.525  1.00  0.00     0.039 A 
HETATM   32  C   UNL     1       4.562  30.953  57.523  1.00  0.00     0.068 A 
HETATM   33  C   UNL     1       3.616  29.987  57.186  1.00  0.00     0.039 A 
HETATM   34  C   UNL     1       3.497  29.551  55.862  1.00  0.00     0.032 A 
BRANCH  32  35
HETATM   35  O   UNL     1       4.780  31.464  58.772  1.00  0.00    -0.352 OA
BRANCH  35  36
HETATM   36  C   UNL     1       5.737  32.516  58.882  1.00  0.00     0.171 C 
HETATM   37  C   UNL     1       6.796  32.087  59.881  1.00  0.00     0.034 C 
ENDBRANCH  35  36
ENDBRANCH  32  35
ENDBRANCH   1  29
TORSDOF 7
ENDMDL
MODEL 9
REMARK VINA RESULT:      -8.7      2.703      6.210
REMARK  7 active torsions:
REMARK  status: ('A' for Active; 'I' for Inactive)
REMARK    1  A    between atoms: C_2  and  O_3 
REMARK    2  A    between atoms: O_3  and  C_4 
REMARK    3  A    between atoms: C_7  and  N_8 
REMARK    4  A    between atoms: C_9  and  C_11 
REMARK    5  A    between atoms: C_9  and  O_10 
REMARK       I    between atoms: C_11  and  N_12 
REMARK    6  A    between atoms: N_12  and  C_13 
REMARK    7  A    between atoms: C_13  and  C_14 
ROOT
HETATM    1  N   UNL     1       4.862  29.838  55.088  1.00  0.00    -0.254 N 
HETATM    2  C   UNL     1       5.047  28.374  55.108  1.00  0.00     0.256 C 
HETATM    3  C   UNL     1       5.362  27.789  53.744  1.00  0.00     0.034 A 
HETATM    4  C   UNL     1       5.001  28.518  52.617  1.00  0.00     0.048 A 
HETATM    5  N   UNL     1       4.427  29.770  52.780  1.00  0.00    -0.308 N 
HETATM    6  C   UNL     1       4.337  30.451  53.958  1.00  0.00     0.330 C 
HETATM    7  O   UNL     1       3.861  31.587  53.927  1.00  0.00    -0.246 OA
HETATM    8  C   UNL     1       5.914  26.508  53.558  1.00  0.00     0.015 A 
HETATM    9  C   UNL     1       6.128  26.002  52.273  1.00  0.00     0.001 A 
HETATM   10  C   UNL     1       5.770  26.755  51.159  1.00  0.00     0.002 A 
HETATM   11  C   UNL     1       5.195  28.014  51.329  1.00  0.00     0.030 A 
HETATM   12  H   UNL     1       4.117  30.295  51.972  1.00  0.00     0.170 HD
ENDROOT
BRANCH   2  13
HETATM   13  C   UNL     1       6.132  27.890  56.161  1.00  0.00     0.279 C 
HETATM   14  N   UNL     1       7.423  28.294  55.856  1.00  0.00    -0.352 N 
HETATM   15  H   UNL     1       7.512  29.057  55.192  1.00  0.00     0.162 HD
HETATM   16  O   UNL     1       5.880  27.189  57.141  1.00  0.00    -0.268 OA
BRANCH  14  17
HETATM   17  C   UNL     1       8.528  27.992  56.729  1.00  0.00     0.161 C 
BRANCH  17  18
HETATM   18  C   UNL     1       8.882  29.189  57.569  1.00  0.00    -0.038 A 
HETATM   19  C   UNL     1       8.120  29.514  58.702  1.00  0.00     0.048 A 
HETATM   20  C   UNL     1       8.481  30.627  59.431  1.00  0.00     0.105 A 
HETATM   21  C   UNL     1       9.550  31.414  59.073  1.00  0.00     0.105 A 
HETATM   22  O   UNL     1       7.859  31.077  60.554  1.00  0.00    -0.323 OA
HETATM   23  O   UNL     1       9.736  32.457  59.927  1.00  0.00    -0.323 OA
HETATM   24  C   UNL     1      10.314  31.138  57.961  1.00  0.00     0.040 A 
HETATM   25  C   UNL     1       8.666  32.230  60.869  1.00  0.00     0.352 A 
HETATM   26  C   UNL     1       9.971  30.015  57.201  1.00  0.00     0.012 A 
ENDBRANCH  17  18
ENDBRANCH  14  17
ENDBRANCH   2  13
BRANCH   2  27
HETATM   27  O   UNL     1       3.775  27.805  55.476  1.00  0.00    -0.359 OA
HETATM   28  H   UNL     1       3.126  28.457  55.167  1.00  0.00     0.213 HD
ENDBRANCH   2  27
BRANCH   1  29
HETATM   29  C   UNL     1       4.799  30.541  56.333  1.00  0.00     0.043 A 
HETATM   30  C   UNL     1       3.758  30.313  57.239  1.00  0.00     0.032 A 
HETATM   31  C   UNL     1       3.720  30.996  58.459  1.00  0.00     0.039 A 
HETATM   32  C   UNL     1       4.704  31.933  58.783  1.00  0.00     0.068 A 
HETATM   33  C   UNL     1       5.724  32.187  57.869  1.00  0.00     0.039 A 
HETATM   34  C   UNL     1       5.764  31.502  56.649  1.00  0.00     0.032 A 
BRANCH  32  35
HETATM   35  O   UNL     1       4.551  32.530  60.003  1.00  0.00    -0.352 OA
BRANCH  35  36
HETATM   36  C   UNL     1       3.294  33.154  60.263  1.00  0.00     0.171 C 
HETATM   37  C   UNL     1       3.407  33.912  61.574  1.00  0.00     0.034 C 
ENDBRANCH  35  36
ENDBRANCH  32  35
ENDBRANCH   1  29
TORSDOF 7
ENDMDL
MODEL 10
REMARK VINA RESULT:      -8.6      2.995      5.298
REMARK  7 active torsions:
REMARK  status: ('A' for Active; 'I' for Inactive)
REMARK    1  A    between atoms: C_2  and  O_3 
REMARK    2  A    between atoms: O_3  and  C_4 
REMARK    3  A    between atoms: C_7  and  N_8 
REMARK    4  A    between atoms: C_9  and  C_11 
REMARK    5  A    between atoms: C_9  and  O_10 
REMARK       I    between atoms: C_11  and  N_12 
REMARK    6  A    between atoms: N_12  and  C_13 
REMARK    7  A    between atoms: C_13  and  C_14 
ROOT
HETATM    1  N   UNL     1       5.442  27.529  52.065  1.00  0.00    -0.254 N 
HETATM    2  C   UNL     1       4.962  28.722  51.340  1.00  0.00     0.256 C 
HETATM    3  C   UNL     1       4.391  28.403  49.971  1.00  0.00     0.034 A 
HETATM    4  C   UNL     1       4.773  27.215  49.359  1.00  0.00     0.048 A 
HETATM    5  N   UNL     1       5.608  26.343  50.044  1.00  0.00    -0.308 N 
HETATM    6  C   UNL     1       5.959  26.454  51.357  1.00  0.00     0.330 C 
HETATM    7  O   UNL     1       6.654  25.557  51.840  1.00  0.00    -0.246 OA
HETATM    8  C   UNL     1       3.571  29.289  49.247  1.00  0.00     0.015 A 
HETATM    9  C   UNL     1       3.122  28.961  47.965  1.00  0.00     0.001 A 
HETATM   10  C   UNL     1       3.508  27.759  47.377  1.00  0.00     0.002 A 
HETATM   11  C   UNL     1       4.345  26.886  48.071  1.00  0.00     0.030 A 
HETATM   12  H   UNL     1       5.931  25.495  49.597  1.00  0.00     0.170 HD
ENDROOT
BRANCH   2  13
HETATM   13  C   UNL     1       3.918  29.585  52.167  1.00  0.00     0.279 C 
HETATM   14  N   UNL     1       4.433  30.784  52.635  1.00  0.00    -0.352 N 
HETATM   15  H   UNL     1       5.282  31.115  52.188  1.00  0.00     0.162 HD
HETATM   16  O   UNL     1       2.767  29.226  52.416  1.00  0.00    -0.268 OA
BRANCH  14  17
HETATM   17  C   UNL     1       3.612  31.720  53.358  1.00  0.00     0.161 C 
BRANCH  17  18
HETATM   18  C   UNL     1       3.903  31.653  54.833  1.00  0.00    -0.038 A 
HETATM   19  C   UNL     1       4.603  32.692  55.467  1.00  0.00     0.048 A 
HETATM   20  C   UNL     1       4.853  32.577  56.819  1.00  0.00     0.105 A 
HETATM   21  C   UNL     1       4.445  31.482  57.542  1.00  0.00     0.105 A 
HETATM   22  O   UNL     1       5.508  33.490  57.585  1.00  0.00    -0.323 OA
HETATM   23  O   UNL     1       4.788  31.569  58.855  1.00  0.00    -0.323 OA
HETATM   24  C   UNL     1       3.768  30.436  56.954  1.00  0.00     0.040 A 
HETATM   25  C   UNL     1       5.453  32.850  58.877  1.00  0.00     0.352 A 
HETATM   26  C   UNL     1       3.500  30.524  55.584  1.00  0.00     0.012 A 
ENDBRANCH  17  18
ENDBRANCH  14  17
ENDBRANCH   2  13
BRANCH   2  27
HETATM   27  O   UNL     1       6.121  29.538  51.083  1.00  0.00    -0.359 OA
HETATM   28  H   UNL     1       6.441  29.230  50.220  1.00  0.00     0.213 HD
ENDBRANCH   2  27
BRANCH   1  29
HETATM   29  C   UNL     1       5.780  27.656  53.451  1.00  0.00     0.043 A 
HETATM   30  C   UNL     1       4.926  27.174  54.449  1.00  0.00     0.032 A 
HETATM   31  C   UNL     1       5.279  27.290  55.797  1.00  0.00     0.039 A 
HETATM   32  C   UNL     1       6.474  27.909  56.171  1.00  0.00     0.068 A 
HETATM   33  C   UNL     1       7.310  28.420  55.182  1.00  0.00     0.039 A 
HETATM   34  C   UNL     1       6.960  28.301  53.832  1.00  0.00     0.032 A 
BRANCH  32  35
HETATM   35  O   UNL     1       6.698  27.959  57.518  1.00  0.00    -0.352 OA
BRANCH  35  36
HETATM   36  C   UNL     1       7.979  28.421  57.943  1.00  0.00     0.171 C 
HETATM   37  C   UNL     1       7.803  29.799  58.557  1.00  0.00     0.034 C 
ENDBRANCH  35  36
ENDBRANCH  32  35
ENDBRANCH   1  29
TORSDOF 7
ENDMDL
