MODEL 1
REMARK VINA RESULT:     -10.3      0.000      0.000
REMARK  7 active torsions:
REMARK  status: ('A' for Active; 'I' for Inactive)
REMARK    1  A    between atoms: C_4  and  C_5 
REMARK    2  A    between atoms: N_6  and  C_7 
REMARK    3  A    between atoms: C_14  and  C_15 
REMARK       I    between atoms: C_15  and  N_16 
REMARK    4  A    between atoms: N_16  and  N_17 
REMARK       I    between atoms: N_17  and  C_18 
REMARK    5  A    between atoms: C_18  and  C_19 
REMARK    6  A    between atoms: C_19  and  C_20 
REMARK    7  A    between atoms: C_23  and  O_24 
ROOT
HETATM    1  C   UNL     1       7.480  26.855  55.465  1.00  0.00     0.164 C 
HETATM    2  N   UNL     1       6.628  27.922  55.186  1.00  0.00    -0.213 N 
HETATM    3  N   UNL     1       6.791  28.885  56.138  1.00  0.00    -0.139 NA
HETATM    4  C   UNL     1       7.867  28.455  56.819  1.00  0.00     0.241 C 
HETATM    5  N   UNL     1       8.320  27.225  56.415  1.00  0.00    -0.202 NA
ENDROOT
BRANCH   4   6
HETATM    6  C   UNL     1       8.492  29.231  57.907  1.00  0.00     0.309 C 
HETATM    7  N   UNL     1       7.616  29.576  58.922  1.00  0.00    -0.261 N 
HETATM    8  H   UNL     1       6.624  29.337  58.872  1.00  0.00     0.190 HD
HETATM    9  O   UNL     1       9.678  29.562  57.931  1.00  0.00    -0.262 OA
BRANCH   7  10
HETATM   10  N   UNL     1       8.062  30.386  59.968  1.00  0.00    -0.267 N 
HETATM   11  C   UNL     1       7.895  31.751  59.872  1.00  0.00     0.240 C 
HETATM   12  O   UNL     1       7.370  32.295  58.902  1.00  0.00    -0.272 OA
HETATM   13  H   UNL     1       8.407  29.913  60.801  1.00  0.00     0.190 HD
BRANCH  11  14
HETATM   14  C   UNL     1       8.436  32.522  61.061  1.00  0.00     0.143 C 
BRANCH  14  15
HETATM   15  C   UNL     1       7.434  32.674  62.178  1.00  0.00    -0.049 A 
HETATM   16  C   UNL     1       7.856  32.916  63.494  1.00  0.00     0.010 A 
HETATM   17  C   UNL     1       6.923  33.080  64.521  1.00  0.00     0.037 A 
HETATM   18  C   UNL     1       5.565  33.001  64.232  1.00  0.00     0.065 A 
HETATM   19  C   UNL     1       5.127  32.758  62.937  1.00  0.00     0.037 A 
HETATM   20  C   UNL     1       6.059  32.594  61.911  1.00  0.00     0.010 A 
BRANCH  18  21
HETATM   21  O   UNL     1       4.621  33.163  65.202  1.00  0.00    -0.361 OA
HETATM   22  H   UNL     1       3.845  33.596  64.811  1.00  0.00     0.217 HD
ENDBRANCH  18  21
ENDBRANCH  14  15
ENDBRANCH  11  14
ENDBRANCH   7  10
ENDBRANCH   4   6
BRANCH   2  23
HETATM   23  C   UNL     1       5.719  28.141  54.109  1.00  0.00     0.060 A 
HETATM   24  C   UNL     1       6.231  28.373  52.821  1.00  0.00     0.031 A 
HETATM   25  C   UNL     1       5.368  28.592  51.746  1.00  0.00     0.002 A 
HETATM   26  C   UNL     1       3.989  28.562  51.940  1.00  0.00     0.000 A 
HETATM   27  C   UNL     1       3.471  28.305  53.207  1.00  0.00     0.002 A 
HETATM   28  C   UNL     1       4.331  28.087  54.289  1.00  0.00     0.031 A 
ENDBRANCH   2  23
BRANCH   1  29
HETATM   29  C   UNL     1       7.456  25.507  54.894  1.00  0.00     0.012 A 
HETATM   30  C   UNL     1       7.780  25.326  53.543  1.00  0.00     0.015 A 
HETATM   31  C   UNL     1       7.791  24.049  52.979  1.00  0.00     0.001 A 
HETATM   32  C   UNL     1       7.491  22.938  53.765  1.00  0.00     0.000 A 
HETATM   33  C   UNL     1       7.192  23.102  55.116  1.00  0.00     0.001 A 
HETATM   34  C   UNL     1       7.183  24.379  55.682  1.00  0.00     0.015 A 
ENDBRANCH   1  29
TORSDOF 7
ENDMDL
MODEL 2
REMARK VINA RESULT:     -10.2      0.355      3.445
REMARK  7 active torsions:
REMARK  status: ('A' for Active; 'I' for Inactive)
REMARK    1  A    between atoms: C_4  and  C_5 
REMARK    2  A    between atoms: N_6  and  C_7 
REMARK    3  A    between atoms: C_14  and  C_15 
REMARK       I    between atoms: C_15  and  N_16 
REMARK    4  A    between atoms: N_16  and  N_17 
REMARK       I    between atoms: N_17  and  C_18 
REMARK    5  A    between atoms: C_18  and  C_19 
REMARK    6  A    between atoms: C_19  and  C_20 
REMARK    7  A    between atoms: C_23  and  O_24 
ROOT
HETATM    1  C   UNL     1       6.631  28.022  55.114  1.00  0.00     0.164 C 
HETATM    2  N   UNL     1       7.445  26.927  55.399  1.00  0.00    -0.213 N 
HETATM    3  N   UNL     1       8.355  27.282  56.353  1.00  0.00    -0.139 NA
HETATM    4  C   UNL     1       7.920  28.492  56.745  1.00  0.00     0.241 C 
HETATM    5  N   UNL     1       6.855  28.960  56.017  1.00  0.00    -0.202 NA
ENDROOT
BRANCH   4   6
HETATM    6  C   UNL     1       8.540  29.249  57.849  1.00  0.00     0.309 C 
HETATM    7  N   UNL     1       7.669  29.545  58.883  1.00  0.00    -0.261 N 
HETATM    8  H   UNL     1       6.682  29.287  58.837  1.00  0.00     0.190 HD
HETATM    9  O   UNL     1       9.719  29.605  57.870  1.00  0.00    -0.262 OA
BRANCH   7  10
HETATM   10  N   UNL     1       8.109  30.334  59.947  1.00  0.00    -0.267 N 
HETATM   11  C   UNL     1       7.958  31.703  59.871  1.00  0.00     0.240 C 
HETATM   12  O   UNL     1       7.451  32.268  58.903  1.00  0.00    -0.272 OA
HETATM   13  H   UNL     1       8.439  29.845  60.777  1.00  0.00     0.190 HD
BRANCH  11  14
HETATM   14  C   UNL     1       8.491  32.450  61.078  1.00  0.00     0.143 C 
BRANCH  14  15
HETATM   15  C   UNL     1       7.470  32.611  62.176  1.00  0.00    -0.049 A 
HETATM   16  C   UNL     1       7.870  32.871  63.496  1.00  0.00     0.010 A 
HETATM   17  C   UNL     1       6.919  33.044  64.506  1.00  0.00     0.037 A 
HETATM   18  C   UNL     1       5.566  32.956  64.196  1.00  0.00     0.065 A 
HETATM   19  C   UNL     1       5.151  32.696  62.896  1.00  0.00     0.037 A 
HETATM   20  C   UNL     1       6.100  32.524  61.888  1.00  0.00     0.010 A 
BRANCH  18  21
HETATM   21  O   UNL     1       4.606  33.126  65.148  1.00  0.00    -0.361 OA
HETATM   22  H   UNL     1       4.953  33.716  65.837  1.00  0.00     0.217 HD
ENDBRANCH  18  21
ENDBRANCH  14  15
ENDBRANCH  11  14
ENDBRANCH   7  10
ENDBRANCH   4   6
BRANCH   2  23
HETATM   23  C   UNL     1       7.430  25.590  54.903  1.00  0.00     0.060 A 
HETATM   24  C   UNL     1       7.729  25.363  53.549  1.00  0.00     0.031 A 
HETATM   25  C   UNL     1       7.723  24.066  53.031  1.00  0.00     0.002 A 
HETATM   26  C   UNL     1       7.438  22.984  53.861  1.00  0.00     0.000 A 
HETATM   27  C   UNL     1       7.169  23.197  55.211  1.00  0.00     0.002 A 
HETATM   28  C   UNL     1       7.171  24.494  55.735  1.00  0.00     0.031 A 
ENDBRANCH   2  23
BRANCH   1  29
HETATM   29  C   UNL     1       5.717  28.196  53.984  1.00  0.00     0.012 A 
HETATM   30  C   UNL     1       4.334  28.149  54.203  1.00  0.00     0.015 A 
HETATM   31  C   UNL     1       3.439  28.339  53.148  1.00  0.00     0.001 A 
HETATM   32  C   UNL     1       3.920  28.591  51.865  1.00  0.00     0.000 A 
HETATM   33  C   UNL     1       5.293  28.666  51.638  1.00  0.00     0.001 A 
HETATM   34  C   UNL     1       6.189  28.479  52.693  1.00  0.00     0.015 A 
ENDBRANCH   1  29
TORSDOF 7
ENDMDL
MODEL 3
REMARK VINA RESULT:     -10.0      2.188      3.188
REMARK  7 active torsions:
REMARK  status: ('A' for Active; 'I' for Inactive)
REMARK    1  A    between atoms: C_4  and  C_5 
REMARK    2  A    between atoms: N_6  and  C_7 
REMARK    3  A    between atoms: C_14  and  C_15 
REMARK       I    between atoms: C_15  and  N_16 
REMARK    4  A    between atoms: N_16  and  N_17 
REMARK       I    between atoms: N_17  and  C_18 
REMARK    5  A    between atoms: C_18  and  C_19 
REMARK    6  A    between atoms: C_19  and  C_20 
REMARK    7  A    between atoms: C_23  and  O_24 
ROOT
HETATM    1  C   UNL     1       7.608  24.652  54.998  1.00  0.00     0.164 C 
HETATM    2  N   UNL     1       6.769  25.607  54.425  1.00  0.00    -0.213 N 
HETATM    3  N   UNL     1       6.668  26.676  55.267  1.00  0.00    -0.139 NA
HETATM    4  C   UNL     1       7.602  26.415  56.197  1.00  0.00     0.241 C 
HETATM    5  N   UNL     1       8.206  25.192  56.046  1.00  0.00    -0.202 NA
ENDROOT
BRANCH   4   6
HETATM    6  C   UNL     1       7.935  27.352  57.287  1.00  0.00     0.309 C 
HETATM    7  N   UNL     1       8.584  28.498  56.860  1.00  0.00    -0.261 N 
HETATM    8  H   UNL     1       8.833  28.633  55.878  1.00  0.00     0.190 HD
HETATM    9  O   UNL     1       7.680  27.155  58.475  1.00  0.00    -0.262 OA
BRANCH   7  10
HETATM   10  N   UNL     1       9.032  29.425  57.802  1.00  0.00    -0.267 N 
HETATM   11  C   UNL     1       9.955  30.375  57.417  1.00  0.00     0.240 C 
HETATM   12  O   UNL     1      10.407  30.446  56.275  1.00  0.00    -0.272 OA
HETATM   13  H   UNL     1       8.579  29.411  58.714  1.00  0.00     0.190 HD
BRANCH  11  14
HETATM   14  C   UNL     1      10.377  31.311  58.533  1.00  0.00     0.143 C 
BRANCH  14  15
HETATM   15  C   UNL     1       9.353  31.422  59.635  1.00  0.00    -0.049 A 
HETATM   16  C   UNL     1       8.084  31.966  59.383  1.00  0.00     0.010 A 
HETATM   17  C   UNL     1       7.130  32.045  60.402  1.00  0.00     0.037 A 
HETATM   18  C   UNL     1       7.446  31.580  61.674  1.00  0.00     0.065 A 
HETATM   19  C   UNL     1       8.697  31.043  61.943  1.00  0.00     0.037 A 
HETATM   20  C   UNL     1       9.650  30.963  60.927  1.00  0.00     0.010 A 
BRANCH  18  21
HETATM   21  O   UNL     1       6.543  31.631  62.693  1.00  0.00    -0.361 OA
HETATM   22  H   UNL     1       6.234  30.730  62.880  1.00  0.00     0.217 HD
ENDBRANCH  18  21
ENDBRANCH  14  15
ENDBRANCH  11  14
ENDBRANCH   7  10
ENDBRANCH   4   6
BRANCH   2  23
HETATM   23  C   UNL     1       6.095  25.632  53.170  1.00  0.00     0.060 A 
HETATM   24  C   UNL     1       6.383  26.665  52.262  1.00  0.00     0.031 A 
HETATM   25  C   UNL     1       5.739  26.719  51.024  1.00  0.00     0.002 A 
HETATM   26  C   UNL     1       4.819  25.735  50.672  1.00  0.00     0.000 A 
HETATM   27  C   UNL     1       4.547  24.690  51.553  1.00  0.00     0.002 A 
HETATM   28  C   UNL     1       5.187  24.632  52.796  1.00  0.00     0.031 A 
ENDBRANCH   2  23
BRANCH   1  29
HETATM   29  C   UNL     1       7.789  23.255  54.601  1.00  0.00     0.012 A 
HETATM   30  C   UNL     1       7.551  22.237  55.534  1.00  0.00     0.015 A 
HETATM   31  C   UNL     1       7.689  20.895  55.174  1.00  0.00     0.001 A 
HETATM   32  C   UNL     1       8.054  20.558  53.872  1.00  0.00     0.000 A 
HETATM   33  C   UNL     1       8.269  21.559  52.928  1.00  0.00     0.001 A 
HETATM   34  C   UNL     1       8.128  22.902  53.286  1.00  0.00     0.015 A 
ENDBRANCH   1  29
TORSDOF 7
ENDMDL
MODEL 4
REMARK VINA RESULT:      -9.8      2.171      4.509
REMARK  7 active torsions:
REMARK  status: ('A' for Active; 'I' for Inactive)
REMARK    1  A    between atoms: C_4  and  C_5 
REMARK    2  A    between atoms: N_6  and  C_7 
REMARK    3  A    between atoms: C_14  and  C_15 
REMARK       I    between atoms: C_15  and  N_16 
REMARK    4  A    between atoms: N_16  and  N_17 
REMARK       I    between atoms: N_17  and  C_18 
REMARK    5  A    between atoms: C_18  and  C_19 
REMARK    6  A    between atoms: C_19  and  C_20 
REMARK    7  A    between atoms: C_23  and  O_24 
ROOT
HETATM    1  C   UNL     1       6.744  25.757  54.361  1.00  0.00     0.164 C 
HETATM    2  N   UNL     1       7.532  24.763  54.939  1.00  0.00    -0.213 N 
HETATM    3  N   UNL     1       8.195  25.285  56.012  1.00  0.00    -0.139 NA
HETATM    4  C   UNL     1       7.624  26.493  56.157  1.00  0.00     0.241 C 
HETATM    5  N   UNL     1       6.720  26.800  55.172  1.00  0.00    -0.202 NA
ENDROOT
BRANCH   4   6
HETATM    6  C   UNL     1       7.952  27.407  57.267  1.00  0.00     0.309 C 
HETATM    7  N   UNL     1       8.574  28.577  56.864  1.00  0.00    -0.261 N 
HETATM    8  H   UNL     1       8.809  28.742  55.883  1.00  0.00     0.190 HD
HETATM    9  O   UNL     1       7.714  27.175  58.453  1.00  0.00    -0.262 OA
BRANCH   7  10
HETATM   10  N   UNL     1       9.016  29.487  57.825  1.00  0.00    -0.267 N 
HETATM   11  C   UNL     1       9.970  30.419  57.474  1.00  0.00     0.240 C 
HETATM   12  O   UNL     1      10.456  30.487  56.346  1.00  0.00    -0.272 OA
HETATM   13  H   UNL     1       8.536  29.477  58.724  1.00  0.00     0.190 HD
BRANCH  11  14
HETATM   14  C   UNL     1      10.380  31.337  58.609  1.00  0.00     0.143 C 
BRANCH  14  15
HETATM   15  C   UNL     1       9.341  31.439  59.697  1.00  0.00    -0.049 A 
HETATM   16  C   UNL     1       8.118  32.085  59.463  1.00  0.00     0.010 A 
HETATM   17  C   UNL     1       7.148  32.156  60.467  1.00  0.00     0.037 A 
HETATM   18  C   UNL     1       7.403  31.581  61.707  1.00  0.00     0.065 A 
HETATM   19  C   UNL     1       8.609  30.941  61.959  1.00  0.00     0.037 A 
HETATM   20  C   UNL     1       9.577  30.869  60.957  1.00  0.00     0.010 A 
BRANCH  18  21
HETATM   21  O   UNL     1       6.482  31.620  62.711  1.00  0.00    -0.361 OA
HETATM   22  H   UNL     1       5.594  31.580  62.321  1.00  0.00     0.217 HD
ENDBRANCH  18  21
ENDBRANCH  14  15
ENDBRANCH  11  14
ENDBRANCH   7  10
ENDBRANCH   4   6
BRANCH   2  23
HETATM   23  C   UNL     1       7.693  23.384  54.614  1.00  0.00     0.060 A 
HETATM   24  C   UNL     1       8.089  23.033  53.312  1.00  0.00     0.031 A 
HETATM   25  C   UNL     1       8.255  21.691  52.961  1.00  0.00     0.002 A 
HETATM   26  C   UNL     1       8.048  20.691  53.907  1.00  0.00     0.000 A 
HETATM   27  C   UNL     1       7.684  21.031  55.209  1.00  0.00     0.002 A 
HETATM   28  C   UNL     1       7.513  22.372  55.566  1.00  0.00     0.031 A 
ENDBRANCH   2  23
BRANCH   1  29
HETATM   29  C   UNL     1       6.089  25.741  53.052  1.00  0.00     0.012 A 
HETATM   30  C   UNL     1       5.186  24.714  52.746  1.00  0.00     0.015 A 
HETATM   31  C   UNL     1       4.526  24.690  51.516  1.00  0.00     0.001 A 
HETATM   32  C   UNL     1       4.752  25.701  50.584  1.00  0.00     0.000 A 
HETATM   33  C   UNL     1       5.628  26.742  50.886  1.00  0.00     0.001 A 
HETATM   34  C   UNL     1       6.287  26.769  52.117  1.00  0.00     0.015 A 
ENDBRANCH   1  29
TORSDOF 7
ENDMDL
MODEL 5
REMARK VINA RESULT:      -9.7      1.725      2.216
REMARK  7 active torsions:
REMARK  status: ('A' for Active; 'I' for Inactive)
REMARK    1  A    between atoms: C_4  and  C_5 
REMARK    2  A    between atoms: N_6  and  C_7 
REMARK    3  A    between atoms: C_14  and  C_15 
REMARK       I    between atoms: C_15  and  N_16 
REMARK    4  A    between atoms: N_16  and  N_17 
REMARK       I    between atoms: N_17  and  C_18 
REMARK    5  A    between atoms: C_18  and  C_19 
REMARK    6  A    between atoms: C_19  and  C_20 
REMARK    7  A    between atoms: C_23  and  O_24 
ROOT
HETATM    1  C   UNL     1       7.491  25.807  55.774  1.00  0.00     0.164 C 
HETATM    2  N   UNL     1       6.590  26.502  54.968  1.00  0.00    -0.213 N 
HETATM    3  N   UNL     1       6.247  27.670  55.586  1.00  0.00    -0.139 NA
HETATM    4  C   UNL     1       7.103  27.725  56.620  1.00  0.00     0.241 C 
HETATM    5  N   UNL     1       7.889  26.608  56.747  1.00  0.00    -0.202 NA
ENDROOT
BRANCH   4   6
HETATM    6  C   UNL     1       7.180  28.876  57.538  1.00  0.00     0.309 C 
HETATM    7  N   UNL     1       8.431  29.059  58.103  1.00  0.00    -0.261 N 
HETATM    8  H   UNL     1       9.198  28.412  57.915  1.00  0.00     0.190 HD
HETATM    9  O   UNL     1       6.233  29.618  57.803  1.00  0.00    -0.262 OA
BRANCH   7  10
HETATM   10  N   UNL     1       8.613  30.061  59.059  1.00  0.00    -0.267 N 
HETATM   11  C   UNL     1       9.502  31.082  58.794  1.00  0.00     0.240 C 
HETATM   12  O   UNL     1      10.148  31.153  57.750  1.00  0.00    -0.272 OA
HETATM   13  H   UNL     1       8.003  30.036  59.873  1.00  0.00     0.190 HD
BRANCH  11  14
HETATM   14  C   UNL     1       9.625  32.096  59.914  1.00  0.00     0.143 C 
BRANCH  14  15
HETATM   15  C   UNL     1       8.457  32.073  60.869  1.00  0.00    -0.049 A 
HETATM   16  C   UNL     1       8.643  31.759  62.224  1.00  0.00     0.010 A 
HETATM   17  C   UNL     1       7.561  31.763  63.109  1.00  0.00     0.037 A 
HETATM   18  C   UNL     1       6.292  32.081  62.638  1.00  0.00     0.065 A 
HETATM   19  C   UNL     1       6.087  32.390  61.300  1.00  0.00     0.037 A 
HETATM   20  C   UNL     1       7.167  32.387  60.416  1.00  0.00     0.010 A 
BRANCH  18  21
HETATM   21  O   UNL     1       5.212  32.105  63.468  1.00  0.00    -0.361 OA
HETATM   22  H   UNL     1       5.503  31.870  64.364  1.00  0.00     0.217 HD
ENDBRANCH  18  21
ENDBRANCH  14  15
ENDBRANCH  11  14
ENDBRANCH   7  10
ENDBRANCH   4   6
BRANCH   2  23
HETATM   23  C   UNL     1       6.058  26.203  53.680  1.00  0.00     0.060 A 
HETATM   24  C   UNL     1       5.206  25.095  53.535  1.00  0.00     0.031 A 
HETATM   25  C   UNL     1       4.668  24.774  52.287  1.00  0.00     0.002 A 
HETATM   26  C   UNL     1       4.958  25.565  51.178  1.00  0.00     0.000 A 
HETATM   27  C   UNL     1       5.778  26.683  51.317  1.00  0.00     0.002 A 
HETATM   28  C   UNL     1       6.322  27.008  52.564  1.00  0.00     0.031 A 
ENDBRANCH   2  23
BRANCH   1  29
HETATM   29  C   UNL     1       7.911  24.410  55.659  1.00  0.00     0.012 A 
HETATM   30  C   UNL     1       8.293  23.905  54.409  1.00  0.00     0.015 A 
HETATM   31  C   UNL     1       8.724  22.584  54.277  1.00  0.00     0.001 A 
HETATM   32  C   UNL     1       8.790  21.757  55.397  1.00  0.00     0.000 A 
HETATM   33  C   UNL     1       8.437  22.254  56.650  1.00  0.00     0.001 A 
HETATM   34  C   UNL     1       8.009  23.576  56.784  1.00  0.00     0.015 A 
ENDBRANCH   1  29
TORSDOF 7
ENDMDL
MODEL 6
REMARK VINA RESULT:      -9.5      3.415      9.655
REMARK  7 active torsions:
REMARK  status: ('A' for Active; 'I' for Inactive)
REMARK    1  A    between atoms: C_4  and  C_5 
REMARK    2  A    between atoms: N_6  and  C_7 
REMARK    3  A    between atoms: C_14  and  C_15 
REMARK       I    between atoms: C_15  and  N_16 
REMARK    4  A    between atoms: N_16  and  N_17 
REMARK       I    between atoms: N_17  and  C_18 
REMARK    5  A    between atoms: C_18  and  C_19 
REMARK    6  A    between atoms: C_19  and  C_20 
REMARK    7  A    between atoms: C_23  and  O_24 
ROOT
HETATM    1  C   UNL     1       7.123  30.525  58.108  1.00  0.00     0.164 C 
HETATM    2  N   UNL     1       5.928  31.076  57.647  1.00  0.00    -0.213 N 
HETATM    3  N   UNL     1       5.606  30.506  56.450  1.00  0.00    -0.139 NA
HETATM    4  C   UNL     1       6.494  29.502  56.347  1.00  0.00     0.241 C 
HETATM    5  N   UNL     1       7.421  29.479  57.358  1.00  0.00    -0.202 NA
ENDROOT
BRANCH   4   6
HETATM    6  C   UNL     1       6.478  28.526  55.242  1.00  0.00     0.309 C 
HETATM    7  N   UNL     1       7.198  27.373  55.504  1.00  0.00    -0.261 N 
HETATM    8  H   UNL     1       7.718  27.257  56.376  1.00  0.00     0.190 HD
HETATM    9  O   UNL     1       5.893  28.698  54.171  1.00  0.00    -0.262 OA
BRANCH   7  10
HETATM   10  N   UNL     1       7.335  26.407  54.505  1.00  0.00    -0.267 N 
HETATM   11  C   UNL     1       6.472  25.331  54.493  1.00  0.00     0.240 C 
HETATM   12  O   UNL     1       5.582  25.178  55.327  1.00  0.00    -0.272 OA
HETATM   13  H   UNL     1       8.015  26.598  53.771  1.00  0.00     0.190 HD
BRANCH  11  14
HETATM   14  C   UNL     1       6.735  24.344  53.373  1.00  0.00     0.143 C 
BRANCH  14  15
HETATM   15  C   UNL     1       7.346  23.050  53.850  1.00  0.00    -0.049 A 
HETATM   16  C   UNL     1       7.454  22.770  55.221  1.00  0.00     0.010 A 
HETATM   17  C   UNL     1       7.998  21.559  55.658  1.00  0.00     0.037 A 
HETATM   18  C   UNL     1       8.436  20.628  54.723  1.00  0.00     0.065 A 
HETATM   19  C   UNL     1       8.341  20.888  53.362  1.00  0.00     0.037 A 
HETATM   20  C   UNL     1       7.797  22.097  52.925  1.00  0.00     0.010 A 
BRANCH  18  21
HETATM   21  O   UNL     1       8.965  19.432  55.105  1.00  0.00    -0.361 OA
HETATM   22  H   UNL     1       9.570  19.124  54.412  1.00  0.00     0.217 HD
ENDBRANCH  18  21
ENDBRANCH  14  15
ENDBRANCH  11  14
ENDBRANCH   7  10
ENDBRANCH   4   6
BRANCH   2  23
HETATM   23  C   UNL     1       5.053  32.041  58.227  1.00  0.00     0.060 A 
HETATM   24  C   UNL     1       4.114  31.621  59.183  1.00  0.00     0.031 A 
HETATM   25  C   UNL     1       3.242  32.541  59.770  1.00  0.00     0.002 A 
HETATM   26  C   UNL     1       3.311  33.888  59.423  1.00  0.00     0.000 A 
HETATM   27  C   UNL     1       4.259  34.319  58.498  1.00  0.00     0.002 A 
HETATM   28  C   UNL     1       5.134  33.402  57.905  1.00  0.00     0.031 A 
ENDBRANCH   2  23
BRANCH   1  29
HETATM   29  C   UNL     1       7.985  31.014  59.186  1.00  0.00     0.012 A 
HETATM   30  C   UNL     1       9.292  31.424  58.891  1.00  0.00     0.015 A 
HETATM   31  C   UNL     1      10.126  31.919  59.895  1.00  0.00     0.001 A 
HETATM   32  C   UNL     1       9.656  32.022  61.203  1.00  0.00     0.000 A 
HETATM   33  C   UNL     1       8.350  31.641  61.505  1.00  0.00     0.001 A 
HETATM   34  C   UNL     1       7.513  31.149  60.501  1.00  0.00     0.015 A 
ENDBRANCH   1  29
TORSDOF 7
ENDMDL
MODEL 7
REMARK VINA RESULT:      -9.5      3.362     10.149
REMARK  7 active torsions:
REMARK  status: ('A' for Active; 'I' for Inactive)
REMARK    1  A    between atoms: C_4  and  C_5 
REMARK    2  A    between atoms: N_6  and  C_7 
REMARK    3  A    between atoms: C_14  and  C_15 
REMARK       I    between atoms: C_15  and  N_16 
REMARK    4  A    between atoms: N_16  and  N_17 
REMARK       I    between atoms: N_17  and  C_18 
REMARK    5  A    between atoms: C_18  and  C_19 
REMARK    6  A    between atoms: C_19  and  C_20 
REMARK    7  A    between atoms: C_23  and  O_24 
ROOT
HETATM    1  C   UNL     1       5.841  31.240  57.727  1.00  0.00     0.164 C 
HETATM    2  N   UNL     1       7.043  30.725  58.209  1.00  0.00    -0.213 N 
HETATM    3  N   UNL     1       7.389  29.630  57.471  1.00  0.00    -0.139 NA
HETATM    4  C   UNL     1       6.506  29.660  56.459  1.00  0.00     0.241 C 
HETATM    5  N   UNL     1       5.559  30.646  56.580  1.00  0.00    -0.202 NA
ENDROOT
BRANCH   4   6
HETATM    6  C   UNL     1       6.544  28.710  55.332  1.00  0.00     0.309 C 
HETATM    7  N   UNL     1       7.521  27.736  55.454  1.00  0.00    -0.261 N 
HETATM    8  H   UNL     1       8.168  27.729  56.244  1.00  0.00     0.190 HD
HETATM    9  O   UNL     1       5.796  28.760  54.355  1.00  0.00    -0.262 OA
BRANCH   7  10
HETATM   10  N   UNL     1       7.720  26.829  54.412  1.00  0.00    -0.267 N 
HETATM   11  C   UNL     1       7.201  25.556  54.526  1.00  0.00     0.240 C 
HETATM   12  O   UNL     1       6.567  25.177  55.509  1.00  0.00    -0.272 OA
HETATM   13  H   UNL     1       8.165  27.187  53.569  1.00  0.00     0.190 HD
BRANCH  11  14
HETATM   14  C   UNL     1       7.501  24.661  53.339  1.00  0.00     0.143 C 
BRANCH  14  15
HETATM   15  C   UNL     1       7.949  23.277  53.736  1.00  0.00    -0.049 A 
HETATM   16  C   UNL     1       8.715  23.075  54.895  1.00  0.00     0.010 A 
HETATM   17  C   UNL     1       9.107  21.787  55.272  1.00  0.00     0.037 A 
HETATM   18  C   UNL     1       8.735  20.701  54.488  1.00  0.00     0.065 A 
HETATM   19  C   UNL     1       7.982  20.881  53.336  1.00  0.00     0.037 A 
HETATM   20  C   UNL     1       7.589  22.166  52.959  1.00  0.00     0.010 A 
BRANCH  18  21
HETATM   21  O   UNL     1       9.090  19.428  54.823  1.00  0.00    -0.361 OA
HETATM   22  H   UNL     1       8.924  19.299  55.771  1.00  0.00     0.217 HD
ENDBRANCH  18  21
ENDBRANCH  14  15
ENDBRANCH  11  14
ENDBRANCH   7  10
ENDBRANCH   4   6
BRANCH   2  23
HETATM   23  C   UNL     1       7.905  31.173  59.253  1.00  0.00     0.060 A 
HETATM   24  C   UNL     1       7.424  31.194  60.573  1.00  0.00     0.031 A 
HETATM   25  C   UNL     1       8.242  31.627  61.618  1.00  0.00     0.002 A 
HETATM   26  C   UNL     1       9.552  32.024  61.360  1.00  0.00     0.000 A 
HETATM   27  C   UNL     1      10.048  31.979  60.059  1.00  0.00     0.002 A 
HETATM   28  C   UNL     1       9.233  31.548  59.008  1.00  0.00     0.031 A 
ENDBRANCH   2  23
BRANCH   1  29
HETATM   29  C   UNL     1       4.959  32.218  58.363  1.00  0.00     0.012 A 
HETATM   30  C   UNL     1       4.975  33.549  57.925  1.00  0.00     0.015 A 
HETATM   31  C   UNL     1       4.124  34.497  58.497  1.00  0.00     0.001 A 
HETATM   32  C   UNL     1       3.238  34.120  59.504  1.00  0.00     0.000 A 
HETATM   33  C   UNL     1       3.193  32.795  59.931  1.00  0.00     0.001 A 
HETATM   34  C   UNL     1       4.042  31.845  59.358  1.00  0.00     0.015 A 
ENDBRANCH   1  29
TORSDOF 7
ENDMDL
MODEL 8
REMARK VINA RESULT:      -9.4      5.864     10.725
REMARK  7 active torsions:
REMARK  status: ('A' for Active; 'I' for Inactive)
REMARK    1  A    between atoms: C_4  and  C_5 
REMARK    2  A    between atoms: N_6  and  C_7 
REMARK    3  A    between atoms: C_14  and  C_15 
REMARK       I    between atoms: C_15  and  N_16 
REMARK    4  A    between atoms: N_16  and  N_17 
REMARK       I    between atoms: N_17  and  C_18 
REMARK    5  A    between atoms: C_18  and  C_19 
REMARK    6  A    between atoms: C_19  and  C_20 
REMARK    7  A    between atoms: C_23  and  O_24 
ROOT
HETATM    1  C   UNL     1       6.498  25.101  53.037  1.00  0.00     0.164 C 
HETATM    2  N   UNL     1       6.318  26.416  53.461  1.00  0.00    -0.213 N 
HETATM    3  N   UNL     1       5.891  27.171  52.406  1.00  0.00    -0.139 NA
HETATM    4  C   UNL     1       5.633  26.249  51.463  1.00  0.00     0.241 C 
HETATM    5  N   UNL     1       5.978  24.972  51.830  1.00  0.00    -0.202 NA
ENDROOT
BRANCH   4   6
HETATM    6  C   UNL     1       5.048  26.584  50.152  1.00  0.00     0.309 C 
HETATM    7  N   UNL     1       5.523  27.767  49.612  1.00  0.00    -0.261 N 
HETATM    8  H   UNL     1       6.187  28.353  50.121  1.00  0.00     0.190 HD
HETATM    9  O   UNL     1       4.205  25.897  49.571  1.00  0.00    -0.262 OA
BRANCH   7  10
HETATM   10  N   UNL     1       4.984  28.242  48.416  1.00  0.00    -0.267 N 
HETATM   11  C   UNL     1       4.092  29.293  48.457  1.00  0.00     0.240 C 
HETATM   12  O   UNL     1       3.745  29.837  49.504  1.00  0.00    -0.272 OA
HETATM   13  H   UNL     1       5.353  27.844  47.554  1.00  0.00     0.190 HD
BRANCH  11  14
HETATM   14  C   UNL     1       3.563  29.705  47.096  1.00  0.00     0.143 C 
BRANCH  14  15
HETATM   15  C   UNL     1       2.157  29.227  46.835  1.00  0.00    -0.049 A 
HETATM   16  C   UNL     1       1.179  30.108  46.348  1.00  0.00     0.010 A 
HETATM   17  C   UNL     1      -0.117  29.655  46.085  1.00  0.00     0.037 A 
HETATM   18  C   UNL     1      -0.436  28.321  46.310  1.00  0.00     0.065 A 
HETATM   19  C   UNL     1       0.517  27.435  46.795  1.00  0.00     0.037 A 
HETATM   20  C   UNL     1       1.811  27.887  47.058  1.00  0.00     0.010 A 
BRANCH  18  21
HETATM   21  O   UNL     1      -1.684  27.836  46.059  1.00  0.00    -0.361 OA
HETATM   22  H   UNL     1      -1.876  27.945  45.113  1.00  0.00     0.217 HD
ENDBRANCH  18  21
ENDBRANCH  14  15
ENDBRANCH  11  14
ENDBRANCH   7  10
ENDBRANCH   4   6
BRANCH   2  23
HETATM   23  C   UNL     1       6.468  27.019  54.744  1.00  0.00     0.060 A 
HETATM   24  C   UNL     1       5.367  27.048  55.616  1.00  0.00     0.031 A 
HETATM   25  C   UNL     1       5.480  27.632  56.880  1.00  0.00     0.002 A 
HETATM   26  C   UNL     1       6.695  28.173  57.292  1.00  0.00     0.000 A 
HETATM   27  C   UNL     1       7.800  28.123  56.447  1.00  0.00     0.002 A 
HETATM   28  C   UNL     1       7.693  27.542  55.179  1.00  0.00     0.031 A 
ENDBRANCH   2  23
BRANCH   1  29
HETATM   29  C   UNL     1       7.197  24.018  53.731  1.00  0.00     0.012 A 
HETATM   30  C   UNL     1       8.099  23.213  53.022  1.00  0.00     0.015 A 
HETATM   31  C   UNL     1       8.799  22.191  53.665  1.00  0.00     0.001 A 
HETATM   32  C   UNL     1       8.614  21.971  55.028  1.00  0.00     0.000 A 
HETATM   33  C   UNL     1       7.739  22.779  55.751  1.00  0.00     0.001 A 
HETATM   34  C   UNL     1       7.040  23.805  55.109  1.00  0.00     0.015 A 
ENDBRANCH   1  29
TORSDOF 7
ENDMDL
MODEL 9
REMARK VINA RESULT:      -9.2      5.896     11.123
REMARK  7 active torsions:
REMARK  status: ('A' for Active; 'I' for Inactive)
REMARK    1  A    between atoms: C_4  and  C_5 
REMARK    2  A    between atoms: N_6  and  C_7 
REMARK    3  A    between atoms: C_14  and  C_15 
REMARK       I    between atoms: C_15  and  N_16 
REMARK    4  A    between atoms: N_16  and  N_17 
REMARK       I    between atoms: N_17  and  C_18 
REMARK    5  A    between atoms: C_18  and  C_19 
REMARK    6  A    between atoms: C_19  and  C_20 
REMARK    7  A    between atoms: C_23  and  O_24 
ROOT
HETATM    1  C   UNL     1       6.334  26.587  53.523  1.00  0.00     0.164 C 
HETATM    2  N   UNL     1       6.525  25.267  53.121  1.00  0.00    -0.213 N 
HETATM    3  N   UNL     1       5.958  25.086  51.893  1.00  0.00    -0.139 NA
HETATM    4  C   UNL     1       5.640  26.338  51.523  1.00  0.00     0.241 C 
HETATM    5  N   UNL     1       5.877  27.278  52.493  1.00  0.00    -0.202 NA
ENDROOT
BRANCH   4   6
HETATM    6  C   UNL     1       5.077  26.666  50.200  1.00  0.00     0.309 C 
HETATM    7  N   UNL     1       5.530  27.867  49.681  1.00  0.00    -0.261 N 
HETATM    8  H   UNL     1       6.163  28.469  50.210  1.00  0.00     0.190 HD
HETATM    9  O   UNL     1       4.270  25.959  49.594  1.00  0.00    -0.262 OA
BRANCH   7  10
HETATM   10  N   UNL     1       5.005  28.335  48.475  1.00  0.00    -0.267 N 
HETATM   11  C   UNL     1       4.010  29.289  48.505  1.00  0.00     0.240 C 
HETATM   12  O   UNL     1       3.557  29.751  49.551  1.00  0.00    -0.272 OA
HETATM   13  H   UNL     1       5.456  28.012  47.621  1.00  0.00     0.190 HD
BRANCH  11  14
HETATM   14  C   UNL     1       3.511  29.702  47.134  1.00  0.00     0.143 C 
BRANCH  14  15
HETATM   15  C   UNL     1       2.126  29.191  46.826  1.00  0.00    -0.049 A 
HETATM   16  C   UNL     1       1.792  27.846  47.044  1.00  0.00     0.010 A 
HETATM   17  C   UNL     1       0.500  27.383  46.780  1.00  0.00     0.037 A 
HETATM   18  C   UNL     1      -0.459  28.266  46.296  1.00  0.00     0.065 A 
HETATM   19  C   UNL     1      -0.146  29.600  46.070  1.00  0.00     0.037 A 
HETATM   20  C   UNL     1       1.144  30.063  46.334  1.00  0.00     0.010 A 
BRANCH  18  21
HETATM   21  O   UNL     1      -1.732  27.859  46.033  1.00  0.00    -0.361 OA
HETATM   22  H   UNL     1      -1.743  27.406  45.175  1.00  0.00     0.217 HD
ENDBRANCH  18  21
ENDBRANCH  14  15
ENDBRANCH  11  14
ENDBRANCH   7  10
ENDBRANCH   4   6
BRANCH   2  23
HETATM   23  C   UNL     1       7.210  24.184  53.747  1.00  0.00     0.060 A 
HETATM   24  C   UNL     1       6.966  23.917  55.105  1.00  0.00     0.031 A 
HETATM   25  C   UNL     1       7.621  22.864  55.748  1.00  0.00     0.002 A 
HETATM   26  C   UNL     1       8.508  22.058  55.040  1.00  0.00     0.000 A 
HETATM   27  C   UNL     1       8.735  22.296  53.686  1.00  0.00     0.002 A 
HETATM   28  C   UNL     1       8.084  23.350  53.037  1.00  0.00     0.031 A 
ENDBRANCH   2  23
BRANCH   1  29
HETATM   29  C   UNL     1       6.518  27.160  54.857  1.00  0.00     0.012 A 
HETATM   30  C   UNL     1       5.430  27.222  55.738  1.00  0.00     0.015 A 
HETATM   31  C   UNL     1       5.584  27.739  57.026  1.00  0.00     0.001 A 
HETATM   32  C   UNL     1       6.834  28.186  57.451  1.00  0.00     0.000 A 
HETATM   33  C   UNL     1       7.930  28.106  56.595  1.00  0.00     0.001 A 
HETATM   34  C   UNL     1       7.777  27.587  55.307  1.00  0.00     0.015 A 
ENDBRANCH   1  29
TORSDOF 7
ENDMDL
MODEL 10
REMARK VINA RESULT:      -8.8      5.413     11.109
REMARK  7 active torsions:
REMARK  status: ('A' for Active; 'I' for Inactive)
REMARK    1  A    between atoms: C_4  and  C_5 
REMARK    2  A    between atoms: N_6  and  C_7 
REMARK    3  A    between atoms: C_14  and  C_15 
REMARK       I    between atoms: C_15  and  N_16 
REMARK    4  A    between atoms: N_16  and  N_17 
REMARK       I    between atoms: N_17  and  C_18 
REMARK    5  A    between atoms: C_18  and  C_19 
REMARK    6  A    between atoms: C_19  and  C_20 
REMARK    7  A    between atoms: C_23  and  O_24 
ROOT
HETATM    1  C   UNL     1       6.201  28.150  54.364  1.00  0.00     0.164 C 
HETATM    2  N   UNL     1       5.878  26.950  53.734  1.00  0.00    -0.213 N 
HETATM    3  N   UNL     1       4.710  27.106  53.045  1.00  0.00    -0.139 NA
HETATM    4  C   UNL     1       4.496  28.431  53.116  1.00  0.00     0.241 C 
HETATM    5  N   UNL     1       5.404  29.097  53.900  1.00  0.00    -0.202 NA
ENDROOT
BRANCH   4   6
HETATM    6  C   UNL     1       3.380  29.102  52.424  1.00  0.00     0.309 C 
HETATM    7  N   UNL     1       2.859  28.375  51.367  1.00  0.00    -0.261 N 
HETATM    8  H   UNL     1       3.261  27.478  51.089  1.00  0.00     0.190 HD
HETATM    9  O   UNL     1       2.937  30.210  52.731  1.00  0.00    -0.262 OA
BRANCH   7  10
HETATM   10  N   UNL     1       1.857  28.937  50.574  1.00  0.00    -0.267 N 
HETATM   11  C   UNL     1       2.205  29.529  49.378  1.00  0.00     0.240 C 
HETATM   12  O   UNL     1       3.365  29.588  48.973  1.00  0.00    -0.272 OA
HETATM   13  H   UNL     1       0.895  28.796  50.879  1.00  0.00     0.190 HD
BRANCH  11  14
HETATM   14  C   UNL     1       1.032  30.118  48.619  1.00  0.00     0.143 C 
BRANCH  14  15
HETATM   15  C   UNL     1       0.549  29.239  47.493  1.00  0.00    -0.049 A 
HETATM   16  C   UNL     1      -0.317  29.741  46.510  1.00  0.00     0.010 A 
HETATM   17  C   UNL     1      -0.742  28.929  45.455  1.00  0.00     0.037 A 
HETATM   18  C   UNL     1      -0.301  27.612  45.384  1.00  0.00     0.065 A 
HETATM   19  C   UNL     1       0.554  27.096  46.349  1.00  0.00     0.037 A 
HETATM   20  C   UNL     1       0.979  27.907  47.402  1.00  0.00     0.010 A 
BRANCH  18  21
HETATM   21  O   UNL     1      -0.684  26.788  44.368  1.00  0.00    -0.361 OA
HETATM   22  H   UNL     1      -0.720  25.878  44.702  1.00  0.00     0.217 HD
ENDBRANCH  18  21
ENDBRANCH  14  15
ENDBRANCH  11  14
ENDBRANCH   7  10
ENDBRANCH   4   6
BRANCH   2  23
HETATM   23  C   UNL     1       6.565  25.701  53.683  1.00  0.00     0.060 A 
HETATM   24  C   UNL     1       6.435  24.808  54.759  1.00  0.00     0.031 A 
HETATM   25  C   UNL     1       7.095  23.577  54.741  1.00  0.00     0.002 A 
HETATM   26  C   UNL     1       7.872  23.218  53.642  1.00  0.00     0.000 A 
HETATM   27  C   UNL     1       7.983  24.084  52.557  1.00  0.00     0.002 A 
HETATM   28  C   UNL     1       7.327  25.319  52.571  1.00  0.00     0.031 A 
ENDBRANCH   2  23
BRANCH   1  29
HETATM   29  C   UNL     1       7.193  28.379  55.416  1.00  0.00     0.012 A 
HETATM   30  C   UNL     1       6.914  27.967  56.726  1.00  0.00     0.015 A 
HETATM   31  C   UNL     1       7.852  28.148  57.744  1.00  0.00     0.001 A 
HETATM   32  C   UNL     1       9.086  28.730  57.458  1.00  0.00     0.000 A 
HETATM   33  C   UNL     1       9.386  29.121  56.155  1.00  0.00     0.001 A 
HETATM   34  C   UNL     1       8.448  28.938  55.135  1.00  0.00     0.015 A 
ENDBRANCH   1  29
TORSDOF 7
ENDMDL
