MODEL 1
REMARK VINA RESULT:      -9.1      0.000      0.000
REMARK  4 active torsions:
REMARK  status: ('A' for Active; 'I' for Inactive)
REMARK    1  A    between atoms: C_7  and  C_8 
REMARK    2  A    between atoms: C_8  and  N_9 
REMARK    3  A    between atoms: N_15  and  C_17 
REMARK    4  A    between atoms: C_21  and  C_22 
ROOT
HETATM    1  N   UNL     1       7.660  29.294  56.305  1.00  0.00    -0.067 N 
HETATM    2  H   UNL     1       8.092  30.217  56.144  1.00  0.00     0.280 HD
HETATM    3  C   UNL     1       8.052  28.453  55.126  1.00  0.00     0.236 C 
HETATM    4  C   UNL     1       7.318  27.114  55.144  1.00  0.00     0.039 C 
HETATM    5  C   UNL     1       5.770  27.222  55.235  1.00  0.00    -0.013 C 
HETATM    6  C   UNL     1       5.138  27.724  53.911  1.00  0.00     0.245 C 
HETATM    7  N   UNL     1       5.239  26.682  52.823  1.00  0.00    -0.065 N 
HETATM    8  H   UNL     1       6.225  26.438  52.661  1.00  0.00     0.280 HD
HETATM    9  C   UNL     1       4.523  25.385  53.195  1.00  0.00     0.244 C 
HETATM   10  C   UNL     1       5.151  24.775  54.461  1.00  0.00     0.045 C 
HETATM   11  C   UNL     1       5.127  25.844  55.586  1.00  0.00     0.022 C 
HETATM   12  C   UNL     1       5.425  28.201  56.401  1.00  0.00     0.039 C 
HETATM   13  C   UNL     1       6.182  29.528  56.386  1.00  0.00     0.236 C 
ENDROOT
BRANCH   7  14
HETATM   14  C   UNL     1       4.711  27.208  51.518  1.00  0.00     0.188 A 
HETATM   15  C   UNL     1       5.731  27.649  50.505  1.00  0.00     0.035 A 
HETATM   16  C   UNL     1       4.964  26.374  50.295  1.00  0.00     0.035 A 
ENDBRANCH   7  14
BRANCH  10  17
HETATM   17  C   UNL     1       6.509  24.096  54.298  1.00  0.00    -0.052 A 
HETATM   18  C   UNL     1       7.084  23.787  53.054  1.00  0.00     0.007 A 
HETATM   19  C   UNL     1       8.338  23.171  52.970  1.00  0.00     0.001 A 
HETATM   20  C   UNL     1       9.030  22.827  54.125  1.00  0.00     0.000 A 
HETATM   21  C   UNL     1       8.459  23.074  55.367  1.00  0.00     0.001 A 
HETATM   22  C   UNL     1       7.209  23.688  55.451  1.00  0.00     0.007 A 
ENDBRANCH  10  17
BRANCH   1  23
HETATM   23  C   UNL     1       8.294  28.877  57.633  1.00  0.00     0.277 C 
BRANCH  23  24
HETATM   24  C   UNL     1       8.689  30.049  58.451  1.00  0.00     0.011 A 
HETATM   25  C   UNL     1       9.874  30.830  58.333  1.00  0.00     0.060 A 
HETATM   26  C   UNL     1      11.030  30.646  57.418  1.00  0.00     0.073 C 
HETATM   27  N   UNL     1       9.854  31.872  59.165  1.00  0.00    -0.178 NA
HETATM   28  N   UNL     1       8.743  31.711  59.895  1.00  0.00    -0.284 N 
HETATM   29  C   UNL     1       8.429  32.649  60.949  1.00  0.00     0.179 C 
HETATM   30  C   UNL     1       7.989  30.646  59.486  1.00  0.00     0.122 A 
ENDBRANCH  23  24
ENDBRANCH   1  23
TORSDOF 4
ENDMDL
MODEL 2
REMARK VINA RESULT:      -8.2      3.005      7.131
REMARK  4 active torsions:
REMARK  status: ('A' for Active; 'I' for Inactive)
REMARK    1  A    between atoms: C_7  and  C_8 
REMARK    2  A    between atoms: C_8  and  N_9 
REMARK    3  A    between atoms: N_15  and  C_17 
REMARK    4  A    between atoms: C_21  and  C_22 
ROOT
HETATM    1  N   UNL     1       5.658  26.293  51.659  1.00  0.00    -0.067 N 
HETATM    2  H   UNL     1       5.969  26.215  50.679  1.00  0.00     0.280 HD
HETATM    3  C   UNL     1       6.892  26.616  52.450  1.00  0.00     0.236 C 
HETATM    4  C   UNL     1       6.604  26.572  53.950  1.00  0.00     0.039 C 
HETATM    5  C   UNL     1       5.977  25.242  54.453  1.00  0.00    -0.013 C 
HETATM    6  C   UNL     1       6.999  24.077  54.460  1.00  0.00     0.245 C 
HETATM    7  N   UNL     1       8.043  24.267  55.534  1.00  0.00    -0.065 N 
HETATM    8  H   UNL     1       8.539  25.156  55.388  1.00  0.00     0.280 HD
HETATM    9  C   UNL     1       7.431  24.332  56.932  1.00  0.00     0.244 C 
HETATM   10  C   UNL     1       6.460  25.522  57.033  1.00  0.00     0.045 C 
HETATM   11  C   UNL     1       5.409  25.396  55.898  1.00  0.00     0.022 C 
HETATM   12  C   UNL     1       4.773  24.896  53.521  1.00  0.00     0.039 C 
HETATM   13  C   UNL     1       5.066  24.965  52.023  1.00  0.00     0.236 C 
ENDROOT
BRANCH   7  14
HETATM   14  C   UNL     1       9.085  23.186  55.476  1.00  0.00     0.188 A 
HETATM   15  C   UNL     1       8.616  21.781  55.732  1.00  0.00     0.035 A 
HETATM   16  C   UNL     1       8.989  22.207  54.341  1.00  0.00     0.035 A 
ENDBRANCH   7  14
BRANCH  10  17
HETATM   17  C   UNL     1       7.082  26.912  57.132  1.00  0.00    -0.052 A 
HETATM   18  C   UNL     1       8.467  27.150  57.131  1.00  0.00     0.007 A 
HETATM   19  C   UNL     1       8.976  28.451  57.216  1.00  0.00     0.001 A 
HETATM   20  C   UNL     1       8.116  29.537  57.333  1.00  0.00     0.000 A 
HETATM   21  C   UNL     1       6.745  29.323  57.390  1.00  0.00     0.001 A 
HETATM   22  C   UNL     1       6.236  28.026  57.305  1.00  0.00     0.007 A 
ENDBRANCH  10  17
BRANCH   1  23
HETATM   23  C   UNL     1       4.633  27.425  51.573  1.00  0.00     0.277 C 
BRANCH  23  24
HETATM   24  C   UNL     1       5.041  28.471  50.605  1.00  0.00     0.011 A 
HETATM   25  C   UNL     1       5.056  28.380  49.184  1.00  0.00     0.060 A 
HETATM   26  C   UNL     1       4.731  27.219  48.316  1.00  0.00     0.073 C 
HETATM   27  N   UNL     1       5.381  29.547  48.626  1.00  0.00    -0.178 NA
HETATM   28  N   UNL     1       5.689  30.348  49.654  1.00  0.00    -0.284 N 
HETATM   29  C   UNL     1       6.144  31.697  49.406  1.00  0.00     0.179 C 
HETATM   30  C   UNL     1       5.473  29.760  50.869  1.00  0.00     0.122 A 
ENDBRANCH  23  24
ENDBRANCH   1  23
TORSDOF 4
ENDMDL
MODEL 3
REMARK VINA RESULT:      -8.1      5.225     12.629
REMARK  4 active torsions:
REMARK  status: ('A' for Active; 'I' for Inactive)
REMARK    1  A    between atoms: C_7  and  C_8 
REMARK    2  A    between atoms: C_8  and  N_9 
REMARK    3  A    between atoms: N_15  and  C_17 
REMARK    4  A    between atoms: C_21  and  C_22 
ROOT
HETATM    1  N   UNL     1       6.711  32.215  61.858  1.00  0.00    -0.067 N 
HETATM    2  H   UNL     1       7.447  31.494  61.903  1.00  0.00     0.280 HD
HETATM    3  C   UNL     1       7.210  33.354  62.700  1.00  0.00     0.236 C 
HETATM    4  C   UNL     1       6.128  34.417  62.874  1.00  0.00     0.039 C 
HETATM    5  C   UNL     1       4.779  33.887  63.434  1.00  0.00    -0.013 C 
HETATM    6  C   UNL     1       4.872  33.517  64.937  1.00  0.00     0.245 C 
HETATM    7  N   UNL     1       5.018  34.748  65.798  1.00  0.00    -0.065 N 
HETATM    8  H   UNL     1       5.858  35.272  65.522  1.00  0.00     0.280 HD
HETATM    9  C   UNL     1       3.837  35.704  65.647  1.00  0.00     0.244 C 
HETATM   10  C   UNL     1       3.726  36.186  64.189  1.00  0.00     0.045 C 
HETATM   11  C   UNL     1       3.642  34.942  63.265  1.00  0.00     0.022 C 
HETATM   12  C   UNL     1       4.370  32.634  62.597  1.00  0.00     0.039 C 
HETATM   13  C   UNL     1       5.468  31.587  62.409  1.00  0.00     0.236 C 
ENDROOT
BRANCH   7  14
HETATM   14  C   UNL     1       5.203  34.380  67.243  1.00  0.00     0.188 A 
HETATM   15  C   UNL     1       6.610  34.401  67.771  1.00  0.00     0.035 A 
HETATM   16  C   UNL     1       5.640  35.474  68.175  1.00  0.00     0.035 A 
ENDBRANCH   7  14
BRANCH  10  17
HETATM   17  C   UNL     1       4.750  37.219  63.725  1.00  0.00    -0.052 A 
HETATM   18  C   UNL     1       5.505  38.018  64.600  1.00  0.00     0.007 A 
HETATM   19  C   UNL     1       6.436  38.942  64.112  1.00  0.00     0.001 A 
HETATM   20  C   UNL     1       6.612  39.108  62.743  1.00  0.00     0.000 A 
HETATM   21  C   UNL     1       5.839  38.368  61.857  1.00  0.00     0.001 A 
HETATM   22  C   UNL     1       4.911  37.445  62.343  1.00  0.00     0.007 A 
ENDBRANCH  10  17
BRANCH   1  23
HETATM   23  C   UNL     1       6.646  32.504  60.358  1.00  0.00     0.277 C 
BRANCH  23  24
HETATM   24  C   UNL     1       7.187  31.383  59.552  1.00  0.00     0.011 A 
HETATM   25  C   UNL     1       8.304  30.554  59.859  1.00  0.00     0.060 A 
HETATM   26  C   UNL     1       9.239  30.630  61.011  1.00  0.00     0.073 C 
HETATM   27  N   UNL     1       8.445  29.577  58.962  1.00  0.00    -0.178 NA
HETATM   28  N   UNL     1       7.520  29.830  58.027  1.00  0.00    -0.284 N 
HETATM   29  C   UNL     1       7.423  28.984  56.859  1.00  0.00     0.179 C 
HETATM   30  C   UNL     1       6.716  30.888  58.349  1.00  0.00     0.122 A 
ENDBRANCH  23  24
ENDBRANCH   1  23
TORSDOF 4
ENDMDL
MODEL 4
REMARK VINA RESULT:      -8.1      3.036      7.981
REMARK  4 active torsions:
REMARK  status: ('A' for Active; 'I' for Inactive)
REMARK    1  A    between atoms: C_7  and  C_8 
REMARK    2  A    between atoms: C_8  and  N_9 
REMARK    3  A    between atoms: N_15  and  C_17 
REMARK    4  A    between atoms: C_21  and  C_22 
ROOT
HETATM    1  N   UNL     1       6.107  25.977  51.440  1.00  0.00    -0.067 N 
HETATM    2  H   UNL     1       6.494  25.763  50.508  1.00  0.00     0.280 HD
HETATM    3  C   UNL     1       7.291  26.295  52.306  1.00  0.00     0.236 C 
HETATM    4  C   UNL     1       6.871  26.446  53.767  1.00  0.00     0.039 C 
HETATM    5  C   UNL     1       6.092  25.234  54.348  1.00  0.00    -0.013 C 
HETATM    6  C   UNL     1       7.006  24.003  54.578  1.00  0.00     0.245 C 
HETATM    7  N   UNL     1       7.965  24.236  55.720  1.00  0.00    -0.065 N 
HETATM    8  H   UNL     1       8.546  25.063  55.527  1.00  0.00     0.280 HD
HETATM    9  C   UNL     1       7.243  24.507  57.038  1.00  0.00     0.244 C 
HETATM   10  C   UNL     1       6.372  25.771  56.917  1.00  0.00     0.045 C 
HETATM   11  C   UNL     1       5.416  25.596  55.707  1.00  0.00     0.022 C 
HETATM   12  C   UNL     1       4.948  24.874  53.348  1.00  0.00     0.039 C 
HETATM   13  C   UNL     1       5.374  24.749  51.886  1.00  0.00     0.236 C 
ENDROOT
BRANCH   7  14
HETATM   14  C   UNL     1       8.912  23.080  55.878  1.00  0.00     0.188 A 
HETATM   15  C   UNL     1       8.295  21.729  56.115  1.00  0.00     0.035 A 
HETATM   16  C   UNL     1       8.917  22.049  54.786  1.00  0.00     0.035 A 
ENDBRANCH   7  14
BRANCH  10  17
HETATM   17  C   UNL     1       7.101  27.112  56.925  1.00  0.00    -0.052 A 
HETATM   18  C   UNL     1       8.487  27.248  57.109  1.00  0.00     0.007 A 
HETATM   19  C   UNL     1       9.098  28.507  57.098  1.00  0.00     0.001 A 
HETATM   20  C   UNL     1       8.335  29.657  56.931  1.00  0.00     0.000 A 
HETATM   21  C   UNL     1       6.956  29.553  56.801  1.00  0.00     0.001 A 
HETATM   22  C   UNL     1       6.346  28.298  56.812  1.00  0.00     0.007 A 
ENDBRANCH  10  17
BRANCH   1  23
HETATM   23  C   UNL     1       5.194  27.166  51.135  1.00  0.00     0.277 C 
BRANCH  23  24
HETATM   24  C   UNL     1       4.626  27.094  49.767  1.00  0.00     0.011 A 
HETATM   25  C   UNL     1       4.736  28.063  48.730  1.00  0.00     0.060 A 
HETATM   26  C   UNL     1       5.383  29.400  48.762  1.00  0.00     0.073 C 
HETATM   27  N   UNL     1       4.191  27.624  47.595  1.00  0.00    -0.178 NA
HETATM   28  N   UNL     1       3.631  26.449  47.911  1.00  0.00    -0.284 N 
HETATM   29  C   UNL     1       2.896  25.708  46.913  1.00  0.00     0.179 C 
HETATM   30  C   UNL     1       3.890  26.068  49.199  1.00  0.00     0.122 A 
ENDBRANCH  23  24
ENDBRANCH   1  23
TORSDOF 4
ENDMDL
MODEL 5
REMARK VINA RESULT:      -7.6      2.230      7.938
REMARK  4 active torsions:
REMARK  status: ('A' for Active; 'I' for Inactive)
REMARK    1  A    between atoms: C_7  and  C_8 
REMARK    2  A    between atoms: C_8  and  N_9 
REMARK    3  A    between atoms: N_15  and  C_17 
REMARK    4  A    between atoms: C_21  and  C_22 
ROOT
HETATM    1  N   UNL     1       6.387  26.488  52.340  1.00  0.00    -0.067 N 
HETATM    2  H   UNL     1       6.970  26.357  51.500  1.00  0.00     0.280 HD
HETATM    3  C   UNL     1       6.686  27.876  52.828  1.00  0.00     0.236 C 
HETATM    4  C   UNL     1       6.027  28.131  54.182  1.00  0.00     0.039 C 
HETATM    5  C   UNL     1       6.376  27.089  55.281  1.00  0.00    -0.013 C 
HETATM    6  C   UNL     1       7.833  27.238  55.791  1.00  0.00     0.245 C 
HETATM    7  N   UNL     1       8.007  28.501  56.598  1.00  0.00    -0.065 N 
HETATM    8  H   UNL     1       7.759  29.320  56.027  1.00  0.00     0.280 HD
HETATM    9  C   UNL     1       7.100  28.533  57.826  1.00  0.00     0.244 C 
HETATM   10  C   UNL     1       5.622  28.473  57.399  1.00  0.00     0.045 C 
HETATM   11  C   UNL     1       5.419  27.219  56.507  1.00  0.00     0.022 C 
HETATM   12  C   UNL     1       6.159  25.665  54.679  1.00  0.00     0.039 C 
HETATM   13  C   UNL     1       6.803  25.428  53.314  1.00  0.00     0.236 C 
ENDROOT
BRANCH   7  14
HETATM   14  C   UNL     1       9.440  28.689  57.009  1.00  0.00     0.188 A 
HETATM   15  C   UNL     1      10.236  29.707  56.240  1.00  0.00     0.035 A 
HETATM   16  C   UNL     1       9.800  29.999  57.647  1.00  0.00     0.035 A 
ENDBRANCH   7  14
BRANCH  10  17
HETATM   17  C   UNL     1       5.027  29.745  56.802  1.00  0.00    -0.052 A 
HETATM   18  C   UNL     1       5.682  30.988  56.798  1.00  0.00     0.007 A 
HETATM   19  C   UNL     1       5.085  32.118  56.226  1.00  0.00     0.001 A 
HETATM   20  C   UNL     1       3.812  32.037  55.674  1.00  0.00     0.000 A 
HETATM   21  C   UNL     1       3.122  30.832  55.713  1.00  0.00     0.001 A 
HETATM   22  C   UNL     1       3.717  29.705  56.282  1.00  0.00     0.007 A 
ENDBRANCH  10  17
BRANCH   1  23
HETATM   23  C   UNL     1       4.978  26.293  51.778  1.00  0.00     0.277 C 
BRANCH  23  24
HETATM   24  C   UNL     1       4.633  27.328  50.774  1.00  0.00     0.011 A 
HETATM   25  C   UNL     1       3.839  28.494  50.968  1.00  0.00     0.060 A 
HETATM   26  C   UNL     1       3.113  28.942  52.185  1.00  0.00     0.073 C 
HETATM   27  N   UNL     1       3.821  29.257  49.875  1.00  0.00    -0.178 NA
HETATM   28  N   UNL     1       4.485  28.553  48.950  1.00  0.00    -0.284 N 
HETATM   29  C   UNL     1       4.615  29.068  47.606  1.00  0.00     0.179 C 
HETATM   30  C   UNL     1       5.020  27.397  49.447  1.00  0.00     0.122 A 
ENDBRANCH  23  24
ENDBRANCH   1  23
TORSDOF 4
ENDMDL
MODEL 6
REMARK VINA RESULT:      -7.5      4.029      6.677
REMARK  4 active torsions:
REMARK  status: ('A' for Active; 'I' for Inactive)
REMARK    1  A    between atoms: C_7  and  C_8 
REMARK    2  A    between atoms: C_8  and  N_9 
REMARK    3  A    between atoms: N_15  and  C_17 
REMARK    4  A    between atoms: C_21  and  C_22 
ROOT
HETATM    1  N   UNL     1       5.683  27.549  54.149  1.00  0.00    -0.067 N 
HETATM    2  H   UNL     1       6.482  27.613  54.798  1.00  0.00     0.280 HD
HETATM    3  C   UNL     1       6.217  27.961  52.808  1.00  0.00     0.236 C 
HETATM    4  C   UNL     1       5.087  28.094  51.790  1.00  0.00     0.039 C 
HETATM    5  C   UNL     1       3.932  29.040  52.220  1.00  0.00    -0.013 C 
HETATM    6  C   UNL     1       4.349  30.533  52.181  1.00  0.00     0.245 C 
HETATM    7  N   UNL     1       4.533  31.016  50.763  1.00  0.00    -0.065 N 
HETATM    8  H   UNL     1       5.248  30.448  50.289  1.00  0.00     0.280 HD
HETATM    9  C   UNL     1       3.255  30.888  49.937  1.00  0.00     0.244 C 
HETATM   10  C   UNL     1       2.818  29.415  49.857  1.00  0.00     0.045 C 
HETATM   11  C   UNL     1       2.683  28.863  51.301  1.00  0.00     0.022 C 
HETATM   12  C   UNL     1       3.498  28.641  53.666  1.00  0.00     0.039 C 
HETATM   13  C   UNL     1       4.639  28.488  54.671  1.00  0.00     0.236 C 
ENDROOT
BRANCH   7  14
HETATM   14  C   UNL     1       5.029  32.434  50.732  1.00  0.00     0.188 A 
HETATM   15  C   UNL     1       6.097  32.755  49.723  1.00  0.00     0.035 A 
HETATM   16  C   UNL     1       4.693  33.248  49.516  1.00  0.00     0.035 A 
ENDBRANCH   7  14
BRANCH  10  17
HETATM   17  C   UNL     1       3.624  28.506  48.932  1.00  0.00    -0.052 A 
HETATM   18  C   UNL     1       4.711  28.946  48.158  1.00  0.00     0.007 A 
HETATM   19  C   UNL     1       5.417  28.060  47.335  1.00  0.00     0.001 A 
HETATM   20  C   UNL     1       5.035  26.727  47.247  1.00  0.00     0.000 A 
HETATM   21  C   UNL     1       3.931  26.279  47.962  1.00  0.00     0.001 A 
HETATM   22  C   UNL     1       3.227  27.162  48.783  1.00  0.00     0.007 A 
ENDBRANCH  10  17
BRANCH   1  23
HETATM   23  C   UNL     1       5.302  26.073  54.264  1.00  0.00     0.277 C 
BRANCH  23  24
HETATM   24  C   UNL     1       6.422  25.248  54.778  1.00  0.00     0.011 A 
HETATM   25  C   UNL     1       7.435  24.593  54.021  1.00  0.00     0.060 A 
HETATM   26  C   UNL     1       7.600  24.515  52.546  1.00  0.00     0.073 C 
HETATM   27  N   UNL     1       8.344  24.025  54.814  1.00  0.00    -0.178 NA
HETATM   28  N   UNL     1       7.875  24.199  56.057  1.00  0.00    -0.284 N 
HETATM   29  C   UNL     1       8.597  23.652  57.183  1.00  0.00     0.179 C 
HETATM   30  C   UNL     1       6.736  24.955  56.093  1.00  0.00     0.122 A 
ENDBRANCH  23  24
ENDBRANCH   1  23
TORSDOF 4
ENDMDL
MODEL 7
REMARK VINA RESULT:      -7.1      7.511     11.007
REMARK  4 active torsions:
REMARK  status: ('A' for Active; 'I' for Inactive)
REMARK    1  A    between atoms: C_7  and  C_8 
REMARK    2  A    between atoms: C_8  and  N_9 
REMARK    3  A    between atoms: N_15  and  C_17 
REMARK    4  A    between atoms: C_21  and  C_22 
ROOT
HETATM    1  N   UNL     1       4.871  37.852  62.574  1.00  0.00    -0.067 N 
HETATM    2  H   UNL     1       4.904  38.797  62.162  1.00  0.00     0.280 HD
HETATM    3  C   UNL     1       5.659  36.978  61.643  1.00  0.00     0.236 C 
HETATM    4  C   UNL     1       5.531  35.508  62.037  1.00  0.00     0.039 C 
HETATM    5  C   UNL     1       4.070  34.990  62.150  1.00  0.00    -0.013 C 
HETATM    6  C   UNL     1       3.392  34.836  60.764  1.00  0.00     0.245 C 
HETATM    7  N   UNL     1       3.989  33.690  59.984  1.00  0.00    -0.065 N 
HETATM    8  H   UNL     1       4.998  33.840  59.857  1.00  0.00     0.280 HD
HETATM    9  C   UNL     1       3.833  32.354  60.707  1.00  0.00     0.244 C 
HETATM   10  C   UNL     1       4.555  32.397  62.066  1.00  0.00     0.045 C 
HETATM   11  C   UNL     1       4.014  33.608  62.872  1.00  0.00     0.022 C 
HETATM   12  C   UNL     1       3.269  36.001  63.031  1.00  0.00     0.039 C 
HETATM   13  C   UNL     1       3.424  37.471  62.642  1.00  0.00     0.236 C 
ENDROOT
BRANCH   7  14
HETATM   14  C   UNL     1       3.395  33.604  58.606  1.00  0.00     0.188 A 
HETATM   15  C   UNL     1       4.333  33.824  57.452  1.00  0.00     0.035 A 
HETATM   16  C   UNL     1       3.820  32.444  57.752  1.00  0.00     0.035 A 
ENDBRANCH   7  14
BRANCH  10  17
HETATM   17  C   UNL     1       6.079  32.318  62.039  1.00  0.00    -0.052 A 
HETATM   18  C   UNL     1       6.831  32.118  60.868  1.00  0.00     0.007 A 
HETATM   19  C   UNL     1       8.229  32.064  60.908  1.00  0.00     0.001 A 
HETATM   20  C   UNL     1       8.903  32.179  62.118  1.00  0.00     0.000 A 
HETATM   21  C   UNL     1       8.180  32.324  63.296  1.00  0.00     0.001 A 
HETATM   22  C   UNL     1       6.786  32.379  63.257  1.00  0.00     0.007 A 
ENDBRANCH  10  17
BRANCH   1  23
HETATM   23  C   UNL     1       5.516  38.083  63.941  1.00  0.00     0.277 C 
BRANCH  23  24
HETATM   24  C   UNL     1       6.133  39.427  64.045  1.00  0.00     0.011 A 
HETATM   25  C   UNL     1       6.328  40.204  65.222  1.00  0.00     0.060 A 
HETATM   26  C   UNL     1       5.920  39.906  66.619  1.00  0.00     0.073 C 
HETATM   27  N   UNL     1       7.008  41.320  64.960  1.00  0.00    -0.178 NA
HETATM   28  N   UNL     1       7.150  41.335  63.629  1.00  0.00    -0.284 N 
HETATM   29  C   UNL     1       7.807  42.450  62.985  1.00  0.00     0.179 C 
HETATM   30  C   UNL     1       6.667  40.203  63.031  1.00  0.00     0.122 A 
ENDBRANCH  23  24
ENDBRANCH   1  23
TORSDOF 4
ENDMDL
MODEL 8
REMARK VINA RESULT:      -7.0      2.922      7.198
REMARK  4 active torsions:
REMARK  status: ('A' for Active; 'I' for Inactive)
REMARK    1  A    between atoms: C_7  and  C_8 
REMARK    2  A    between atoms: C_8  and  N_9 
REMARK    3  A    between atoms: N_15  and  C_17 
REMARK    4  A    between atoms: C_21  and  C_22 
ROOT
HETATM    1  N   UNL     1       5.232  28.799  51.746  1.00  0.00    -0.067 N 
HETATM    2  H   UNL     1       5.489  28.710  50.752  1.00  0.00     0.280 HD
HETATM    3  C   UNL     1       6.464  28.427  52.518  1.00  0.00     0.236 C 
HETATM    4  C   UNL     1       6.163  28.334  54.012  1.00  0.00     0.039 C 
HETATM    5  C   UNL     1       4.991  27.383  54.382  1.00  0.00    -0.013 C 
HETATM    6  C   UNL     1       5.369  25.889  54.210  1.00  0.00     0.245 C 
HETATM    7  N   UNL     1       6.367  25.451  55.254  1.00  0.00    -0.065 N 
HETATM    8  H   UNL     1       7.216  26.028  55.193  1.00  0.00     0.280 HD
HETATM    9  C   UNL     1       5.829  25.613  56.674  1.00  0.00     0.244 C 
HETATM   10  C   UNL     1       5.506  27.092  56.955  1.00  0.00     0.045 C 
HETATM   11  C   UNL     1       4.532  27.598  55.858  1.00  0.00     0.022 C 
HETATM   12  C   UNL     1       3.777  27.739  53.467  1.00  0.00     0.039 C 
HETATM   13  C   UNL     1       4.094  27.852  51.976  1.00  0.00     0.236 C 
ENDROOT
BRANCH   7  14
HETATM   14  C   UNL     1       6.803  24.031  55.025  1.00  0.00     0.188 A 
HETATM   15  C   UNL     1       8.274  23.799  54.822  1.00  0.00     0.035 A 
HETATM   16  C   UNL     1       7.618  23.385  56.109  1.00  0.00     0.035 A 
ENDBRANCH   7  14
BRANCH  10  17
HETATM   17  C   UNL     1       6.692  28.023  57.190  1.00  0.00    -0.052 A 
HETATM   18  C   UNL     1       6.564  29.378  57.541  1.00  0.00     0.007 A 
HETATM   19  C   UNL     1       7.692  30.179  57.752  1.00  0.00     0.001 A 
HETATM   20  C   UNL     1       8.968  29.653  57.590  1.00  0.00     0.000 A 
HETATM   21  C   UNL     1       9.121  28.331  57.192  1.00  0.00     0.001 A 
HETATM   22  C   UNL     1       7.996  27.531  56.982  1.00  0.00     0.007 A 
ENDBRANCH  10  17
BRANCH   1  23
HETATM   23  C   UNL     1       4.837  30.274  51.837  1.00  0.00     0.277 C 
BRANCH  23  24
HETATM   24  C   UNL     1       4.685  30.892  50.497  1.00  0.00     0.011 A 
HETATM   25  C   UNL     1       3.516  30.925  49.685  1.00  0.00     0.060 A 
HETATM   26  C   UNL     1       2.185  30.312  49.932  1.00  0.00     0.073 C 
HETATM   27  N   UNL     1       3.709  31.655  48.586  1.00  0.00    -0.178 NA
HETATM   28  N   UNL     1       5.005  31.991  48.616  1.00  0.00    -0.284 N 
HETATM   29  C   UNL     1       5.578  32.754  47.531  1.00  0.00     0.179 C 
HETATM   30  C   UNL     1       5.632  31.582  49.761  1.00  0.00     0.122 A 
ENDBRANCH  23  24
ENDBRANCH   1  23
TORSDOF 4
ENDMDL
MODEL 9
REMARK VINA RESULT:      -6.9      7.886     12.087
REMARK  4 active torsions:
REMARK  status: ('A' for Active; 'I' for Inactive)
REMARK    1  A    between atoms: C_7  and  C_8 
REMARK    2  A    between atoms: C_8  and  N_9 
REMARK    3  A    between atoms: N_15  and  C_17 
REMARK    4  A    between atoms: C_21  and  C_22 
ROOT
HETATM    1  N   UNL     1       4.125  33.101  58.807  1.00  0.00    -0.067 N 
HETATM    2  H   UNL     1       4.641  32.461  58.184  1.00  0.00     0.280 HD
HETATM    3  C   UNL     1       5.175  33.882  59.543  1.00  0.00     0.236 C 
HETATM    4  C   UNL     1       4.546  34.738  60.641  1.00  0.00     0.039 C 
HETATM    5  C   UNL     1       3.657  33.954  61.647  1.00  0.00    -0.013 C 
HETATM    6  C   UNL     1       4.495  33.068  62.604  1.00  0.00     0.245 C 
HETATM    7  N   UNL     1       5.279  33.906  63.585  1.00  0.00    -0.065 N 
HETATM    8  H   UNL     1       5.903  34.548  63.078  1.00  0.00     0.280 HD
HETATM    9  C   UNL     1       4.375  34.775  64.457  1.00  0.00     0.244 C 
HETATM   10  C   UNL     1       3.565  35.748  63.582  1.00  0.00     0.045 C 
HETATM   11  C   UNL     1       2.796  34.924  62.514  1.00  0.00     0.022 C 
HETATM   12  C   UNL     1       2.667  33.071  60.825  1.00  0.00     0.039 C 
HETATM   13  C   UNL     1       3.303  32.237  59.714  1.00  0.00     0.236 C 
ENDROOT
BRANCH   7  14
HETATM   14  C   UNL     1       6.161  33.049  64.448  1.00  0.00     0.188 A 
HETATM   15  C   UNL     1       7.641  33.134  64.196  1.00  0.00     0.035 A 
HETATM   16  C   UNL     1       7.051  33.757  65.429  1.00  0.00     0.035 A 
ENDBRANCH   7  14
BRANCH  10  17
HETATM   17  C   UNL     1       4.318  36.941  63.001  1.00  0.00    -0.052 A 
HETATM   18  C   UNL     1       5.654  37.249  63.311  1.00  0.00     0.007 A 
HETATM   19  C   UNL     1       6.293  38.354  62.737  1.00  0.00     0.001 A 
HETATM   20  C   UNL     1       5.604  39.190  61.866  1.00  0.00     0.000 A 
HETATM   21  C   UNL     1       4.267  38.938  61.585  1.00  0.00     0.001 A 
HETATM   22  C   UNL     1       3.630  37.835  62.156  1.00  0.00     0.007 A 
ENDBRANCH  10  17
BRANCH   1  23
HETATM   23  C   UNL     1       3.299  33.913  57.809  1.00  0.00     0.277 C 
BRANCH  23  24
HETATM   24  C   UNL     1       4.143  34.508  56.744  1.00  0.00     0.011 A 
HETATM   25  C   UNL     1       4.689  35.822  56.703  1.00  0.00     0.060 A 
HETATM   26  C   UNL     1       4.513  36.940  57.665  1.00  0.00     0.073 C 
HETATM   27  N   UNL     1       5.485  35.984  55.645  1.00  0.00    -0.178 NA
HETATM   28  N   UNL     1       5.368  34.848  54.946  1.00  0.00    -0.284 N 
HETATM   29  C   UNL     1       6.068  34.697  53.691  1.00  0.00     0.179 C 
HETATM   30  C   UNL     1       4.596  33.913  55.579  1.00  0.00     0.122 A 
ENDBRANCH  23  24
ENDBRANCH   1  23
TORSDOF 4
ENDMDL
MODEL 10
REMARK VINA RESULT:      -6.8      8.724     11.793
REMARK  4 active torsions:
REMARK  status: ('A' for Active; 'I' for Inactive)
REMARK    1  A    between atoms: C_7  and  C_8 
REMARK    2  A    between atoms: C_8  and  N_9 
REMARK    3  A    between atoms: N_15  and  C_17 
REMARK    4  A    between atoms: C_21  and  C_22 
ROOT
HETATM    1  N   UNL     1       6.008  35.090  66.601  1.00  0.00    -0.067 N 
HETATM    2  H   UNL     1       6.136  35.990  67.089  1.00  0.00     0.280 HD
HETATM    3  C   UNL     1       6.616  35.277  65.242  1.00  0.00     0.236 C 
HETATM    4  C   UNL     1       6.326  34.075  64.346  1.00  0.00     0.039 C 
HETATM    5  C   UNL     1       4.821  33.711  64.214  1.00  0.00    -0.013 C 
HETATM    6  C   UNL     1       4.041  34.736  63.351  1.00  0.00     0.245 C 
HETATM    7  N   UNL     1       4.434  34.644  61.897  1.00  0.00    -0.065 N 
HETATM    8  H   UNL     1       5.445  34.809  61.795  1.00  0.00     0.280 HD
HETATM    9  C   UNL     1       4.156  33.263  61.308  1.00  0.00     0.244 C 
HETATM   10  C   UNL     1       4.963  32.190  62.061  1.00  0.00     0.045 C 
HETATM   11  C   UNL     1       4.635  32.300  63.574  1.00  0.00     0.022 C 
HETATM   12  C   UNL     1       4.215  33.647  65.651  1.00  0.00     0.039 C 
HETATM   13  C   UNL     1       4.531  34.843  66.548  1.00  0.00     0.236 C 
ENDROOT
BRANCH   7  14
HETATM   14  C   UNL     1       3.747  35.702  61.081  1.00  0.00     0.188 A 
HETATM   15  C   UNL     1       4.617  36.791  60.516  1.00  0.00     0.035 A 
HETATM   16  C   UNL     1       4.052  35.734  59.610  1.00  0.00     0.035 A 
ENDBRANCH   7  14
BRANCH  10  17
HETATM   17  C   UNL     1       6.460  32.122  61.768  1.00  0.00    -0.052 A 
HETATM   18  C   UNL     1       7.070  32.752  60.670  1.00  0.00     0.007 A 
HETATM   19  C   UNL     1       8.451  32.660  60.461  1.00  0.00     0.001 A 
HETATM   20  C   UNL     1       9.245  31.915  61.325  1.00  0.00     0.000 A 
HETATM   21  C   UNL     1       8.658  31.240  62.387  1.00  0.00     0.001 A 
HETATM   22  C   UNL     1       7.280  31.332  62.597  1.00  0.00     0.007 A 
ENDBRANCH  10  17
BRANCH   1  23
HETATM   23  C   UNL     1       6.764  34.126  67.518  1.00  0.00     0.277 C 
BRANCH  23  24
HETATM   24  C   UNL     1       6.870  34.645  68.903  1.00  0.00     0.011 A 
HETATM   25  C   UNL     1       6.538  33.969  70.111  1.00  0.00     0.060 A 
HETATM   26  C   UNL     1       5.953  32.616  70.296  1.00  0.00     0.073 C 
HETATM   27  N   UNL     1       6.857  34.699  71.180  1.00  0.00    -0.178 NA
HETATM   28  N   UNL     1       7.275  35.871  70.686  1.00  0.00    -0.284 N 
HETATM   29  C   UNL     1       7.657  36.937  71.584  1.00  0.00     0.179 C 
HETATM   30  C   UNL     1       7.331  35.882  69.320  1.00  0.00     0.122 A 
ENDBRANCH  23  24
ENDBRANCH   1  23
TORSDOF 4
ENDMDL
