MODEL 1
REMARK VINA RESULT:      -8.0      0.000      0.000
REMARK  5 active torsions:
REMARK  status: ('A' for Active; 'I' for Inactive)
REMARK    1  A    between atoms: C_2  and  C_3 
REMARK    2  A    between atoms: C_3  and  N_4 
REMARK    3  A    between atoms: C_3  and  C_19 
REMARK       I    between atoms: N_4  and  C_5 
REMARK    4  A    between atoms: C_5  and  C_6 
REMARK    5  A    between atoms: C_7  and  C_8 
ROOT
HETATM    1  N   UNL     1       7.123  28.120  55.720  1.00  0.00    -0.345 N 
HETATM    2  C   UNL     1       7.195  27.779  54.392  1.00  0.00     0.255 C 
HETATM    3  O   UNL     1       7.989  28.307  53.618  1.00  0.00    -0.268 OA
HETATM    4  H   UNL     1       6.356  27.781  56.281  1.00  0.00     0.163 HD
ENDROOT
BRANCH   2   5
HETATM    5  C   UNL     1       6.276  26.728  53.982  1.00  0.00     0.075 A 
HETATM    6  C   UNL     1       6.570  25.354  53.713  1.00  0.00     0.076 A 
HETATM    7  N   UNL     1       5.465  24.682  53.355  1.00  0.00    -0.178 NA
HETATM    8  N   UNL     1       4.490  25.596  53.386  1.00  0.00    -0.288 N 
HETATM    9  H   UNL     1       3.551  25.302  53.134  1.00  0.00     0.188 HD
HETATM   10  C   UNL     1       4.915  26.833  53.765  1.00  0.00     0.128 A 
BRANCH   6  11
HETATM   11  C   UNL     1       7.914  24.660  53.816  1.00  0.00     0.040 C 
HETATM   12  C   UNL     1       8.195  24.144  55.240  1.00  0.00     0.011 C 
HETATM   13  C   UNL     1       7.433  22.864  55.570  1.00  0.00     0.001 C 
HETATM   14  C   UNL     1       7.737  21.765  54.559  1.00  0.00     0.000 C 
HETATM   15  C   UNL     1       7.442  22.217  53.134  1.00  0.00     0.001 C 
HETATM   16  C   UNL     1       8.143  23.534  52.787  1.00  0.00     0.011 C 
ENDBRANCH   6  11
ENDBRANCH   2   5
BRANCH   1  17
HETATM   17  C   UNL     1       7.937  29.179  56.285  1.00  0.00     0.154 C 
BRANCH  17  18
HETATM   18  C   UNL     1       9.080  28.603  57.131  1.00  0.00     0.028 C 
HETATM   19  C   UNL     1      10.402  29.318  56.877  1.00  0.00     0.007 C 
ENDBRANCH  17  18
BRANCH  17  20
HETATM   20  C   UNL     1       7.024  30.044  57.101  1.00  0.00     0.127 A 
HETATM   21  N   UNL     1       7.341  30.819  58.121  1.00  0.00    -0.237 NA
HETATM   22  C   UNL     1       6.167  31.401  58.533  1.00  0.00     0.048 A 
HETATM   23  C   UNL     1       6.150  32.364  59.655  1.00  0.00     0.072 C 
HETATM   24  C   UNL     1       5.116  30.952  57.763  1.00  0.00     0.116 A 
HETATM   25  N   UNL     1       5.670  30.081  56.868  1.00  0.00    -0.351 N 
HETATM   26  H   UNL     1       5.185  29.536  56.166  1.00  0.00     0.166 HD
ENDBRANCH  17  20
ENDBRANCH   1  17
TORSDOF 5
ENDMDL
MODEL 2
REMARK VINA RESULT:      -8.0      1.932      2.221
REMARK  5 active torsions:
REMARK  status: ('A' for Active; 'I' for Inactive)
REMARK    1  A    between atoms: C_2  and  C_3 
REMARK    2  A    between atoms: C_3  and  N_4 
REMARK    3  A    between atoms: C_3  and  C_19 
REMARK       I    between atoms: N_4  and  C_5 
REMARK    4  A    between atoms: C_5  and  C_6 
REMARK    5  A    between atoms: C_7  and  C_8 
ROOT
HETATM    1  N   UNL     1       7.728  28.540  57.358  1.00  0.00    -0.345 N 
HETATM    2  C   UNL     1       7.254  28.054  56.165  1.00  0.00     0.255 C 
HETATM    3  O   UNL     1       7.542  28.562  55.085  1.00  0.00    -0.268 OA
HETATM    4  H   UNL     1       7.343  28.196  58.224  1.00  0.00     0.163 HD
ENDROOT
BRANCH   2   5
HETATM    5  C   UNL     1       6.406  26.877  56.280  1.00  0.00     0.075 A 
HETATM    6  C   UNL     1       6.677  25.546  55.828  1.00  0.00     0.076 A 
HETATM    7  N   UNL     1       5.655  24.722  56.107  1.00  0.00    -0.178 NA
HETATM    8  N   UNL     1       4.751  25.498  56.714  1.00  0.00    -0.288 N 
HETATM    9  H   UNL     1       3.878  25.073  57.008  1.00  0.00     0.188 HD
HETATM   10  C   UNL     1       5.152  26.791  56.854  1.00  0.00     0.128 A 
BRANCH   6  11
HETATM   11  C   UNL     1       7.930  25.042  55.140  1.00  0.00     0.040 C 
HETATM   12  C   UNL     1       8.420  23.706  55.730  1.00  0.00     0.011 C 
HETATM   13  C   UNL     1       7.598  22.510  55.258  1.00  0.00     0.001 C 
HETATM   14  C   UNL     1       7.577  22.420  53.737  1.00  0.00     0.000 C 
HETATM   15  C   UNL     1       7.066  23.710  53.106  1.00  0.00     0.001 C 
HETATM   16  C   UNL     1       7.829  24.941  53.604  1.00  0.00     0.011 C 
ENDBRANCH   6  11
ENDBRANCH   2   5
BRANCH   1  17
HETATM   17  C   UNL     1       8.550  29.733  57.428  1.00  0.00     0.154 C 
BRANCH  17  18
HETATM   18  C   UNL     1      10.039  29.382  57.321  1.00  0.00     0.028 C 
HETATM   19  C   UNL     1      10.927  30.621  57.356  1.00  0.00     0.007 C 
ENDBRANCH  17  18
BRANCH  17  20
HETATM   20  C   UNL     1       8.230  30.408  58.728  1.00  0.00     0.127 A 
HETATM   21  N   UNL     1       8.693  30.113  59.928  1.00  0.00    -0.237 NA
HETATM   22  C   UNL     1       8.107  31.008  60.790  1.00  0.00     0.048 A 
HETATM   23  C   UNL     1       8.423  30.988  62.234  1.00  0.00     0.072 C 
HETATM   24  C   UNL     1       7.257  31.846  60.102  1.00  0.00     0.116 A 
HETATM   25  N   UNL     1       7.332  31.445  58.797  1.00  0.00    -0.351 N 
HETATM   26  H   UNL     1       6.812  31.819  58.013  1.00  0.00     0.166 HD
ENDBRANCH  17  20
ENDBRANCH   1  17
TORSDOF 5
ENDMDL
MODEL 3
REMARK VINA RESULT:      -7.9      2.071      2.969
REMARK  5 active torsions:
REMARK  status: ('A' for Active; 'I' for Inactive)
REMARK    1  A    between atoms: C_2  and  C_3 
REMARK    2  A    between atoms: C_3  and  N_4 
REMARK    3  A    between atoms: C_3  and  C_19 
REMARK       I    between atoms: N_4  and  C_5 
REMARK    4  A    between atoms: C_5  and  C_6 
REMARK    5  A    between atoms: C_7  and  C_8 
ROOT
HETATM    1  N   UNL     1       6.536  27.109  55.711  1.00  0.00    -0.345 N 
HETATM    2  C   UNL     1       5.922  25.882  55.729  1.00  0.00     0.255 C 
HETATM    3  O   UNL     1       5.628  25.307  56.773  1.00  0.00    -0.268 OA
HETATM    4  H   UNL     1       6.901  27.471  54.843  1.00  0.00     0.163 HD
ENDROOT
BRANCH   2   5
HETATM    5  C   UNL     1       5.625  25.330  54.416  1.00  0.00     0.075 A 
HETATM    6  C   UNL     1       6.469  24.529  53.583  1.00  0.00     0.076 A 
HETATM    7  N   UNL     1       5.854  24.206  52.435  1.00  0.00    -0.178 NA
HETATM    8  N   UNL     1       4.653  24.787  52.521  1.00  0.00    -0.288 N 
HETATM    9  H   UNL     1       4.013  24.679  51.741  1.00  0.00     0.188 HD
HETATM   10  C   UNL     1       4.457  25.461  53.688  1.00  0.00     0.128 A 
BRANCH   6  11
HETATM   11  C   UNL     1       7.873  24.044  53.887  1.00  0.00     0.040 C 
HETATM   12  C   UNL     1       8.013  23.539  55.336  1.00  0.00     0.011 C 
HETATM   13  C   UNL     1       7.416  22.150  55.543  1.00  0.00     0.001 C 
HETATM   14  C   UNL     1       8.033  21.137  54.586  1.00  0.00     0.000 C 
HETATM   15  C   UNL     1       7.889  21.576  53.135  1.00  0.00     0.001 C 
HETATM   16  C   UNL     1       8.424  22.993  52.902  1.00  0.00     0.011 C 
ENDBRANCH   6  11
ENDBRANCH   2   5
BRANCH   1  17
HETATM   17  C   UNL     1       6.942  27.782  56.931  1.00  0.00     0.154 C 
BRANCH  17  18
HETATM   18  C   UNL     1       5.861  28.761  57.406  1.00  0.00     0.028 C 
HETATM   19  C   UNL     1       4.999  29.270  56.257  1.00  0.00     0.007 C 
ENDBRANCH  17  18
BRANCH  17  20
HETATM   20  C   UNL     1       8.234  28.483  56.634  1.00  0.00     0.127 A 
HETATM   21  N   UNL     1       9.211  28.767  57.474  1.00  0.00    -0.237 NA
HETATM   22  C   UNL     1      10.171  29.413  56.732  1.00  0.00     0.048 A 
HETATM   23  C   UNL     1      11.436  29.859  57.353  1.00  0.00     0.072 C 
HETATM   24  C   UNL     1       9.757  29.540  55.424  1.00  0.00     0.116 A 
HETATM   25  N   UNL     1       8.520  28.960  55.377  1.00  0.00    -0.351 N 
HETATM   26  H   UNL     1       7.903  28.901  54.577  1.00  0.00     0.166 HD
ENDBRANCH  17  20
ENDBRANCH   1  17
TORSDOF 5
ENDMDL
MODEL 4
REMARK VINA RESULT:      -7.7      2.205      7.090
REMARK  5 active torsions:
REMARK  status: ('A' for Active; 'I' for Inactive)
REMARK    1  A    between atoms: C_2  and  C_3 
REMARK    2  A    between atoms: C_3  and  N_4 
REMARK    3  A    between atoms: C_3  and  C_19 
REMARK       I    between atoms: N_4  and  C_5 
REMARK    4  A    between atoms: C_5  and  C_6 
REMARK    5  A    between atoms: C_7  and  C_8 
ROOT
HETATM    1  N   UNL     1       6.977  25.500  55.973  1.00  0.00    -0.345 N 
HETATM    2  C   UNL     1       5.940  26.289  56.404  1.00  0.00     0.255 C 
HETATM    3  O   UNL     1       5.006  25.845  57.066  1.00  0.00    -0.268 OA
HETATM    4  H   UNL     1       7.636  25.866  55.303  1.00  0.00     0.163 HD
ENDROOT
BRANCH   2   5
HETATM    5  C   UNL     1       6.047  27.692  56.037  1.00  0.00     0.075 A 
HETATM    6  C   UNL     1       6.936  28.679  56.570  1.00  0.00     0.076 A 
HETATM    7  N   UNL     1       6.743  29.872  55.986  1.00  0.00    -0.178 NA
HETATM    8  N   UNL     1       5.757  29.662  55.108  1.00  0.00    -0.288 N 
HETATM    9  H   UNL     1       5.437  30.449  54.553  1.00  0.00     0.188 HD
HETATM   10  C   UNL     1       5.311  28.376  55.087  1.00  0.00     0.128 A 
BRANCH   6  11
HETATM   11  C   UNL     1       7.997  28.486  57.635  1.00  0.00     0.040 C 
HETATM   12  C   UNL     1       9.400  28.291  57.029  1.00  0.00     0.011 C 
HETATM   13  C   UNL     1      10.026  29.596  56.546  1.00  0.00     0.001 C 
HETATM   14  C   UNL     1      10.092  30.625  57.668  1.00  0.00     0.000 C 
HETATM   15  C   UNL     1       8.719  30.878  58.278  1.00  0.00     0.001 C 
HETATM   16  C   UNL     1       8.033  29.582  58.720  1.00  0.00     0.011 C 
ENDBRANCH   6  11
ENDBRANCH   2   5
BRANCH   1  17
HETATM   17  C   UNL     1       7.006  24.070  56.215  1.00  0.00     0.154 C 
BRANCH  17  18
HETATM   18  C   UNL     1       8.001  23.719  57.329  1.00  0.00     0.028 C 
HETATM   19  C   UNL     1       9.211  24.646  57.334  1.00  0.00     0.007 C 
ENDBRANCH  17  18
BRANCH  17  20
HETATM   20  C   UNL     1       7.373  23.415  54.917  1.00  0.00     0.127 A 
HETATM   21  N   UNL     1       7.613  22.137  54.696  1.00  0.00    -0.237 NA
HETATM   22  C   UNL     1       7.908  22.033  53.357  1.00  0.00     0.048 A 
HETATM   23  C   UNL     1       8.207  20.721  52.746  1.00  0.00     0.072 C 
HETATM   24  C   UNL     1       7.867  23.276  52.763  1.00  0.00     0.116 A 
HETATM   25  N   UNL     1       7.541  24.146  53.765  1.00  0.00    -0.351 N 
HETATM   26  H   UNL     1       7.456  25.152  53.696  1.00  0.00     0.166 HD
ENDBRANCH  17  20
ENDBRANCH   1  17
TORSDOF 5
ENDMDL
MODEL 5
REMARK VINA RESULT:      -7.5      4.822     10.764
REMARK  5 active torsions:
REMARK  status: ('A' for Active; 'I' for Inactive)
REMARK    1  A    between atoms: C_2  and  C_3 
REMARK    2  A    between atoms: C_3  and  N_4 
REMARK    3  A    between atoms: C_3  and  C_19 
REMARK       I    between atoms: N_4  and  C_5 
REMARK    4  A    between atoms: C_5  and  C_6 
REMARK    5  A    between atoms: C_7  and  C_8 
ROOT
HETATM    1  N   UNL     1       6.771  31.681  60.790  1.00  0.00    -0.345 N 
HETATM    2  C   UNL     1       6.570  31.901  62.130  1.00  0.00     0.255 C 
HETATM    3  O   UNL     1       7.448  31.717  62.968  1.00  0.00    -0.268 OA
HETATM    4  H   UNL     1       5.984  31.691  60.160  1.00  0.00     0.163 HD
ENDROOT
BRANCH   2   5
HETATM    5  C   UNL     1       5.245  32.393  62.475  1.00  0.00     0.075 A 
HETATM    6  C   UNL     1       4.904  33.465  63.360  1.00  0.00     0.076 A 
HETATM    7  N   UNL     1       3.574  33.629  63.433  1.00  0.00    -0.178 NA
HETATM    8  N   UNL     1       3.073  32.689  62.625  1.00  0.00    -0.288 N 
HETATM    9  H   UNL     1       2.064  32.624  62.536  1.00  0.00     0.188 HD
HETATM   10  C   UNL     1       4.025  31.930  62.018  1.00  0.00     0.128 A 
BRANCH   6  11
HETATM   11  C   UNL     1       5.851  34.360  64.134  1.00  0.00     0.040 C 
HETATM   12  C   UNL     1       5.360  35.819  64.185  1.00  0.00     0.011 C 
HETATM   13  C   UNL     1       4.230  36.032  65.189  1.00  0.00     0.001 C 
HETATM   14  C   UNL     1       4.641  35.581  66.586  1.00  0.00     0.000 C 
HETATM   15  C   UNL     1       5.104  34.130  66.593  1.00  0.00     0.001 C 
HETATM   16  C   UNL     1       6.197  33.864  65.553  1.00  0.00     0.011 C 
ENDBRANCH   6  11
ENDBRANCH   2   5
BRANCH   1  17
HETATM   17  C   UNL     1       8.020  31.149  60.279  1.00  0.00     0.154 C 
BRANCH  17  18
HETATM   18  C   UNL     1       8.958  32.277  59.832  1.00  0.00     0.028 C 
HETATM   19  C   UNL     1      10.006  31.795  58.836  1.00  0.00     0.007 C 
ENDBRANCH  17  18
BRANCH  17  20
HETATM   20  C   UNL     1       7.672  30.233  59.144  1.00  0.00     0.127 A 
HETATM   21  N   UNL     1       8.308  29.142  58.762  1.00  0.00    -0.237 NA
HETATM   22  C   UNL     1       7.611  28.657  57.681  1.00  0.00     0.048 A 
HETATM   23  C   UNL     1       8.031  27.411  57.004  1.00  0.00     0.072 C 
HETATM   24  C   UNL     1       6.547  29.483  57.391  1.00  0.00     0.116 A 
HETATM   25  N   UNL     1       6.605  30.487  58.317  1.00  0.00    -0.351 N 
HETATM   26  H   UNL     1       5.994  31.291  58.384  1.00  0.00     0.166 HD
ENDBRANCH  17  20
ENDBRANCH   1  17
TORSDOF 5
ENDMDL
MODEL 6
REMARK VINA RESULT:      -7.5      2.365      3.508
REMARK  5 active torsions:
REMARK  status: ('A' for Active; 'I' for Inactive)
REMARK    1  A    between atoms: C_2  and  C_3 
REMARK    2  A    between atoms: C_3  and  N_4 
REMARK    3  A    between atoms: C_3  and  C_19 
REMARK       I    between atoms: N_4  and  C_5 
REMARK    4  A    between atoms: C_5  and  C_6 
REMARK    5  A    between atoms: C_7  and  C_8 
ROOT
HETATM    1  N   UNL     1       5.767  27.202  56.265  1.00  0.00    -0.345 N 
HETATM    2  C   UNL     1       5.743  25.971  56.874  1.00  0.00     0.255 C 
HETATM    3  O   UNL     1       4.707  25.467  57.298  1.00  0.00    -0.268 OA
HETATM    4  H   UNL     1       6.653  27.646  56.076  1.00  0.00     0.163 HD
ENDROOT
BRANCH   2   5
HETATM    5  C   UNL     1       7.033  25.305  56.953  1.00  0.00     0.075 A 
HETATM    6  C   UNL     1       7.504  24.198  56.178  1.00  0.00     0.076 A 
HETATM    7  N   UNL     1       8.750  23.850  56.534  1.00  0.00    -0.178 NA
HETATM    8  N   UNL     1       9.071  24.702  57.513  1.00  0.00    -0.288 N 
HETATM    9  H   UNL     1       9.984  24.611  57.946  1.00  0.00     0.188 HD
HETATM   10  C   UNL     1       8.088  25.600  57.797  1.00  0.00     0.128 A 
BRANCH   6  11
HETATM   11  C   UNL     1       6.771  23.470  55.068  1.00  0.00     0.040 C 
HETATM   12  C   UNL     1       6.230  24.437  53.997  1.00  0.00     0.011 C 
HETATM   13  C   UNL     1       7.312  24.937  53.045  1.00  0.00     0.001 C 
HETATM   14  C   UNL     1       8.033  23.776  52.370  1.00  0.00     0.000 C 
HETATM   15  C   UNL     1       8.616  22.807  53.391  1.00  0.00     0.001 C 
HETATM   16  C   UNL     1       7.569  22.330  54.402  1.00  0.00     0.011 C 
ENDBRANCH   6  11
ENDBRANCH   2   5
BRANCH   1  17
HETATM   17  C   UNL     1       4.577  28.021  56.143  1.00  0.00     0.154 C 
BRANCH  17  18
HETATM   18  C   UNL     1       4.293  28.366  54.675  1.00  0.00     0.028 C 
HETATM   19  C   UNL     1       5.521  28.180  53.792  1.00  0.00     0.007 C 
ENDBRANCH  17  18
BRANCH  17  20
HETATM   20  C   UNL     1       4.807  29.253  56.968  1.00  0.00     0.127 A 
HETATM   21  N   UNL     1       5.959  29.743  57.383  1.00  0.00    -0.237 NA
HETATM   22  C   UNL     1       5.651  30.873  58.101  1.00  0.00     0.048 A 
HETATM   23  C   UNL     1       6.717  31.705  58.701  1.00  0.00     0.072 C 
HETATM   24  C   UNL     1       4.286  31.057  58.140  1.00  0.00     0.116 A 
HETATM   25  N   UNL     1       3.761  30.014  57.430  1.00  0.00    -0.351 N 
HETATM   26  H   UNL     1       2.781  29.811  57.278  1.00  0.00     0.166 HD
ENDBRANCH  17  20
ENDBRANCH   1  17
TORSDOF 5
ENDMDL
MODEL 7
REMARK VINA RESULT:      -7.5      1.850      6.774
REMARK  5 active torsions:
REMARK  status: ('A' for Active; 'I' for Inactive)
REMARK    1  A    between atoms: C_2  and  C_3 
REMARK    2  A    between atoms: C_3  and  N_4 
REMARK    3  A    between atoms: C_3  and  C_19 
REMARK       I    between atoms: N_4  and  C_5 
REMARK    4  A    between atoms: C_5  and  C_6 
REMARK    5  A    between atoms: C_7  and  C_8 
ROOT
HETATM    1  N   UNL     1       6.888  26.548  54.953  1.00  0.00    -0.345 N 
HETATM    2  C   UNL     1       7.265  27.849  54.724  1.00  0.00     0.255 C 
HETATM    3  O   UNL     1       8.108  28.152  53.885  1.00  0.00    -0.268 OA
HETATM    4  H   UNL     1       6.314  26.330  55.754  1.00  0.00     0.163 HD
ENDROOT
BRANCH   2   5
HETATM    5  C   UNL     1       6.569  28.837  55.533  1.00  0.00     0.075 A 
HETATM    6  C   UNL     1       6.881  29.269  56.860  1.00  0.00     0.076 A 
HETATM    7  N   UNL     1       6.010  30.197  57.287  1.00  0.00    -0.178 NA
HETATM    8  N   UNL     1       5.158  30.353  56.268  1.00  0.00    -0.288 N 
HETATM    9  H   UNL     1       4.396  31.014  56.380  1.00  0.00     0.188 HD
HETATM   10  C   UNL     1       5.451  29.575  55.190  1.00  0.00     0.128 A 
BRANCH   6  11
HETATM   11  C   UNL     1       8.034  28.812  57.733  1.00  0.00     0.040 C 
HETATM   12  C   UNL     1       9.308  28.534  56.913  1.00  0.00     0.011 C 
HETATM   13  C   UNL     1      10.039  29.807  56.498  1.00  0.00     0.001 C 
HETATM   14  C   UNL     1      10.387  30.664  57.710  1.00  0.00     0.000 C 
HETATM   15  C   UNL     1       9.150  30.995  58.536  1.00  0.00     0.001 C 
HETATM   16  C   UNL     1       8.357  29.742  58.920  1.00  0.00     0.011 C 
ENDBRANCH   6  11
ENDBRANCH   2   5
BRANCH   1  17
HETATM   17  C   UNL     1       7.513  25.435  54.265  1.00  0.00     0.154 C 
BRANCH  17  18
HETATM   18  C   UNL     1       6.569  24.837  53.214  1.00  0.00     0.028 C 
HETATM   19  C   UNL     1       5.102  25.066  53.560  1.00  0.00     0.007 C 
ENDBRANCH  17  18
BRANCH  17  20
HETATM   20  C   UNL     1       7.887  24.429  55.312  1.00  0.00     0.127 A 
HETATM   21  N   UNL     1       7.862  23.113  55.214  1.00  0.00    -0.237 NA
HETATM   22  C   UNL     1       8.288  22.636  56.430  1.00  0.00     0.048 A 
HETATM   23  C   UNL     1       8.412  21.183  56.673  1.00  0.00     0.072 C 
HETATM   24  C   UNL     1       8.554  23.682  57.286  1.00  0.00     0.116 A 
HETATM   25  N   UNL     1       8.282  24.814  56.570  1.00  0.00    -0.351 N 
HETATM   26  H   UNL     1       8.335  25.770  56.897  1.00  0.00     0.166 HD
ENDBRANCH  17  20
ENDBRANCH   1  17
TORSDOF 5
ENDMDL
MODEL 8
REMARK VINA RESULT:      -7.4      3.142      5.188
REMARK  5 active torsions:
REMARK  status: ('A' for Active; 'I' for Inactive)
REMARK    1  A    between atoms: C_2  and  C_3 
REMARK    2  A    between atoms: C_3  and  N_4 
REMARK    3  A    between atoms: C_3  and  C_19 
REMARK       I    between atoms: N_4  and  C_5 
REMARK    4  A    between atoms: C_5  and  C_6 
REMARK    5  A    between atoms: C_7  and  C_8 
ROOT
HETATM    1  N   UNL     1       6.885  31.313  59.398  1.00  0.00    -0.345 N 
HETATM    2  C   UNL     1       6.096  31.712  58.348  1.00  0.00     0.255 C 
HETATM    3  O   UNL     1       6.082  32.869  57.937  1.00  0.00    -0.268 OA
HETATM    4  H   UNL     1       6.750  30.399  59.803  1.00  0.00     0.163 HD
ENDROOT
BRANCH   2   5
HETATM    5  C   UNL     1       5.301  30.653  57.746  1.00  0.00     0.075 A 
HETATM    6  C   UNL     1       5.754  29.550  56.955  1.00  0.00     0.076 A 
HETATM    7  N   UNL     1       4.728  28.776  56.568  1.00  0.00    -0.178 NA
HETATM    8  N   UNL     1       3.647  29.365  57.088  1.00  0.00    -0.288 N 
HETATM    9  H   UNL     1       2.741  28.945  56.907  1.00  0.00     0.188 HD
HETATM   10  C   UNL     1       3.931  30.483  57.811  1.00  0.00     0.128 A 
BRANCH   6  11
HETATM   11  C   UNL     1       7.182  29.211  56.575  1.00  0.00     0.040 C 
HETATM   12  C   UNL     1       7.893  28.384  57.664  1.00  0.00     0.011 C 
HETATM   13  C   UNL     1       7.474  26.917  57.666  1.00  0.00     0.001 C 
HETATM   14  C   UNL     1       7.706  26.275  56.303  1.00  0.00     0.000 C 
HETATM   15  C   UNL     1       6.993  27.040  55.194  1.00  0.00     0.001 C 
HETATM   16  C   UNL     1       7.344  28.531  55.200  1.00  0.00     0.011 C 
ENDBRANCH   6  11
ENDBRANCH   2   5
BRANCH   1  17
HETATM   17  C   UNL     1       7.707  32.250  60.140  1.00  0.00     0.154 C 
BRANCH  17  18
HETATM   18  C   UNL     1       9.168  31.784  60.187  1.00  0.00     0.028 C 
HETATM   19  C   UNL     1       9.768  31.624  58.795  1.00  0.00     0.007 C 
ENDBRANCH  17  18
BRANCH  17  20
HETATM   20  C   UNL     1       7.114  32.359  61.513  1.00  0.00     0.127 A 
HETATM   21  N   UNL     1       7.627  32.960  62.570  1.00  0.00    -0.237 NA
HETATM   22  C   UNL     1       6.717  32.784  63.584  1.00  0.00     0.048 A 
HETATM   23  C   UNL     1       6.955  33.358  64.925  1.00  0.00     0.072 C 
HETATM   24  C   UNL     1       5.644  32.043  63.138  1.00  0.00     0.116 A 
HETATM   25  N   UNL     1       5.915  31.767  61.827  1.00  0.00    -0.351 N 
HETATM   26  H   UNL     1       5.356  31.210  61.193  1.00  0.00     0.166 HD
ENDBRANCH  17  20
ENDBRANCH   1  17
TORSDOF 5
ENDMDL
MODEL 9
REMARK VINA RESULT:      -7.4      1.791      3.196
REMARK  5 active torsions:
REMARK  status: ('A' for Active; 'I' for Inactive)
REMARK    1  A    between atoms: C_2  and  C_3 
REMARK    2  A    between atoms: C_3  and  N_4 
REMARK    3  A    between atoms: C_3  and  C_19 
REMARK       I    between atoms: N_4  and  C_5 
REMARK    4  A    between atoms: C_5  and  C_6 
REMARK    5  A    between atoms: C_7  and  C_8 
ROOT
HETATM    1  N   UNL     1       5.294  29.231  55.880  1.00  0.00    -0.345 N 
HETATM    2  C   UNL     1       4.909  27.938  55.628  1.00  0.00     0.255 C 
HETATM    3  O   UNL     1       4.636  27.145  56.525  1.00  0.00    -0.268 OA
HETATM    4  H   UNL     1       5.661  29.797  55.130  1.00  0.00     0.163 HD
ENDROOT
BRANCH   2   5
HETATM    5  C   UNL     1       4.828  27.590  54.218  1.00  0.00     0.075 A 
HETATM    6  C   UNL     1       5.799  26.906  53.420  1.00  0.00     0.076 A 
HETATM    7  N   UNL     1       5.375  26.766  52.154  1.00  0.00    -0.178 NA
HETATM    8  N   UNL     1       4.171  27.347  52.135  1.00  0.00    -0.288 N 
HETATM    9  H   UNL     1       3.664  27.366  51.256  1.00  0.00     0.188 HD
HETATM   10  C   UNL     1       3.789  27.846  53.343  1.00  0.00     0.128 A 
BRANCH   6  11
HETATM   11  C   UNL     1       7.140  26.359  53.866  1.00  0.00     0.040 C 
HETATM   12  C   UNL     1       6.990  25.191  54.860  1.00  0.00     0.011 C 
HETATM   13  C   UNL     1       6.604  23.879  54.183  1.00  0.00     0.001 C 
HETATM   14  C   UNL     1       7.606  23.502  53.098  1.00  0.00     0.000 C 
HETATM   15  C   UNL     1       7.764  24.615  52.070  1.00  0.00     0.001 C 
HETATM   16  C   UNL     1       8.093  25.963  52.719  1.00  0.00     0.011 C 
ENDBRANCH   6  11
ENDBRANCH   2   5
BRANCH   1  17
HETATM   17  C   UNL     1       5.469  29.731  57.231  1.00  0.00     0.154 C 
BRANCH  17  18
HETATM   18  C   UNL     1       4.808  31.105  57.400  1.00  0.00     0.028 C 
HETATM   19  C   UNL     1       3.736  31.099  58.483  1.00  0.00     0.007 C 
ENDBRANCH  17  18
BRANCH  17  20
HETATM   20  C   UNL     1       6.946  29.790  57.487  1.00  0.00     0.127 A 
HETATM   21  N   UNL     1       7.924  29.569  56.630  1.00  0.00    -0.237 NA
HETATM   22  C   UNL     1       9.090  29.739  57.337  1.00  0.00     0.048 A 
HETATM   23  C   UNL     1      10.406  29.594  56.676  1.00  0.00     0.072 C 
HETATM   24  C   UNL     1       8.811  30.046  58.650  1.00  0.00     0.116 A 
HETATM   25  N   UNL     1       7.448  30.061  58.737  1.00  0.00    -0.351 N 
HETATM   26  H   UNL     1       6.890  30.220  59.567  1.00  0.00     0.166 HD
ENDBRANCH  17  20
ENDBRANCH   1  17
TORSDOF 5
ENDMDL
MODEL 10
REMARK VINA RESULT:      -7.4      2.516      3.701
REMARK  5 active torsions:
REMARK  status: ('A' for Active; 'I' for Inactive)
REMARK    1  A    between atoms: C_2  and  C_3 
REMARK    2  A    between atoms: C_3  and  N_4 
REMARK    3  A    between atoms: C_3  and  C_19 
REMARK       I    between atoms: N_4  and  C_5 
REMARK    4  A    between atoms: C_5  and  C_6 
REMARK    5  A    between atoms: C_7  and  C_8 
ROOT
HETATM    1  N   UNL     1       7.476  26.623  57.214  1.00  0.00    -0.345 N 
HETATM    2  C   UNL     1       6.731  25.470  57.209  1.00  0.00     0.255 C 
HETATM    3  O   UNL     1       5.554  25.445  57.555  1.00  0.00    -0.268 OA
HETATM    4  H   UNL     1       8.475  26.572  57.077  1.00  0.00     0.163 HD
ENDROOT
BRANCH   2   5
HETATM    5  C   UNL     1       7.438  24.290  56.738  1.00  0.00     0.075 A 
HETATM    6  C   UNL     1       7.313  23.631  55.474  1.00  0.00     0.076 A 
HETATM    7  N   UNL     1       8.126  22.566  55.397  1.00  0.00    -0.178 NA
HETATM    8  N   UNL     1       8.753  22.536  56.578  1.00  0.00    -0.288 N 
HETATM    9  H   UNL     1       9.421  21.790  56.745  1.00  0.00     0.188 HD
HETATM   10  C   UNL     1       8.390  23.548  57.413  1.00  0.00     0.128 A 
BRANCH   6  11
HETATM   11  C   UNL     1       6.423  24.026  54.311  1.00  0.00     0.040 C 
HETATM   12  C   UNL     1       6.332  25.555  54.143  1.00  0.00     0.011 C 
HETATM   13  C   UNL     1       7.571  26.156  53.486  1.00  0.00     0.001 C 
HETATM   14  C   UNL     1       7.849  25.507  52.134  1.00  0.00     0.000 C 
HETATM   15  C   UNL     1       7.981  23.994  52.256  1.00  0.00     0.001 C 
HETATM   16  C   UNL     1       6.781  23.362  52.966  1.00  0.00     0.011 C 
ENDBRANCH   6  11
ENDBRANCH   2   5
BRANCH   1  17
HETATM   17  C   UNL     1       6.940  27.882  57.696  1.00  0.00     0.154 C 
BRANCH  17  18
HETATM   18  C   UNL     1       5.852  28.414  56.753  1.00  0.00     0.028 C 
HETATM   19  C   UNL     1       6.438  29.050  55.498  1.00  0.00     0.007 C 
ENDBRANCH  17  18
BRANCH  17  20
HETATM   20  C   UNL     1       8.092  28.834  57.807  1.00  0.00     0.127 A 
HETATM   21  N   UNL     1       8.149  29.958  58.496  1.00  0.00    -0.237 NA
HETATM   22  C   UNL     1       9.405  30.471  58.280  1.00  0.00     0.048 A 
HETATM   23  C   UNL     1       9.832  31.730  58.928  1.00  0.00     0.072 C 
HETATM   24  C   UNL     1      10.113  29.654  57.426  1.00  0.00     0.116 A 
HETATM   25  N   UNL     1       9.265  28.627  57.121  1.00  0.00    -0.351 N 
HETATM   26  H   UNL     1       9.442  27.855  56.490  1.00  0.00     0.166 HD
ENDBRANCH  17  20
ENDBRANCH   1  17
TORSDOF 5
ENDMDL
