MODEL 1
REMARK VINA RESULT:      -8.1      0.000      0.000
REMARK  2 active torsions:
REMARK  status: ('A' for Active; 'I' for Inactive)
REMARK    1  A    between atoms: C_8  and  S_9 
REMARK    2  A    between atoms: S_9  and  C_10 
ROOT
HETATM    1  C   UNL     1       8.396  20.304  56.053  1.00  0.00     0.002 A 
HETATM    2  C   UNL     1       7.917  21.597  56.276  1.00  0.00     0.034 A 
HETATM    3  C   UNL     1       7.754  22.495  55.229  1.00  0.00     0.087 A 
HETATM    4  C   UNL     1       8.080  22.082  53.908  1.00  0.00     0.087 A 
HETATM    5  N   UNL     1       7.941  22.914  52.856  1.00  0.00    -0.231 NA
HETATM    6  C   UNL     1       7.464  24.152  53.103  1.00  0.00     0.167 A 
HETATM    7 CL   UNL     1       7.361  25.139  51.710  1.00  0.00    -0.059 Cl
HETATM    8  C   UNL     1       7.150  24.538  54.384  1.00  0.00     0.193 A 
HETATM    9  N   UNL     1       7.295  23.741  55.482  1.00  0.00    -0.232 NA
HETATM   10  C   UNL     1       8.556  20.794  53.702  1.00  0.00     0.034 A 
HETATM   11  C   UNL     1       8.716  19.903  54.763  1.00  0.00     0.002 A 
ENDROOT
BRANCH   8  12
HETATM   12  S   UNL     1       6.551  26.151  54.734  1.00  0.00     0.201 S 
HETATM   13  O   UNL     1       7.621  27.096  54.438  1.00  0.00    -0.221 OA
HETATM   14  O   UNL     1       5.239  26.282  54.139  1.00  0.00    -0.221 OA
BRANCH  12  15
HETATM   15  C   UNL     1       6.337  26.235  56.510  1.00  0.00     0.141 C 
HETATM   16  C   UNL     1       7.525  26.962  57.139  1.00  0.00     0.252 C 
HETATM   17  N   UNL     1       7.463  28.441  56.868  1.00  0.00    -0.074 N 
HETATM   18  H   UNL     1       7.556  28.589  55.840  1.00  0.00     0.277 HD
HETATM   19  H   UNL     1       8.281  28.913  57.279  1.00  0.00     0.277 HD
HETATM   20  C   UNL     1       6.214  29.107  57.334  1.00  0.00     0.232 C 
HETATM   21  C   UNL     1       5.019  28.434  56.680  1.00  0.00     0.029 C 
HETATM   22  C   UNL     1       5.017  26.920  56.905  1.00  0.00     0.024 C 
ENDBRANCH  12  15
ENDBRANCH   8  12
TORSDOF 2
ENDMDL
MODEL 2
REMARK VINA RESULT:      -8.0      2.652      3.412
REMARK  2 active torsions:
REMARK  status: ('A' for Active; 'I' for Inactive)
REMARK    1  A    between atoms: C_8  and  S_9 
REMARK    2  A    between atoms: S_9  and  C_10 
ROOT
HETATM    1  C   UNL     1       8.338  20.420  53.424  1.00  0.00     0.002 A 
HETATM    2  C   UNL     1       7.793  21.692  53.238  1.00  0.00     0.034 A 
HETATM    3  C   UNL     1       7.798  22.634  54.259  1.00  0.00     0.087 A 
HETATM    4  C   UNL     1       8.376  22.291  55.512  1.00  0.00     0.087 A 
HETATM    5  N   UNL     1       8.408  23.167  56.536  1.00  0.00    -0.231 NA
HETATM    6  C   UNL     1       7.884  24.392  56.321  1.00  0.00     0.167 A 
HETATM    7 CL   UNL     1       7.940  25.414  57.691  1.00  0.00    -0.059 Cl
HETATM    8  C   UNL     1       7.330  24.712  55.104  1.00  0.00     0.193 A 
HETATM    9  N   UNL     1       7.254  23.854  54.047  1.00  0.00    -0.232 NA
HETATM   10  C   UNL     1       8.915  21.022  55.681  1.00  0.00     0.034 A 
HETATM   11  C   UNL     1       8.900  20.085  54.648  1.00  0.00     0.002 A 
ENDROOT
BRANCH   8  12
HETATM   12  S   UNL     1       6.620  26.291  54.807  1.00  0.00     0.201 S 
HETATM   13  O   UNL     1       5.361  26.355  55.540  1.00  0.00    -0.221 OA
HETATM   14  O   UNL     1       7.652  27.289  54.985  1.00  0.00    -0.221 OA
BRANCH  12  15
HETATM   15  C   UNL     1       6.151  26.315  53.079  1.00  0.00     0.141 C 
HETATM   16  C   UNL     1       4.700  25.862  52.931  1.00  0.00     0.252 C 
HETATM   17  N   UNL     1       3.746  26.925  53.404  1.00  0.00    -0.074 N 
HETATM   18  H   UNL     1       3.894  27.065  54.427  1.00  0.00     0.277 HD
HETATM   19  H   UNL     1       2.774  26.596  53.318  1.00  0.00     0.277 HD
HETATM   20  C   UNL     1       3.891  28.241  52.718  1.00  0.00     0.232 C 
HETATM   21  C   UNL     1       5.316  28.739  52.896  1.00  0.00     0.029 C 
HETATM   22  C   UNL     1       6.349  27.703  52.444  1.00  0.00     0.024 C 
ENDBRANCH  12  15
ENDBRANCH   8  12
TORSDOF 2
ENDMDL
MODEL 3
REMARK VINA RESULT:      -7.6      2.049      2.617
REMARK  2 active torsions:
REMARK  status: ('A' for Active; 'I' for Inactive)
REMARK    1  A    between atoms: C_8  and  S_9 
REMARK    2  A    between atoms: S_9  and  C_10 
ROOT
HETATM    1  C   UNL     1       8.170  20.712  52.927  1.00  0.00     0.002 A 
HETATM    2  C   UNL     1       7.521  21.932  53.124  1.00  0.00     0.034 A 
HETATM    3  C   UNL     1       7.688  22.656  54.298  1.00  0.00     0.087 A 
HETATM    4  C   UNL     1       8.542  22.140  55.311  1.00  0.00     0.087 A 
HETATM    5  N   UNL     1       8.740  22.802  56.469  1.00  0.00    -0.231 NA
HETATM    6  C   UNL     1       8.108  23.984  56.624  1.00  0.00     0.167 A 
HETATM    7 CL   UNL     1       8.395  24.724  58.139  1.00  0.00    -0.059 Cl
HETATM    8  C   UNL     1       7.287  24.474  55.636  1.00  0.00     0.193 A 
HETATM    9  N   UNL     1       7.038  23.831  54.459  1.00  0.00    -0.232 NA
HETATM   10  C   UNL     1       9.181  20.925  55.101  1.00  0.00     0.034 A 
HETATM   11  C   UNL     1       9.002  20.208  53.918  1.00  0.00     0.002 A 
ENDROOT
BRANCH   8  12
HETATM   12  S   UNL     1       6.435  25.997  55.823  1.00  0.00     0.201 S 
HETATM   13  O   UNL     1       5.889  26.363  54.522  1.00  0.00    -0.221 OA
HETATM   14  O   UNL     1       5.594  25.900  56.997  1.00  0.00    -0.221 OA
BRANCH  12  15
HETATM   15  C   UNL     1       7.684  27.234  56.166  1.00  0.00     0.141 C 
HETATM   16  C   UNL     1       7.766  28.221  55.002  1.00  0.00     0.252 C 
HETATM   17  N   UNL     1       6.579  29.145  54.987  1.00  0.00    -0.074 N 
HETATM   18  H   UNL     1       5.723  28.575  54.811  1.00  0.00     0.277 HD
HETATM   19  H   UNL     1       6.638  29.788  54.184  1.00  0.00     0.277 HD
HETATM   20  C   UNL     1       6.382  29.926  56.241  1.00  0.00     0.232 C 
HETATM   21  C   UNL     1       6.244  28.963  57.409  1.00  0.00     0.029 C 
HETATM   22  C   UNL     1       7.415  27.980  57.485  1.00  0.00     0.024 C 
ENDBRANCH  12  15
ENDBRANCH   8  12
TORSDOF 2
ENDMDL
MODEL 4
REMARK VINA RESULT:      -7.5      1.980      2.587
REMARK  2 active torsions:
REMARK  status: ('A' for Active; 'I' for Inactive)
REMARK    1  A    between atoms: C_8  and  S_9 
REMARK    2  A    between atoms: S_9  and  C_10 
ROOT
HETATM    1  C   UNL     1       8.196  20.734  53.158  1.00  0.00     0.002 A 
HETATM    2  C   UNL     1       7.871  22.087  53.033  1.00  0.00     0.034 A 
HETATM    3  C   UNL     1       7.875  22.933  54.135  1.00  0.00     0.087 A 
HETATM    4  C   UNL     1       8.223  22.406  55.408  1.00  0.00     0.087 A 
HETATM    5  N   UNL     1       8.243  23.183  56.510  1.00  0.00    -0.231 NA
HETATM    6  C   UNL     1       7.936  24.488  56.354  1.00  0.00     0.167 A 
HETATM    7 CL   UNL     1       7.954  25.377  57.815  1.00  0.00    -0.059 Cl
HETATM    8  C   UNL     1       7.604  24.986  55.117  1.00  0.00     0.193 A 
HETATM    9  N   UNL     1       7.547  24.235  53.979  1.00  0.00    -0.232 NA
HETATM   10  C   UNL     1       8.544  21.059  55.517  1.00  0.00     0.034 A 
HETATM   11  C   UNL     1       8.533  20.221  54.402  1.00  0.00     0.002 A 
ENDROOT
BRANCH   8  12
HETATM   12  S   UNL     1       7.176  26.674  54.893  1.00  0.00     0.201 S 
HETATM   13  O   UNL     1       7.778  27.433  55.982  1.00  0.00    -0.221 OA
HETATM   14  O   UNL     1       7.416  27.018  53.508  1.00  0.00    -0.221 OA
BRANCH  12  15
HETATM   15  C   UNL     1       5.411  26.788  55.169  1.00  0.00     0.141 C 
HETATM   16  C   UNL     1       5.141  27.286  56.588  1.00  0.00     0.252 C 
HETATM   17  N   UNL     1       5.451  28.752  56.719  1.00  0.00    -0.074 N 
HETATM   18  H   UNL     1       6.475  28.885  56.564  1.00  0.00     0.277 HD
HETATM   19  H   UNL     1       5.286  29.067  57.685  1.00  0.00     0.277 HD
HETATM   20  C   UNL     1       4.708  29.632  55.772  1.00  0.00     0.232 C 
HETATM   21  C   UNL     1       5.003  29.188  54.348  1.00  0.00     0.029 C 
HETATM   22  C   UNL     1       4.719  27.699  54.140  1.00  0.00     0.024 C 
ENDBRANCH  12  15
ENDBRANCH   8  12
TORSDOF 2
ENDMDL
MODEL 5
REMARK VINA RESULT:      -7.1      4.607      5.960
REMARK  2 active torsions:
REMARK  status: ('A' for Active; 'I' for Inactive)
REMARK    1  A    between atoms: C_8  and  S_9 
REMARK    2  A    between atoms: S_9  and  C_10 
ROOT
HETATM    1  C   UNL     1       8.084  23.123  53.191  1.00  0.00     0.002 A 
HETATM    2  C   UNL     1       7.608  24.086  52.299  1.00  0.00     0.034 A 
HETATM    3  C   UNL     1       6.813  25.140  52.734  1.00  0.00     0.087 A 
HETATM    4  C   UNL     1       6.488  25.234  54.115  1.00  0.00     0.087 A 
HETATM    5  N   UNL     1       5.720  26.236  54.590  1.00  0.00    -0.231 NA
HETATM    6  C   UNL     1       5.286  27.158  53.706  1.00  0.00     0.167 A 
HETATM    7 CL   UNL     1       4.292  28.363  54.401  1.00  0.00    -0.059 Cl
HETATM    8  C   UNL     1       5.610  27.057  52.374  1.00  0.00     0.193 A 
HETATM    9  N   UNL     1       6.362  26.051  51.843  1.00  0.00    -0.232 NA
HETATM   10  C   UNL     1       6.969  24.268  54.990  1.00  0.00     0.034 A 
HETATM   11  C   UNL     1       7.764  23.215  54.538  1.00  0.00     0.002 A 
ENDROOT
BRANCH   8  12
HETATM   12  S   UNL     1       5.036  28.229  51.199  1.00  0.00     0.201 S 
HETATM   13  O   UNL     1       3.594  28.356  51.367  1.00  0.00    -0.221 OA
HETATM   14  O   UNL     1       5.909  29.382  51.252  1.00  0.00    -0.221 OA
BRANCH  12  15
HETATM   15  C   UNL     1       5.251  27.476  49.589  1.00  0.00     0.141 C 
HETATM   16  C   UNL     1       4.051  26.583  49.273  1.00  0.00     0.252 C 
HETATM   17  N   UNL     1       2.835  27.404  48.941  1.00  0.00    -0.074 N 
HETATM   18  H   UNL     1       2.565  27.947  49.790  1.00  0.00     0.277 HD
HETATM   19  H   UNL     1       2.031  26.789  48.752  1.00  0.00     0.277 HD
HETATM   20  C   UNL     1       3.015  28.353  47.806  1.00  0.00     0.232 C 
HETATM   21  C   UNL     1       4.172  29.288  48.121  1.00  0.00     0.029 C 
HETATM   22  C   UNL     1       5.449  28.523  48.480  1.00  0.00     0.024 C 
ENDBRANCH  12  15
ENDBRANCH   8  12
TORSDOF 2
ENDMDL
MODEL 6
REMARK VINA RESULT:      -7.0      3.580      7.987
REMARK  2 active torsions:
REMARK  status: ('A' for Active; 'I' for Inactive)
REMARK    1  A    between atoms: C_8  and  S_9 
REMARK    2  A    between atoms: S_9  and  C_10 
ROOT
HETATM    1  C   UNL     1       9.006  31.658  61.818  1.00  0.00     0.002 A 
HETATM    2  C   UNL     1       9.108  30.593  60.921  1.00  0.00     0.034 A 
HETATM    3  C   UNL     1       8.269  30.499  59.817  1.00  0.00     0.087 A 
HETATM    4  C   UNL     1       7.295  31.512  59.602  1.00  0.00     0.087 A 
HETATM    5  N   UNL     1       6.456  31.470  58.547  1.00  0.00    -0.231 NA
HETATM    6  C   UNL     1       6.588  30.435  57.691  1.00  0.00     0.167 A 
HETATM    7 CL   UNL     1       5.455  30.454  56.411  1.00  0.00    -0.059 Cl
HETATM    8  C   UNL     1       7.535  29.463  57.909  1.00  0.00     0.193 A 
HETATM    9  N   UNL     1       8.390  29.450  58.972  1.00  0.00    -0.232 NA
HETATM   10  C   UNL     1       7.206  32.565  60.504  1.00  0.00     0.034 A 
HETATM   11  C   UNL     1       8.053  32.645  61.609  1.00  0.00     0.002 A 
ENDROOT
BRANCH   8  12
HETATM   12  S   UNL     1       7.710  28.093  56.824  1.00  0.00     0.201 S 
HETATM   13  O   UNL     1       7.719  28.607  55.460  1.00  0.00    -0.221 OA
HETATM   14  O   UNL     1       8.778  27.256  57.325  1.00  0.00    -0.221 OA
BRANCH  12  15
HETATM   15  C   UNL     1       6.192  27.151  56.954  1.00  0.00     0.141 C 
HETATM   16  C   UNL     1       5.434  27.208  55.629  1.00  0.00     0.252 C 
HETATM   17  N   UNL     1       6.101  26.356  54.583  1.00  0.00    -0.074 N 
HETATM   18  H   UNL     1       7.043  26.758  54.385  1.00  0.00     0.277 HD
HETATM   19  H   UNL     1       5.591  26.423  53.691  1.00  0.00     0.277 HD
HETATM   20  C   UNL     1       6.265  24.923  54.960  1.00  0.00     0.232 C 
HETATM   21  C   UNL     1       7.064  24.838  56.250  1.00  0.00     0.029 C 
HETATM   22  C   UNL     1       6.450  25.690  57.364  1.00  0.00     0.024 C 
ENDBRANCH  12  15
ENDBRANCH   8  12
TORSDOF 2
ENDMDL
MODEL 7
REMARK VINA RESULT:      -6.9      2.762      6.651
REMARK  2 active torsions:
REMARK  status: ('A' for Active; 'I' for Inactive)
REMARK    1  A    between atoms: C_8  and  S_9 
REMARK    2  A    between atoms: S_9  and  C_10 
ROOT
HETATM    1  C   UNL     1      10.722  30.424  57.394  1.00  0.00     0.002 A 
HETATM    2  C   UNL     1      10.204  29.656  56.348  1.00  0.00     0.034 A 
HETATM    3  C   UNL     1       8.854  29.337  56.289  1.00  0.00     0.087 A 
HETATM    4  C   UNL     1       7.988  29.808  57.313  1.00  0.00     0.087 A 
HETATM    5  N   UNL     1       6.669  29.527  57.304  1.00  0.00    -0.231 NA
HETATM    6  C   UNL     1       6.197  28.795  56.274  1.00  0.00     0.167 A 
HETATM    7 CL   UNL     1       4.523  28.463  56.375  1.00  0.00    -0.059 Cl
HETATM    8  C   UNL     1       7.045  28.348  55.288  1.00  0.00     0.193 A 
HETATM    9  N   UNL     1       8.388  28.586  55.266  1.00  0.00    -0.232 NA
HETATM   10  C   UNL     1       8.517  30.570  58.347  1.00  0.00     0.034 A 
HETATM   11  C   UNL     1       9.875  30.881  58.395  1.00  0.00     0.002 A 
ENDROOT
BRANCH   8  12
HETATM   12  S   UNL     1       6.460  27.372  53.950  1.00  0.00     0.201 S 
HETATM   13  O   UNL     1       5.397  28.118  53.289  1.00  0.00    -0.221 OA
HETATM   14  O   UNL     1       7.607  26.879  53.219  1.00  0.00    -0.221 OA
BRANCH  12  15
HETATM   15  C   UNL     1       5.647  25.953  54.679  1.00  0.00     0.141 C 
HETATM   16  C   UNL     1       5.178  25.004  53.577  1.00  0.00     0.252 C 
HETATM   17  N   UNL     1       6.338  24.267  52.963  1.00  0.00    -0.074 N 
HETATM   18  H   UNL     1       6.954  24.964  52.490  1.00  0.00     0.277 HD
HETATM   19  H   UNL     1       6.008  23.650  52.208  1.00  0.00     0.277 HD
HETATM   20  C   UNL     1       7.159  23.483  53.929  1.00  0.00     0.232 C 
HETATM   21  C   UNL     1       7.681  24.417  55.009  1.00  0.00     0.029 C 
HETATM   22  C   UNL     1       6.555  25.212  55.676  1.00  0.00     0.024 C 
ENDBRANCH  12  15
ENDBRANCH   8  12
TORSDOF 2
ENDMDL
MODEL 8
REMARK VINA RESULT:      -6.8      9.642     11.765
REMARK  2 active torsions:
REMARK  status: ('A' for Active; 'I' for Inactive)
REMARK    1  A    between atoms: C_8  and  S_9 
REMARK    2  A    between atoms: S_9  and  C_10 
ROOT
HETATM    1  C   UNL     1       8.643  31.205  58.818  1.00  0.00     0.002 A 
HETATM    2  C   UNL     1       7.405  31.566  59.352  1.00  0.00     0.034 A 
HETATM    3  C   UNL     1       7.282  31.976  60.674  1.00  0.00     0.087 A 
HETATM    4  C   UNL     1       8.445  32.031  61.490  1.00  0.00     0.087 A 
HETATM    5  N   UNL     1       8.382  32.421  62.779  1.00  0.00    -0.231 NA
HETATM    6  C   UNL     1       7.172  32.776  63.262  1.00  0.00     0.167 A 
HETATM    7 CL   UNL     1       7.194  33.219  64.913  1.00  0.00    -0.059 Cl
HETATM    8  C   UNL     1       6.056  32.722  62.461  1.00  0.00     0.193 A 
HETATM    9  N   UNL     1       6.066  32.312  61.160  1.00  0.00    -0.232 NA
HETATM   10  C   UNL     1       9.669  31.668  60.945  1.00  0.00     0.034 A 
HETATM   11  C   UNL     1       9.777  31.256  59.617  1.00  0.00     0.002 A 
ENDROOT
BRANCH   8  12
HETATM   12  S   UNL     1       4.468  33.154  63.072  1.00  0.00     0.201 S 
HETATM   13  O   UNL     1       3.505  32.219  62.505  1.00  0.00    -0.221 OA
HETATM   14  O   UNL     1       4.576  33.357  64.500  1.00  0.00    -0.221 OA
BRANCH  12  15
HETATM   15  C   UNL     1       4.061  34.738  62.341  1.00  0.00     0.141 C 
HETATM   16  C   UNL     1       2.965  35.418  63.159  1.00  0.00     0.252 C 
HETATM   17  N   UNL     1       3.503  35.940  64.464  1.00  0.00    -0.074 N 
HETATM   18  H   UNL     1       3.818  35.127  65.037  1.00  0.00     0.277 HD
HETATM   19  H   UNL     1       2.748  36.375  65.012  1.00  0.00     0.277 HD
HETATM   20  C   UNL     1       4.639  36.896  64.330  1.00  0.00     0.232 C 
HETATM   21  C   UNL     1       5.766  36.223  63.563  1.00  0.00     0.029 C 
HETATM   22  C   UNL     1       5.291  35.655  62.223  1.00  0.00     0.024 C 
ENDBRANCH  12  15
ENDBRANCH   8  12
TORSDOF 2
ENDMDL
MODEL 9
REMARK VINA RESULT:      -6.7      7.315      9.184
REMARK  2 active torsions:
REMARK  status: ('A' for Active; 'I' for Inactive)
REMARK    1  A    between atoms: C_8  and  S_9 
REMARK    2  A    between atoms: S_9  and  C_10 
ROOT
HETATM    1  C   UNL     1       7.134  29.435  56.046  1.00  0.00     0.002 A 
HETATM    2  C   UNL     1       6.498  30.235  56.997  1.00  0.00     0.034 A 
HETATM    3  C   UNL     1       7.095  30.512  58.221  1.00  0.00     0.087 A 
HETATM    4  C   UNL     1       8.379  29.971  58.500  1.00  0.00     0.087 A 
HETATM    5  N   UNL     1       9.003  30.207  59.672  1.00  0.00    -0.231 NA
HETATM    6  C   UNL     1       8.368  30.995  60.565  1.00  0.00     0.167 A 
HETATM    7 CL   UNL     1       9.225  31.203  62.030  1.00  0.00    -0.059 Cl
HETATM    8  C   UNL     1       7.128  31.515  60.282  1.00  0.00     0.193 A 
HETATM    9  N   UNL     1       6.447  31.285  59.122  1.00  0.00    -0.232 NA
HETATM   10  C   UNL     1       8.999  29.176  57.544  1.00  0.00     0.034 A 
HETATM   11  C   UNL     1       8.387  28.905  56.321  1.00  0.00     0.002 A 
ENDROOT
BRANCH   8  12
HETATM   12  S   UNL     1       6.270  32.522  61.437  1.00  0.00     0.201 S 
HETATM   13  O   UNL     1       5.829  31.665  62.530  1.00  0.00    -0.221 OA
HETATM   14  O   UNL     1       7.064  33.707  61.675  1.00  0.00    -0.221 OA
BRANCH  12  15
HETATM   15  C   UNL     1       4.763  33.048  60.625  1.00  0.00     0.141 C 
HETATM   16  C   UNL     1       3.591  32.196  61.109  1.00  0.00     0.252 C 
HETATM   17  N   UNL     1       3.193  32.566  62.513  1.00  0.00    -0.074 N 
HETATM   18  H   UNL     1       3.988  32.338  63.149  1.00  0.00     0.277 HD
HETATM   19  H   UNL     1       2.417  31.968  62.832  1.00  0.00     0.277 HD
HETATM   20  C   UNL     1       2.830  34.000  62.699  1.00  0.00     0.232 C 
HETATM   21  C   UNL     1       4.002  34.868  62.272  1.00  0.00     0.029 C 
HETATM   22  C   UNL     1       4.472  34.542  60.852  1.00  0.00     0.024 C 
ENDBRANCH  12  15
ENDBRANCH   8  12
TORSDOF 2
ENDMDL
MODEL 10
REMARK VINA RESULT:      -6.6      3.976      6.521
REMARK  2 active torsions:
REMARK  status: ('A' for Active; 'I' for Inactive)
REMARK    1  A    between atoms: C_8  and  S_9 
REMARK    2  A    between atoms: S_9  and  C_10 
ROOT
HETATM    1  C   UNL     1      10.533  30.585  57.360  1.00  0.00     0.002 A 
HETATM    2  C   UNL     1      10.163  29.694  56.350  1.00  0.00     0.034 A 
HETATM    3  C   UNL     1       9.005  28.934  56.448  1.00  0.00     0.087 A 
HETATM    4  C   UNL     1       8.184  29.074  57.600  1.00  0.00     0.087 A 
HETATM    5  N   UNL     1       7.049  28.359  57.747  1.00  0.00    -0.231 NA
HETATM    6  C   UNL     1       6.713  27.518  56.747  1.00  0.00     0.167 A 
HETATM    7 CL   UNL     1       5.280  26.634  57.046  1.00  0.00    -0.059 Cl
HETATM    8  C   UNL     1       7.514  27.394  55.637  1.00  0.00     0.193 A 
HETATM    9  N   UNL     1       8.681  28.076  55.455  1.00  0.00    -0.232 NA
HETATM   10  C   UNL     1       8.565  29.963  58.597  1.00  0.00     0.034 A 
HETATM   11  C   UNL     1       9.732  30.718  58.485  1.00  0.00     0.002 A 
ENDROOT
BRANCH   8  12
HETATM   12  S   UNL     1       7.111  26.287  54.335  1.00  0.00     0.201 S 
HETATM   13  O   UNL     1       7.948  26.625  53.190  1.00  0.00    -0.221 OA
HETATM   14  O   UNL     1       7.077  24.947  54.878  1.00  0.00    -0.221 OA
BRANCH  12  15
HETATM   15  C   UNL     1       5.444  26.694  53.825  1.00  0.00     0.141 C 
HETATM   16  C   UNL     1       5.486  27.709  52.684  1.00  0.00     0.252 C 
HETATM   17  N   UNL     1       5.928  27.065  51.398  1.00  0.00    -0.074 N 
HETATM   18  H   UNL     1       6.911  26.736  51.518  1.00  0.00     0.277 HD
HETATM   19  H   UNL     1       5.973  27.766  50.645  1.00  0.00     0.277 HD
HETATM   20  C   UNL     1       5.091  25.912  50.959  1.00  0.00     0.232 C 
HETATM   21  C   UNL     1       5.076  24.863  52.060  1.00  0.00     0.029 C 
HETATM   22  C   UNL     1       4.644  25.448  53.407  1.00  0.00     0.024 C 
ENDBRANCH  12  15
ENDBRANCH   8  12
TORSDOF 2
ENDMDL
