MODEL 1
REMARK VINA RESULT:      -7.7      0.000      0.000
REMARK  3 active torsions:
REMARK  status: ('A' for Active; 'I' for Inactive)
REMARK    1  A    between atoms: C_2  and  C_3 
REMARK    2  A    between atoms: C_7  and  N_8 
REMARK       I    between atoms: N_8  and  C_9 
REMARK    3  A    between atoms: C_9  and  C_10 
ROOT
HETATM    1  N   UNL     1       7.825  26.732  56.832  1.00  0.00    -0.311 N 
HETATM    2  C   UNL     1       6.495  26.439  56.573  1.00  0.00     0.234 C 
HETATM    3  O   UNL     1       5.559  27.182  56.870  1.00  0.00    -0.272 OA
HETATM    4  H   UNL     1       8.553  26.079  56.560  1.00  0.00     0.170 HD
ENDROOT
BRANCH   2   5
HETATM    5  C   UNL     1       6.238  25.094  55.911  1.00  0.00     0.138 C 
HETATM    6  C   UNL     1       6.444  25.084  54.439  1.00  0.00    -0.008 A 
HETATM    7  C   UNL     1       7.620  24.407  54.148  1.00  0.00     0.076 A 
HETATM    8  C   UNL     1       5.689  25.664  53.434  1.00  0.00     0.030 A 
HETATM    9  C   UNL     1       8.094  24.285  52.859  1.00  0.00     0.039 A 
HETATM   10  O   UNL     1       8.268  23.931  55.256  1.00  0.00    -0.349 OA
HETATM   11  C   UNL     1       7.342  24.858  51.830  1.00  0.00     0.022 A 
HETATM   12  C   UNL     1       6.150  25.540  52.120  1.00  0.00     0.011 A 
HETATM   13 BR   UNL     1       5.156  26.317  50.710  1.00  0.00    -0.051 Br
HETATM   14  C   UNL     1       7.286  24.054  56.319  1.00  0.00     0.194 C 
ENDBRANCH   2   5
BRANCH   1  15
HETATM   15  C   UNL     1       8.212  27.921  57.415  1.00  0.00     0.126 A 
HETATM   16  N   UNL     1       7.570  28.517  58.469  1.00  0.00    -0.262 N 
HETATM   17  N   UNL     1       8.132  29.676  58.857  1.00  0.00    -0.178 NA
HETATM   18  H   UNL     1       6.744  28.170  58.951  1.00  0.00     0.191 HD
HETATM   19  C   UNL     1       9.166  29.826  58.020  1.00  0.00     0.058 A 
HETATM   20  C   UNL     1       9.261  28.750  57.102  1.00  0.00     0.079 A 
BRANCH  19  21
HETATM   21  C   UNL     1      10.051  31.023  58.121  1.00  0.00     0.056 C 
HETATM   22  C   UNL     1       9.708  31.894  59.320  1.00  0.00     0.011 C 
ENDBRANCH  19  21
ENDBRANCH   1  15
TORSDOF 3
ENDMDL
MODEL 2
REMARK VINA RESULT:      -7.7      3.522      6.900
REMARK  3 active torsions:
REMARK  status: ('A' for Active; 'I' for Inactive)
REMARK    1  A    between atoms: C_2  and  C_3 
REMARK    2  A    between atoms: C_7  and  N_8 
REMARK       I    between atoms: N_8  and  C_9 
REMARK    3  A    between atoms: C_9  and  C_10 
ROOT
HETATM    1  N   UNL     1       7.769  25.722  55.417  1.00  0.00    -0.311 N 
HETATM    2  C   UNL     1       7.100  26.558  56.297  1.00  0.00     0.234 C 
HETATM    3  O   UNL     1       6.531  26.166  57.317  1.00  0.00    -0.272 OA
HETATM    4  H   UNL     1       8.222  26.107  54.594  1.00  0.00     0.170 HD
ENDROOT
BRANCH   2   5
HETATM    5  C   UNL     1       7.076  28.029  55.914  1.00  0.00     0.138 C 
HETATM    6  C   UNL     1       8.009  28.884  56.694  1.00  0.00    -0.008 A 
HETATM    7  C   UNL     1       9.084  29.236  55.891  1.00  0.00     0.076 A 
HETATM    8  C   UNL     1       7.949  29.283  58.018  1.00  0.00     0.030 A 
HETATM    9  C   UNL     1      10.139  29.987  56.367  1.00  0.00     0.039 A 
HETATM   10  O   UNL     1       9.011  28.727  54.622  1.00  0.00    -0.349 OA
HETATM   11  C   UNL     1      10.093  30.405  57.700  1.00  0.00     0.022 A 
HETATM   12  C   UNL     1       9.004  30.053  58.515  1.00  0.00     0.011 A 
HETATM   13 BR   UNL     1       8.972  30.621  60.319  1.00  0.00    -0.051 Br
HETATM   14  C   UNL     1       7.643  28.256  54.509  1.00  0.00     0.194 C 
ENDBRANCH   2   5
BRANCH   1  15
HETATM   15  C   UNL     1       7.886  24.366  55.641  1.00  0.00     0.126 A 
HETATM   16  N   UNL     1       8.374  23.806  56.793  1.00  0.00    -0.262 N 
HETATM   17  N   UNL     1       8.397  22.461  56.770  1.00  0.00    -0.178 NA
HETATM   18  H   UNL     1       8.706  24.303  57.616  1.00  0.00     0.191 HD
HETATM   19  C   UNL     1       7.909  22.153  55.562  1.00  0.00     0.058 A 
HETATM   20  C   UNL     1       7.570  23.312  54.820  1.00  0.00     0.079 A 
BRANCH  19  21
HETATM   21  C   UNL     1       7.784  20.727  55.140  1.00  0.00     0.056 C 
HETATM   22  C   UNL     1       8.044  20.541  53.653  1.00  0.00     0.011 C 
ENDBRANCH  19  21
ENDBRANCH   1  15
TORSDOF 3
ENDMDL
MODEL 3
REMARK VINA RESULT:      -7.7      4.468      6.877
REMARK  3 active torsions:
REMARK  status: ('A' for Active; 'I' for Inactive)
REMARK    1  A    between atoms: C_2  and  C_3 
REMARK    2  A    between atoms: C_7  and  N_8 
REMARK       I    between atoms: N_8  and  C_9 
REMARK    3  A    between atoms: C_9  and  C_10 
ROOT
HETATM    1  N   UNL     1       5.020  25.873  52.226  1.00  0.00    -0.311 N 
HETATM    2  C   UNL     1       6.069  25.933  53.130  1.00  0.00     0.234 C 
HETATM    3  O   UNL     1       7.079  26.619  52.966  1.00  0.00    -0.272 OA
HETATM    4  H   UNL     1       4.212  25.290  52.420  1.00  0.00     0.170 HD
ENDROOT
BRANCH   2   5
HETATM    5  C   UNL     1       5.922  25.054  54.363  1.00  0.00     0.138 C 
HETATM    6  C   UNL     1       6.967  24.006  54.499  1.00  0.00    -0.008 A 
HETATM    7  C   UNL     1       7.846  24.366  55.510  1.00  0.00     0.076 A 
HETATM    8  C   UNL     1       7.164  22.849  53.764  1.00  0.00     0.030 A 
HETATM    9  C   UNL     1       8.951  23.604  55.826  1.00  0.00     0.039 A 
HETATM   10  O   UNL     1       7.533  25.556  56.111  1.00  0.00    -0.349 OA
HETATM   11  C   UNL     1       9.163  22.429  55.099  1.00  0.00     0.022 A 
HETATM   12  C   UNL     1       8.273  22.059  54.077  1.00  0.00     0.011 A 
HETATM   13 BR   UNL     1       8.589  20.471  53.100  1.00  0.00    -0.051 Br
HETATM   14  C   UNL     1       6.185  25.840  55.652  1.00  0.00     0.194 C 
ENDBRANCH   2   5
BRANCH   1  15
HETATM   15  C   UNL     1       5.008  26.625  51.069  1.00  0.00     0.126 A 
HETATM   16  N   UNL     1       5.396  27.937  50.989  1.00  0.00    -0.262 N 
HETATM   17  N   UNL     1       5.287  28.456  49.752  1.00  0.00    -0.178 NA
HETATM   18  H   UNL     1       5.737  28.517  51.752  1.00  0.00     0.191 HD
HETATM   19  C   UNL     1       4.811  27.442  49.020  1.00  0.00     0.058 A 
HETATM   20  C   UNL     1       4.625  26.272  49.799  1.00  0.00     0.079 A 
BRANCH  19  21
HETATM   21  C   UNL     1       4.537  27.625  47.565  1.00  0.00     0.056 C 
HETATM   22  C   UNL     1       3.157  27.120  47.170  1.00  0.00     0.011 C 
ENDBRANCH  19  21
ENDBRANCH   1  15
TORSDOF 3
ENDMDL
MODEL 4
REMARK VINA RESULT:      -7.6      3.592      5.630
REMARK  3 active torsions:
REMARK  status: ('A' for Active; 'I' for Inactive)
REMARK    1  A    between atoms: C_2  and  C_3 
REMARK    2  A    between atoms: C_7  and  N_8 
REMARK       I    between atoms: N_8  and  C_9 
REMARK    3  A    between atoms: C_9  and  C_10 
ROOT
HETATM    1  N   UNL     1       8.847  30.325  60.380  1.00  0.00    -0.311 N 
HETATM    2  C   UNL     1       8.980  30.646  59.038  1.00  0.00     0.234 C 
HETATM    3  O   UNL     1       8.502  31.659  58.524  1.00  0.00    -0.272 OA
HETATM    4  H   UNL     1       9.267  29.475  60.744  1.00  0.00     0.170 HD
ENDROOT
BRANCH   2   5
HETATM    5  C   UNL     1       9.744  29.637  58.195  1.00  0.00     0.138 C 
HETATM    6  C   UNL     1       8.894  28.831  57.280  1.00  0.00    -0.008 A 
HETATM    7  C   UNL     1       9.083  29.269  55.977  1.00  0.00     0.076 A 
HETATM    8  C   UNL     1       7.988  27.825  57.567  1.00  0.00     0.030 A 
HETATM    9  C   UNL     1       8.381  28.736  54.916  1.00  0.00     0.039 A 
HETATM   10  O   UNL     1       9.981  30.297  55.869  1.00  0.00    -0.349 OA
HETATM   11  C   UNL     1       7.467  27.714  55.186  1.00  0.00     0.022 A 
HETATM   12  C   UNL     1       7.276  27.265  56.503  1.00  0.00     0.011 A 
HETATM   13 BR   UNL     1       6.024  25.889  56.843  1.00  0.00    -0.051 Br
HETATM   14  C   UNL     1      10.641  30.327  57.162  1.00  0.00     0.194 C 
ENDBRANCH   2   5
BRANCH   1  15
HETATM   15  C   UNL     1       8.191  31.151  61.268  1.00  0.00     0.126 A 
HETATM   16  N   UNL     1       6.924  31.641  61.087  1.00  0.00    -0.262 N 
HETATM   17  N   UNL     1       6.505  32.433  62.090  1.00  0.00    -0.178 NA
HETATM   18  H   UNL     1       6.313  31.464  60.293  1.00  0.00     0.191 HD
HETATM   19  C   UNL     1       7.540  32.451  62.938  1.00  0.00     0.058 A 
HETATM   20  C   UNL     1       8.617  31.659  62.470  1.00  0.00     0.079 A 
BRANCH  19  21
HETATM   21  C   UNL     1       7.469  33.247  64.198  1.00  0.00     0.056 C 
HETATM   22  C   UNL     1       6.427  34.354  64.123  1.00  0.00     0.011 C 
ENDBRANCH  19  21
ENDBRANCH   1  15
TORSDOF 3
ENDMDL
MODEL 5
REMARK VINA RESULT:      -7.4      4.458      7.562
REMARK  3 active torsions:
REMARK  status: ('A' for Active; 'I' for Inactive)
REMARK    1  A    between atoms: C_2  and  C_3 
REMARK    2  A    between atoms: C_7  and  N_8 
REMARK       I    between atoms: N_8  and  C_9 
REMARK    3  A    between atoms: C_9  and  C_10 
ROOT
HETATM    1  N   UNL     1       6.064  26.310  50.717  1.00  0.00    -0.311 N 
HETATM    2  C   UNL     1       5.976  25.548  51.871  1.00  0.00     0.234 C 
HETATM    3  O   UNL     1       4.911  25.192  52.379  1.00  0.00    -0.272 OA
HETATM    4  H   UNL     1       6.973  26.569  50.346  1.00  0.00     0.170 HD
ENDROOT
BRANCH   2   5
HETATM    5  C   UNL     1       7.303  25.188  52.521  1.00  0.00     0.138 C 
HETATM    6  C   UNL     1       7.306  25.283  54.005  1.00  0.00    -0.008 A 
HETATM    7  C   UNL     1       7.298  24.005  54.544  1.00  0.00     0.076 A 
HETATM    8  C   UNL     1       7.270  26.400  54.822  1.00  0.00     0.030 A 
HETATM    9  C   UNL     1       7.246  23.784  55.905  1.00  0.00     0.039 A 
HETATM   10  O   UNL     1       7.294  23.011  53.602  1.00  0.00    -0.349 OA
HETATM   11  C   UNL     1       7.216  24.900  56.746  1.00  0.00     0.022 A 
HETATM   12  C   UNL     1       7.229  26.195  56.204  1.00  0.00     0.011 A 
HETATM   13 BR   UNL     1       7.175  27.688  57.363  1.00  0.00    -0.051 Br
HETATM   14  C   UNL     1       7.622  23.697  52.365  1.00  0.00     0.194 C 
ENDBRANCH   2   5
BRANCH   1  15
HETATM   15  C   UNL     1       4.946  26.700  50.011  1.00  0.00     0.126 A 
HETATM   16  N   UNL     1       4.026  27.617  50.452  1.00  0.00    -0.262 N 
HETATM   17  N   UNL     1       3.017  27.825  49.587  1.00  0.00    -0.178 NA
HETATM   18  H   UNL     1       4.047  28.120  51.335  1.00  0.00     0.191 HD
HETATM   19  C   UNL     1       3.300  27.013  48.562  1.00  0.00     0.058 A 
HETATM   20  C   UNL     1       4.501  26.292  48.777  1.00  0.00     0.079 A 
BRANCH  19  21
HETATM   21  C   UNL     1       2.391  26.944  47.380  1.00  0.00     0.056 C 
HETATM   22  C   UNL     1       0.945  27.237  47.748  1.00  0.00     0.011 C 
ENDBRANCH  19  21
ENDBRANCH   1  15
TORSDOF 3
ENDMDL
MODEL 6
REMARK VINA RESULT:      -7.3      9.072     11.975
REMARK  3 active torsions:
REMARK  status: ('A' for Active; 'I' for Inactive)
REMARK    1  A    between atoms: C_2  and  C_3 
REMARK    2  A    between atoms: C_7  and  N_8 
REMARK       I    between atoms: N_8  and  C_9 
REMARK    3  A    between atoms: C_9  and  C_10 
ROOT
HETATM    1  N   UNL     1       5.880  34.818  65.890  1.00  0.00    -0.311 N 
HETATM    2  C   UNL     1       5.288  34.108  64.857  1.00  0.00     0.234 C 
HETATM    3  O   UNL     1       4.690  33.042  65.011  1.00  0.00    -0.272 OA
HETATM    4  H   UNL     1       6.357  35.693  65.698  1.00  0.00     0.170 HD
ENDROOT
BRANCH   2   5
HETATM    5  C   UNL     1       5.446  34.713  63.471  1.00  0.00     0.138 C 
HETATM    6  C   UNL     1       6.055  33.801  62.467  1.00  0.00    -0.008 A 
HETATM    7  C   UNL     1       5.072  33.368  61.588  1.00  0.00     0.076 A 
HETATM    8  C   UNL     1       7.358  33.345  62.358  1.00  0.00     0.030 A 
HETATM    9  C   UNL     1       5.338  32.467  60.579  1.00  0.00     0.039 A 
HETATM   10  O   UNL     1       3.831  33.880  61.858  1.00  0.00    -0.349 OA
HETATM   11  C   UNL     1       6.649  32.001  60.449  1.00  0.00     0.022 A 
HETATM   12  C   UNL     1       7.647  32.439  61.333  1.00  0.00     0.011 A 
HETATM   13 BR   UNL     1       9.411  31.783  61.144  1.00  0.00    -0.051 Br
HETATM   14  C   UNL     1       4.089  34.954  62.801  1.00  0.00     0.194 C 
ENDBRANCH   2   5
BRANCH   1  15
HETATM   15  C   UNL     1       5.808  34.398  67.201  1.00  0.00     0.126 A 
HETATM   16  N   UNL     1       4.702  33.828  67.777  1.00  0.00    -0.262 N 
HETATM   17  N   UNL     1       4.874  33.509  69.073  1.00  0.00    -0.178 NA
HETATM   18  H   UNL     1       3.810  33.642  67.325  1.00  0.00     0.191 HD
HETATM   19  C   UNL     1       6.129  33.891  69.333  1.00  0.00     0.058 A 
HETATM   20  C   UNL     1       6.758  34.449  68.192  1.00  0.00     0.079 A 
BRANCH  19  21
HETATM   21  C   UNL     1       6.705  33.713  70.698  1.00  0.00     0.056 C 
HETATM   22  C   UNL     1       8.152  34.175  70.779  1.00  0.00     0.011 C 
ENDBRANCH  19  21
ENDBRANCH   1  15
TORSDOF 3
ENDMDL
MODEL 7
REMARK VINA RESULT:      -7.2      3.056      4.238
REMARK  3 active torsions:
REMARK  status: ('A' for Active; 'I' for Inactive)
REMARK    1  A    between atoms: C_2  and  C_3 
REMARK    2  A    between atoms: C_7  and  N_8 
REMARK       I    between atoms: N_8  and  C_9 
REMARK    3  A    between atoms: C_9  and  C_10 
ROOT
HETATM    1  N   UNL     1       7.645  29.879  57.544  1.00  0.00    -0.311 N 
HETATM    2  C   UNL     1       8.222  29.365  56.393  1.00  0.00     0.234 C 
HETATM    3  O   UNL     1       9.408  29.516  56.094  1.00  0.00    -0.272 OA
HETATM    4  H   UNL     1       6.661  29.717  57.736  1.00  0.00     0.170 HD
ENDROOT
BRANCH   2   5
HETATM    5  C   UNL     1       7.282  28.605  55.471  1.00  0.00     0.138 C 
HETATM    6  C   UNL     1       6.951  27.230  55.928  1.00  0.00    -0.008 A 
HETATM    7  C   UNL     1       5.648  27.208  56.406  1.00  0.00     0.076 A 
HETATM    8  C   UNL     1       7.742  26.094  55.969  1.00  0.00     0.030 A 
HETATM    9  C   UNL     1       5.085  26.072  56.947  1.00  0.00     0.039 A 
HETATM   10  O   UNL     1       5.017  28.421  56.333  1.00  0.00    -0.349 OA
HETATM   11  C   UNL     1       5.866  24.914  56.990  1.00  0.00     0.022 A 
HETATM   12  C   UNL     1       7.184  24.930  56.504  1.00  0.00     0.011 A 
HETATM   13 BR   UNL     1       8.224  23.353  56.585  1.00  0.00    -0.051 Br
HETATM   14  C   UNL     1       5.876  29.215  55.471  1.00  0.00     0.194 C 
ENDBRANCH   2   5
BRANCH   1  15
HETATM   15  C   UNL     1       8.377  30.578  58.480  1.00  0.00     0.126 A 
HETATM   16  N   UNL     1       9.465  31.362  58.193  1.00  0.00    -0.262 N 
HETATM   17  N   UNL     1      10.016  31.936  59.277  1.00  0.00    -0.178 NA
HETATM   18  H   UNL     1       9.866  31.529  57.273  1.00  0.00     0.191 HD
HETATM   19  C   UNL     1       9.257  31.502  60.291  1.00  0.00     0.058 A 
HETATM   20  C   UNL     1       8.215  30.654  59.842  1.00  0.00     0.079 A 
BRANCH  19  21
HETATM   21  C   UNL     1       9.561  31.917  61.691  1.00  0.00     0.056 C 
HETATM   22  C   UNL     1       8.382  31.693  62.627  1.00  0.00     0.011 C 
ENDBRANCH  19  21
ENDBRANCH   1  15
TORSDOF 3
ENDMDL
MODEL 8
REMARK VINA RESULT:      -7.1      2.139      2.329
REMARK  3 active torsions:
REMARK  status: ('A' for Active; 'I' for Inactive)
REMARK    1  A    between atoms: C_2  and  C_3 
REMARK    2  A    between atoms: C_7  and  N_8 
REMARK       I    between atoms: N_8  and  C_9 
REMARK    3  A    between atoms: C_9  and  C_10 
ROOT
HETATM    1  N   UNL     1       6.489  26.940  57.223  1.00  0.00    -0.311 N 
HETATM    2  C   UNL     1       7.577  26.082  57.209  1.00  0.00     0.234 C 
HETATM    3  O   UNL     1       8.734  26.436  57.440  1.00  0.00    -0.272 OA
HETATM    4  H   UNL     1       5.557  26.586  57.027  1.00  0.00     0.170 HD
ENDROOT
BRANCH   2   5
HETATM    5  C   UNL     1       7.267  24.637  56.851  1.00  0.00     0.138 C 
HETATM    6  C   UNL     1       7.113  24.384  55.394  1.00  0.00    -0.008 A 
HETATM    7  C   UNL     1       8.230  23.706  54.928  1.00  0.00     0.076 A 
HETATM    8  C   UNL     1       6.098  24.761  54.530  1.00  0.00     0.030 A 
HETATM    9  C   UNL     1       8.388  23.383  53.596  1.00  0.00     0.039 A 
HETATM   10  O   UNL     1       9.159  23.445  55.900  1.00  0.00    -0.349 OA
HETATM   11  C   UNL     1       7.371  23.748  52.711  1.00  0.00     0.022 A 
HETATM   12  C   UNL     1       6.237  24.432  53.179  1.00  0.00     0.011 A 
HETATM   13 BR   UNL     1       4.880  24.926  51.958  1.00  0.00    -0.051 Br
HETATM   14  C   UNL     1       8.455  23.715  57.141  1.00  0.00     0.194 C 
ENDBRANCH   2   5
BRANCH   1  15
HETATM   15  C   UNL     1       6.615  28.276  57.544  1.00  0.00     0.126 A 
HETATM   16  N   UNL     1       7.693  28.824  58.189  1.00  0.00    -0.262 N 
HETATM   17  N   UNL     1       7.580  30.148  58.397  1.00  0.00    -0.178 NA
HETATM   18  H   UNL     1       8.525  28.332  58.506  1.00  0.00     0.191 HD
HETATM   19  C   UNL     1       6.388  30.454  57.871  1.00  0.00     0.058 A 
HETATM   20  C   UNL     1       5.747  29.316  57.320  1.00  0.00     0.079 A 
BRANCH  19  21
HETATM   21  C   UNL     1       5.882  31.857  57.915  1.00  0.00     0.056 C 
HETATM   22  C   UNL     1       4.362  31.922  57.902  1.00  0.00     0.011 C 
ENDBRANCH  19  21
ENDBRANCH   1  15
TORSDOF 3
ENDMDL
MODEL 9
REMARK VINA RESULT:      -7.1     10.266     13.205
REMARK  3 active torsions:
REMARK  status: ('A' for Active; 'I' for Inactive)
REMARK    1  A    between atoms: C_2  and  C_3 
REMARK    2  A    between atoms: C_7  and  N_8 
REMARK       I    between atoms: N_8  and  C_9 
REMARK    3  A    between atoms: C_9  and  C_10 
ROOT
HETATM    1  N   UNL     1       6.585  34.701  67.177  1.00  0.00    -0.311 N 
HETATM    2  C   UNL     1       5.343  34.481  66.602  1.00  0.00     0.234 C 
HETATM    3  O   UNL     1       4.414  33.907  67.173  1.00  0.00    -0.272 OA
HETATM    4  H   UNL     1       7.310  35.184  66.655  1.00  0.00     0.170 HD
ENDROOT
BRANCH   2   5
HETATM    5  C   UNL     1       5.187  34.973  65.172  1.00  0.00     0.138 C 
HETATM    6  C   UNL     1       5.605  33.993  64.135  1.00  0.00    -0.008 A 
HETATM    7  C   UNL     1       4.477  33.470  63.519  1.00  0.00     0.076 A 
HETATM    8  C   UNL     1       6.872  33.553  63.790  1.00  0.00     0.030 A 
HETATM    9  C   UNL     1       4.559  32.494  62.549  1.00  0.00     0.039 A 
HETATM   10  O   UNL     1       3.302  33.980  64.004  1.00  0.00    -0.349 OA
HETATM   11  C   UNL     1       5.829  32.043  62.182  1.00  0.00     0.022 A 
HETATM   12  C   UNL     1       6.974  32.572  62.801  1.00  0.00     0.011 A 
HETATM   13 BR   UNL     1       8.682  31.935  62.295  1.00  0.00    -0.051 Br
HETATM   14  C   UNL     1       3.713  35.132  64.786  1.00  0.00     0.194 C 
ENDBRANCH   2   5
BRANCH   1  15
HETATM   15  C   UNL     1       6.868  34.322  68.472  1.00  0.00     0.126 A 
HETATM   16  N   UNL     1       6.230  33.313  69.147  1.00  0.00    -0.262 N 
HETATM   17  N   UNL     1       6.679  33.138  70.403  1.00  0.00    -0.178 NA
HETATM   18  H   UNL     1       5.483  32.723  68.790  1.00  0.00     0.191 HD
HETATM   19  C   UNL     1       7.633  34.067  70.535  1.00  0.00     0.058 A 
HETATM   20  C   UNL     1       7.793  34.830  69.352  1.00  0.00     0.079 A 
BRANCH  19  21
HETATM   21  C   UNL     1       8.378  34.205  71.820  1.00  0.00     0.056 C 
HETATM   22  C   UNL     1       8.256  32.966  72.694  1.00  0.00     0.011 C 
ENDBRANCH  19  21
ENDBRANCH   1  15
TORSDOF 3
ENDMDL
MODEL 10
REMARK VINA RESULT:      -7.0      5.186      7.215
REMARK  3 active torsions:
REMARK  status: ('A' for Active; 'I' for Inactive)
REMARK    1  A    between atoms: C_2  and  C_3 
REMARK    2  A    between atoms: C_7  and  N_8 
REMARK       I    between atoms: N_8  and  C_9 
REMARK    3  A    between atoms: C_9  and  C_10 
ROOT
HETATM    1  N   UNL     1       6.175  26.294  51.282  1.00  0.00    -0.311 N 
HETATM    2  C   UNL     1       5.683  27.502  51.750  1.00  0.00     0.234 C 
HETATM    3  O   UNL     1       5.524  27.762  52.944  1.00  0.00    -0.272 OA
HETATM    4  H   UNL     1       6.286  26.141  50.284  1.00  0.00     0.170 HD
ENDROOT
BRANCH   2   5
HETATM    5  C   UNL     1       5.305  28.514  50.680  1.00  0.00     0.138 C 
HETATM    6  C   UNL     1       4.141  28.119  49.844  1.00  0.00    -0.008 A 
HETATM    7  C   UNL     1       3.039  28.880  50.205  1.00  0.00     0.076 A 
HETATM    8  C   UNL     1       4.039  27.136  48.874  1.00  0.00     0.030 A 
HETATM    9  C   UNL     1       1.800  28.694  49.630  1.00  0.00     0.039 A 
HETATM   10  O   UNL     1       3.297  29.778  51.206  1.00  0.00    -0.349 OA
HETATM   11  C   UNL     1       1.679  27.710  48.644  1.00  0.00     0.022 A 
HETATM   12  C   UNL     1       2.793  26.940  48.272  1.00  0.00     0.011 A 
HETATM   13 BR   UNL     1       2.600  25.607  46.945  1.00  0.00    -0.051 Br
HETATM   14  C   UNL     1       4.747  29.803  51.293  1.00  0.00     0.194 C 
ENDBRANCH   2   5
BRANCH   1  15
HETATM   15  C   UNL     1       6.572  25.285  52.135  1.00  0.00     0.126 A 
HETATM   16  N   UNL     1       5.883  24.895  53.254  1.00  0.00    -0.262 N 
HETATM   17  N   UNL     1       6.476  23.894  53.929  1.00  0.00    -0.178 NA
HETATM   18  H   UNL     1       5.008  25.285  53.595  1.00  0.00     0.191 HD
HETATM   19  C   UNL     1       7.582  23.639  53.220  1.00  0.00     0.058 A 
HETATM   20  C   UNL     1       7.684  24.481  52.084  1.00  0.00     0.079 A 
BRANCH  19  21
HETATM   21  C   UNL     1       8.533  22.578  53.660  1.00  0.00     0.056 C 
HETATM   22  C   UNL     1       8.174  21.211  53.096  1.00  0.00     0.011 C 
ENDBRANCH  19  21
ENDBRANCH   1  15
TORSDOF 3
ENDMDL
