MODEL 1
REMARK VINA RESULT:      -8.5      0.000      0.000
REMARK  4 active torsions:
REMARK  status: ('A' for Active; 'I' for Inactive)
REMARK    1  A    between atoms: C_9  and  C_10 
REMARK    2  A    between atoms: C_20  and  C_21 
REMARK       I    between atoms: C_21  and  N_22 
REMARK    3  A    between atoms: N_22  and  C_23 
REMARK    4  A    between atoms: C_24  and  O_25 
ROOT
HETATM    1  C   UNL     1       9.142  29.706  57.821  1.00  0.00     0.070 C 
HETATM    2  C   UNL     1       7.688  29.875  57.447  1.00  0.00     0.037 A 
HETATM    3  N   UNL     1       7.264  29.133  56.351  1.00  0.00    -0.192 N 
HETATM    4  C   UNL     1       6.001  29.136  55.892  1.00  0.00     0.725 A 
HETATM    5  N   UNL     1       5.068  29.921  56.511  1.00  0.00    -0.084 N 
HETATM    6  N   UNL     1       3.832  29.685  56.017  1.00  0.00    -0.149 NA
HETATM    7  C   UNL     1       4.122  28.837  55.024  1.00  0.00     0.275 A 
HETATM    8  N   UNL     1       5.437  28.465  54.921  1.00  0.00    -0.054 NA
HETATM    9  C   UNL     1       5.344  30.755  57.687  1.00  0.00     0.203 A 
HETATM   10  C   UNL     1       6.810  30.666  58.117  1.00  0.00     0.062 A 
HETATM   11  H   UNL     1       7.954  28.555  55.876  1.00  0.00     0.184 HD
ENDROOT
BRANCH  10  12
HETATM   12  C   UNL     1       7.294  31.554  59.223  1.00  0.00     0.256 C 
HETATM   13  N   UNL     1       6.634  31.388  60.422  1.00  0.00    -0.321 N 
HETATM   14  H   UNL     1       5.763  30.880  60.416  1.00  0.00     0.169 HD
HETATM   15  O   UNL     1       8.156  32.386  58.971  1.00  0.00    -0.267 OA
BRANCH  13  16
HETATM   16  C   UNL     1       6.894  32.074  61.636  1.00  0.00     0.068 A 
HETATM   17  C   UNL     1       7.753  31.648  62.660  1.00  0.00     0.095 A 
HETATM   18  C   UNL     1       7.972  32.451  63.786  1.00  0.00     0.039 A 
HETATM   19  C   UNL     1       7.290  33.655  63.937  1.00  0.00     0.003 A 
HETATM   20  C   UNL     1       6.387  34.061  62.960  1.00  0.00     0.002 A 
HETATM   21  C   UNL     1       6.186  33.274  61.822  1.00  0.00     0.032 A 
BRANCH  17  22
HETATM   22  O   UNL     1       8.405  30.444  62.656  1.00  0.00    -0.354 OA
HETATM   23  C   UNL     1       9.593  30.520  61.870  1.00  0.00     0.210 C 
ENDBRANCH  17  22
ENDBRANCH  13  16
ENDBRANCH  10  12
BRANCH   9  24
HETATM   24  C   UNL     1       4.836  32.182  57.455  1.00  0.00    -0.017 A 
HETATM   25  C   UNL     1       4.026  32.865  58.418  1.00  0.00    -0.017 A 
HETATM   26  C   UNL     1       3.655  34.211  58.159  1.00  0.00    -0.025 A 
HETATM   27  C   UNL     1       3.546  32.291  59.623  1.00  0.00     0.013 A 
HETATM   28  C   UNL     1       2.879  34.926  59.087  1.00  0.00     0.012 A 
HETATM   29  C   UNL     1       4.050  34.835  56.970  1.00  0.00     0.012 A 
HETATM   30  C   UNL     1       2.442  34.334  60.268  1.00  0.00     0.001 A 
HETATM   31  C   UNL     1       2.770  33.014  60.534  1.00  0.00     0.001 A 
HETATM   32  C   UNL     1       4.798  34.152  56.019  1.00  0.00     0.002 A 
HETATM   33  C   UNL     1       5.181  32.838  56.253  1.00  0.00     0.010 A 
ENDBRANCH   9  24
TORSDOF 4
ENDMDL
MODEL 2
REMARK VINA RESULT:      -8.4      4.391      7.758
REMARK  4 active torsions:
REMARK  status: ('A' for Active; 'I' for Inactive)
REMARK    1  A    between atoms: C_9  and  C_10 
REMARK    2  A    between atoms: C_20  and  C_21 
REMARK       I    between atoms: C_21  and  N_22 
REMARK    3  A    between atoms: N_22  and  C_23 
REMARK    4  A    between atoms: C_24  and  O_25 
ROOT
HETATM    1  C   UNL     1       4.910  24.632  51.911  1.00  0.00     0.070 C 
HETATM    2  C   UNL     1       4.919  26.082  52.337  1.00  0.00     0.037 A 
HETATM    3  N   UNL     1       4.641  27.000  51.331  1.00  0.00    -0.192 N 
HETATM    4  C   UNL     1       4.578  28.327  51.530  1.00  0.00     0.725 A 
HETATM    5  N   UNL     1       4.817  28.827  52.780  1.00  0.00    -0.084 N 
HETATM    6  N   UNL     1       4.564  30.154  52.829  1.00  0.00    -0.149 NA
HETATM    7  C   UNL     1       4.295  30.400  51.542  1.00  0.00     0.275 A 
HETATM    8  N   UNL     1       4.281  29.307  50.716  1.00  0.00    -0.054 NA
HETATM    9  C   UNL     1       5.113  27.998  53.955  1.00  0.00     0.203 A 
HETATM   10  C   UNL     1       5.153  26.508  53.605  1.00  0.00     0.062 A 
HETATM   11  H   UNL     1       4.473  26.639  50.395  1.00  0.00     0.184 HD
ENDROOT
BRANCH  10  12
HETATM   12  C   UNL     1       5.569  25.528  54.660  1.00  0.00     0.256 C 
HETATM   13  N   UNL     1       6.742  24.856  54.386  1.00  0.00    -0.321 N 
HETATM   14  H   UNL     1       7.099  24.891  53.443  1.00  0.00     0.169 HD
HETATM   15  O   UNL     1       4.826  25.345  55.615  1.00  0.00    -0.267 OA
BRANCH  13  16
HETATM   16  C   UNL     1       7.380  23.894  55.209  1.00  0.00     0.068 A 
HETATM   17  C   UNL     1       8.138  24.160  56.359  1.00  0.00     0.095 A 
HETATM   18  C   UNL     1       8.666  23.111  57.123  1.00  0.00     0.039 A 
HETATM   19  C   UNL     1       8.500  21.790  56.717  1.00  0.00     0.003 A 
HETATM   20  C   UNL     1       7.805  21.513  55.545  1.00  0.00     0.002 A 
HETATM   21  C   UNL     1       7.254  22.557  54.794  1.00  0.00     0.032 A 
BRANCH  17  22
HETATM   22  O   UNL     1       8.437  25.421  56.800  1.00  0.00    -0.354 OA
HETATM   23  C   UNL     1       7.509  25.835  57.801  1.00  0.00     0.210 C 
ENDBRANCH  17  22
ENDBRANCH  13  16
ENDBRANCH  10  12
BRANCH   9  24
HETATM   24  C   UNL     1       6.366  28.516  54.668  1.00  0.00    -0.017 A 
HETATM   25  C   UNL     1       6.291  29.261  55.888  1.00  0.00    -0.017 A 
HETATM   26  C   UNL     1       7.502  29.645  56.523  1.00  0.00    -0.025 A 
HETATM   27  C   UNL     1       5.085  29.663  56.517  1.00  0.00     0.013 A 
HETATM   28  C   UNL     1       7.475  30.359  57.734  1.00  0.00     0.012 A 
HETATM   29  C   UNL     1       8.735  29.326  55.943  1.00  0.00     0.012 A 
HETATM   30  C   UNL     1       6.271  30.720  58.330  1.00  0.00     0.001 A 
HETATM   31  C   UNL     1       5.076  30.378  57.719  1.00  0.00     0.001 A 
HETATM   32  C   UNL     1       8.801  28.643  54.734  1.00  0.00     0.002 A 
HETATM   33  C   UNL     1       7.630  28.249  54.099  1.00  0.00     0.010 A 
ENDBRANCH   9  24
TORSDOF 4
ENDMDL
MODEL 3
REMARK VINA RESULT:      -8.1      3.648      7.274
REMARK  4 active torsions:
REMARK  status: ('A' for Active; 'I' for Inactive)
REMARK    1  A    between atoms: C_9  and  C_10 
REMARK    2  A    between atoms: C_20  and  C_21 
REMARK       I    between atoms: C_21  and  N_22 
REMARK    3  A    between atoms: N_22  and  C_23 
REMARK    4  A    between atoms: C_24  and  O_25 
ROOT
HETATM    1  C   UNL     1       3.948  27.612  53.671  1.00  0.00     0.070 C 
HETATM    2  C   UNL     1       4.453  28.761  54.512  1.00  0.00     0.037 A 
HETATM    3  N   UNL     1       4.149  30.029  54.032  1.00  0.00    -0.192 N 
HETATM    4  C   UNL     1       4.491  31.166  54.661  1.00  0.00     0.725 A 
HETATM    5  N   UNL     1       5.196  31.096  55.830  1.00  0.00    -0.084 N 
HETATM    6  N   UNL     1       5.320  32.317  56.396  1.00  0.00    -0.149 NA
HETATM    7  C   UNL     1       4.771  33.084  55.448  1.00  0.00     0.275 A 
HETATM    8  N   UNL     1       4.240  32.418  54.375  1.00  0.00    -0.054 NA
HETATM    9  C   UNL     1       5.587  29.839  56.481  1.00  0.00     0.203 A 
HETATM   10  C   UNL     1       5.139  28.617  55.676  1.00  0.00     0.062 A 
HETATM   11  H   UNL     1       3.635  30.093  53.156  1.00  0.00     0.184 HD
ENDROOT
BRANCH  10  12
HETATM   12  C   UNL     1       5.568  27.255  56.129  1.00  0.00     0.256 C 
HETATM   13  N   UNL     1       6.580  26.694  55.378  1.00  0.00    -0.321 N 
HETATM   14  H   UNL     1       6.792  27.109  54.484  1.00  0.00     0.169 HD
HETATM   15  O   UNL     1       4.959  26.725  57.049  1.00  0.00    -0.267 OA
BRANCH  13  16
HETATM   16  C   UNL     1       7.194  25.433  55.589  1.00  0.00     0.068 A 
HETATM   17  C   UNL     1       7.002  24.279  54.815  1.00  0.00     0.095 A 
HETATM   18  C   UNL     1       7.718  23.108  55.092  1.00  0.00     0.039 A 
HETATM   19  C   UNL     1       8.585  23.052  56.180  1.00  0.00     0.003 A 
HETATM   20  C   UNL     1       8.738  24.169  56.995  1.00  0.00     0.002 A 
HETATM   21  C   UNL     1       8.044  25.348  56.705  1.00  0.00     0.032 A 
BRANCH  17  22
HETATM   22  O   UNL     1       6.111  24.196  53.779  1.00  0.00    -0.354 OA
HETATM   23  C   UNL     1       6.760  24.462  52.537  1.00  0.00     0.210 C 
ENDBRANCH  17  22
ENDBRANCH  13  16
ENDBRANCH  10  12
BRANCH   9  24
HETATM   24  C   UNL     1       7.081  29.862  56.822  1.00  0.00    -0.017 A 
HETATM   25  C   UNL     1       7.570  30.409  58.051  1.00  0.00    -0.017 A 
HETATM   26  C   UNL     1       8.961  30.328  58.323  1.00  0.00    -0.025 A 
HETATM   27  C   UNL     1       6.765  31.047  59.029  1.00  0.00     0.013 A 
HETATM   28  C   UNL     1       9.482  30.833  59.526  1.00  0.00     0.012 A 
HETATM   29  C   UNL     1       9.831  29.753  57.388  1.00  0.00     0.012 A 
HETATM   30  C   UNL     1       8.658  31.437  60.471  1.00  0.00     0.001 A 
HETATM   31  C   UNL     1       7.300  31.550  60.219  1.00  0.00     0.001 A 
HETATM   32  C   UNL     1       9.356  29.265  56.176  1.00  0.00     0.002 A 
HETATM   33  C   UNL     1       7.997  29.325  55.892  1.00  0.00     0.010 A 
ENDBRANCH   9  24
TORSDOF 4
ENDMDL
MODEL 4
REMARK VINA RESULT:      -8.1      2.279      5.630
REMARK  4 active torsions:
REMARK  status: ('A' for Active; 'I' for Inactive)
REMARK    1  A    between atoms: C_9  and  C_10 
REMARK    2  A    between atoms: C_20  and  C_21 
REMARK       I    between atoms: C_21  and  N_22 
REMARK    3  A    between atoms: N_22  and  C_23 
REMARK    4  A    between atoms: C_24  and  O_25 
ROOT
HETATM    1  C   UNL     1       7.836  31.194  62.507  1.00  0.00     0.070 C 
HETATM    2  C   UNL     1       6.630  31.942  61.990  1.00  0.00     0.037 A 
HETATM    3  N   UNL     1       5.622  32.163  62.921  1.00  0.00    -0.192 N 
HETATM    4  C   UNL     1       4.490  32.835  62.650  1.00  0.00     0.725 A 
HETATM    5  N   UNL     1       4.288  33.319  61.387  1.00  0.00    -0.084 N 
HETATM    6  N   UNL     1       3.179  34.089  61.334  1.00  0.00    -0.149 NA
HETATM    7  C   UNL     1       2.704  33.920  62.573  1.00  0.00     0.275 A 
HETATM    8  N   UNL     1       3.483  33.169  63.414  1.00  0.00    -0.054 NA
HETATM    9  C   UNL     1       5.254  33.184  60.290  1.00  0.00     0.203 A 
HETATM   10  C   UNL     1       6.501  32.408  60.720  1.00  0.00     0.062 A 
HETATM   11  H   UNL     1       5.758  31.797  63.860  1.00  0.00     0.184 HD
ENDROOT
BRANCH  10  12
HETATM   12  C   UNL     1       7.532  32.066  59.689  1.00  0.00     0.256 C 
HETATM   13  N   UNL     1       7.399  30.807  59.140  1.00  0.00    -0.321 N 
HETATM   14  H   UNL     1       6.796  30.148  59.609  1.00  0.00     0.169 HD
HETATM   15  O   UNL     1       8.432  32.867  59.472  1.00  0.00    -0.267 OA
BRANCH  13  16
HETATM   16  C   UNL     1       8.215  30.229  58.135  1.00  0.00     0.068 A 
HETATM   17  C   UNL     1       7.765  29.584  56.973  1.00  0.00     0.095 A 
HETATM   18  C   UNL     1       8.677  29.108  56.023  1.00  0.00     0.039 A 
HETATM   19  C   UNL     1      10.047  29.213  56.247  1.00  0.00     0.003 A 
HETATM   20  C   UNL     1      10.509  29.794  57.424  1.00  0.00     0.002 A 
HETATM   21  C   UNL     1       9.600  30.293  58.362  1.00  0.00     0.032 A 
BRANCH  17  22
HETATM   22  O   UNL     1       6.445  29.349  56.694  1.00  0.00    -0.354 OA
HETATM   23  C   UNL     1       6.060  28.052  57.144  1.00  0.00     0.210 C 
ENDBRANCH  17  22
ENDBRANCH  13  16
ENDBRANCH  10  12
BRANCH   9  24
HETATM   24  C   UNL     1       4.562  32.630  59.039  1.00  0.00    -0.017 A 
HETATM   25  C   UNL     1       4.441  33.398  57.837  1.00  0.00    -0.017 A 
HETATM   26  C   UNL     1       3.849  32.787  56.700  1.00  0.00    -0.025 A 
HETATM   27  C   UNL     1       4.860  34.745  57.692  1.00  0.00     0.013 A 
HETATM   28  C   UNL     1       3.729  33.496  55.493  1.00  0.00     0.012 A 
HETATM   29  C   UNL     1       3.367  31.474  56.775  1.00  0.00     0.012 A 
HETATM   30  C   UNL     1       4.169  34.811  55.383  1.00  0.00     0.001 A 
HETATM   31  C   UNL     1       4.729  35.439  56.485  1.00  0.00     0.001 A 
HETATM   32  C   UNL     1       3.446  30.751  57.958  1.00  0.00     0.002 A 
HETATM   33  C   UNL     1       4.030  31.323  59.081  1.00  0.00     0.010 A 
ENDBRANCH   9  24
TORSDOF 4
ENDMDL
MODEL 5
REMARK VINA RESULT:      -8.0      3.629      8.426
REMARK  4 active torsions:
REMARK  status: ('A' for Active; 'I' for Inactive)
REMARK    1  A    between atoms: C_9  and  C_10 
REMARK    2  A    between atoms: C_20  and  C_21 
REMARK       I    between atoms: C_21  and  N_22 
REMARK    3  A    between atoms: N_22  and  C_23 
REMARK    4  A    between atoms: C_24  and  O_25 
ROOT
HETATM    1  C   UNL     1       3.923  31.803  53.576  1.00  0.00     0.070 C 
HETATM    2  C   UNL     1       4.439  31.539  54.972  1.00  0.00     0.037 A 
HETATM    3  N   UNL     1       4.623  32.667  55.762  1.00  0.00    -0.192 N 
HETATM    4  C   UNL     1       5.048  32.624  57.036  1.00  0.00     0.725 A 
HETATM    5  N   UNL     1       5.342  31.414  57.601  1.00  0.00    -0.084 N 
HETATM    6  N   UNL     1       5.605  31.545  58.920  1.00  0.00    -0.149 NA
HETATM    7  C   UNL     1       5.570  32.877  59.046  1.00  0.00     0.275 A 
HETATM    8  N   UNL     1       5.220  33.574  57.919  1.00  0.00    -0.054 NA
HETATM    9  C   UNL     1       5.192  30.127  56.912  1.00  0.00     0.203 A 
HETATM   10  C   UNL     1       4.699  30.303  55.474  1.00  0.00     0.062 A 
HETATM   11  H   UNL     1       4.418  33.573  55.347  1.00  0.00     0.184 HD
ENDROOT
BRANCH  10  12
HETATM   12  C   UNL     1       4.614  29.101  54.584  1.00  0.00     0.256 C 
HETATM   13  N   UNL     1       5.783  28.798  53.918  1.00  0.00    -0.321 N 
HETATM   14  H   UNL     1       6.508  29.499  53.890  1.00  0.00     0.169 HD
HETATM   15  O   UNL     1       3.533  28.541  54.457  1.00  0.00    -0.267 OA
BRANCH  13  16
HETATM   16  C   UNL     1       5.998  27.710  53.034  1.00  0.00     0.068 A 
HETATM   17  C   UNL     1       5.389  27.528  51.783  1.00  0.00     0.095 A 
HETATM   18  C   UNL     1       5.736  26.438  50.974  1.00  0.00     0.039 A 
HETATM   19  C   UNL     1       6.642  25.484  51.427  1.00  0.00     0.003 A 
HETATM   20  C   UNL     1       7.207  25.617  52.691  1.00  0.00     0.002 A 
HETATM   21  C   UNL     1       6.883  26.719  53.490  1.00  0.00     0.032 A 
BRANCH  17  22
HETATM   22  O   UNL     1       4.422  28.355  51.278  1.00  0.00    -0.354 OA
HETATM   23  C   UNL     1       4.029  27.930  49.974  1.00  0.00     0.210 C 
ENDBRANCH  17  22
ENDBRANCH  13  16
ENDBRANCH  10  12
BRANCH   9  24
HETATM   24  C   UNL     1       6.477  29.302  57.045  1.00  0.00    -0.017 A 
HETATM   25  C   UNL     1       6.459  27.870  57.080  1.00  0.00    -0.017 A 
HETATM   26  C   UNL     1       7.698  27.179  57.134  1.00  0.00    -0.025 A 
HETATM   27  C   UNL     1       5.284  27.076  57.079  1.00  0.00     0.013 A 
HETATM   28  C   UNL     1       7.728  25.774  57.149  1.00  0.00     0.012 A 
HETATM   29  C   UNL     1       8.902  27.891  57.185  1.00  0.00     0.012 A 
HETATM   30  C   UNL     1       6.554  25.028  57.128  1.00  0.00     0.001 A 
HETATM   31  C   UNL     1       5.331  25.679  57.100  1.00  0.00     0.001 A 
HETATM   32  C   UNL     1       8.910  29.281  57.197  1.00  0.00     0.002 A 
HETATM   33  C   UNL     1       7.712  29.979  57.135  1.00  0.00     0.010 A 
ENDBRANCH   9  24
TORSDOF 4
ENDMDL
MODEL 6
REMARK VINA RESULT:      -7.8      5.759      9.511
REMARK  4 active torsions:
REMARK  status: ('A' for Active; 'I' for Inactive)
REMARK    1  A    between atoms: C_9  and  C_10 
REMARK    2  A    between atoms: C_20  and  C_21 
REMARK       I    between atoms: C_21  and  N_22 
REMARK    3  A    between atoms: N_22  and  C_23 
REMARK    4  A    between atoms: C_24  and  O_25 
ROOT
HETATM    1  C   UNL     1       4.550  29.697  55.668  1.00  0.00     0.070 C 
HETATM    2  C   UNL     1       4.476  30.261  54.267  1.00  0.00     0.037 A 
HETATM    3  N   UNL     1       4.227  31.626  54.187  1.00  0.00    -0.192 N 
HETATM    4  C   UNL     1       4.155  32.304  53.029  1.00  0.00     0.725 A 
HETATM    5  N   UNL     1       4.313  31.629  51.850  1.00  0.00    -0.084 N 
HETATM    6  N   UNL     1       4.362  32.484  50.804  1.00  0.00    -0.149 NA
HETATM    7  C   UNL     1       4.104  33.642  51.422  1.00  0.00     0.275 A 
HETATM    8  N   UNL     1       3.983  33.577  52.786  1.00  0.00    -0.054 NA
HETATM    9  C   UNL     1       4.595  30.191  51.756  1.00  0.00     0.203 A 
HETATM   10  C   UNL     1       4.657  29.531  53.135  1.00  0.00     0.062 A 
HETATM   11  H   UNL     1       4.096  32.134  55.058  1.00  0.00     0.184 HD
ENDROOT
BRANCH  10  12
HETATM   12  C   UNL     1       4.807  28.043  53.220  1.00  0.00     0.256 C 
HETATM   13  N   UNL     1       6.112  27.598  53.216  1.00  0.00    -0.321 N 
HETATM   14  H   UNL     1       6.832  28.245  52.936  1.00  0.00     0.169 HD
HETATM   15  O   UNL     1       3.797  27.351  53.207  1.00  0.00    -0.267 OA
BRANCH  13  16
HETATM   16  C   UNL     1       6.550  26.252  53.306  1.00  0.00     0.068 A 
HETATM   17  C   UNL     1       6.443  25.420  54.431  1.00  0.00     0.095 A 
HETATM   18  C   UNL     1       6.859  24.084  54.372  1.00  0.00     0.039 A 
HETATM   19  C   UNL     1       7.444  23.579  53.214  1.00  0.00     0.003 A 
HETATM   20  C   UNL     1       7.615  24.409  52.111  1.00  0.00     0.002 A 
HETATM   21  C   UNL     1       7.176  25.736  52.159  1.00  0.00     0.032 A 
BRANCH  17  22
HETATM   22  O   UNL     1       5.965  25.837  55.645  1.00  0.00    -0.354 OA
HETATM   23  C   UNL     1       6.294  24.895  56.664  1.00  0.00     0.210 C 
ENDBRANCH  17  22
ENDBRANCH  13  16
ENDBRANCH  10  12
BRANCH   9  24
HETATM   24  C   UNL     1       3.623  29.524  50.777  1.00  0.00    -0.017 A 
HETATM   25  C   UNL     1       4.080  28.792  49.634  1.00  0.00    -0.017 A 
HETATM   26  C   UNL     1       3.118  28.144  48.815  1.00  0.00    -0.025 A 
HETATM   27  C   UNL     1       5.438  28.671  49.242  1.00  0.00     0.013 A 
HETATM   28  C   UNL     1       3.523  27.397  47.696  1.00  0.00     0.012 A 
HETATM   29  C   UNL     1       1.753  28.253  49.109  1.00  0.00     0.012 A 
HETATM   30  C   UNL     1       4.867  27.286  47.353  1.00  0.00     0.001 A 
HETATM   31  C   UNL     1       5.824  27.929  48.122  1.00  0.00     0.001 A 
HETATM   32  C   UNL     1       1.313  29.003  50.193  1.00  0.00     0.002 A 
HETATM   33  C   UNL     1       2.236  29.638  51.014  1.00  0.00     0.010 A 
ENDBRANCH   9  24
TORSDOF 4
ENDMDL
MODEL 7
REMARK VINA RESULT:      -7.7      7.216     11.265
REMARK  4 active torsions:
REMARK  status: ('A' for Active; 'I' for Inactive)
REMARK    1  A    between atoms: C_9  and  C_10 
REMARK    2  A    between atoms: C_20  and  C_21 
REMARK       I    between atoms: C_21  and  N_22 
REMARK    3  A    between atoms: N_22  and  C_23 
REMARK    4  A    between atoms: C_24  and  O_25 
ROOT
HETATM    1  C   UNL     1       5.020  32.432  51.218  1.00  0.00     0.070 C 
HETATM    2  C   UNL     1       4.929  31.987  49.777  1.00  0.00     0.037 A 
HETATM    3  N   UNL     1       5.168  32.976  48.831  1.00  0.00    -0.192 N 
HETATM    4  C   UNL     1       5.158  32.759  47.505  1.00  0.00     0.725 A 
HETATM    5  N   UNL     1       4.879  31.504  47.036  1.00  0.00    -0.084 N 
HETATM    6  N   UNL     1       5.060  31.434  45.699  1.00  0.00    -0.149 NA
HETATM    7  C   UNL     1       5.328  32.715  45.420  1.00  0.00     0.275 A 
HETATM    8  N   UNL     1       5.409  33.556  46.499  1.00  0.00    -0.054 NA
HETATM    9  C   UNL     1       4.616  30.345  47.897  1.00  0.00     0.203 A 
HETATM   10  C   UNL     1       4.660  30.715  49.382  1.00  0.00     0.062 A 
HETATM   11  H   UNL     1       5.364  33.915  49.169  1.00  0.00     0.184 HD
ENDROOT
BRANCH  10  12
HETATM   12  C   UNL     1       4.286  29.678  50.398  1.00  0.00     0.256 C 
HETATM   13  N   UNL     1       5.297  28.794  50.712  1.00  0.00    -0.321 N 
HETATM   14  H   UNL     1       6.100  28.757  50.102  1.00  0.00     0.169 HD
HETATM   15  O   UNL     1       3.131  29.644  50.802  1.00  0.00    -0.267 OA
BRANCH  13  16
HETATM   16  C   UNL     1       5.234  27.732  51.649  1.00  0.00     0.068 A 
HETATM   17  C   UNL     1       5.180  27.862  53.045  1.00  0.00     0.095 A 
HETATM   18  C   UNL     1       5.057  26.730  53.861  1.00  0.00     0.039 A 
HETATM   19  C   UNL     1       5.051  25.455  53.303  1.00  0.00     0.003 A 
HETATM   20  C   UNL     1       5.167  25.307  51.924  1.00  0.00     0.002 A 
HETATM   21  C   UNL     1       5.264  26.436  51.105  1.00  0.00     0.032 A 
BRANCH  17  22
HETATM   22  O   UNL     1       5.267  29.059  53.703  1.00  0.00    -0.354 OA
HETATM   23  C   UNL     1       4.077  29.309  54.448  1.00  0.00     0.210 C 
ENDBRANCH  17  22
ENDBRANCH  13  16
ENDBRANCH  10  12
BRANCH   9  24
HETATM   24  C   UNL     1       3.330  29.638  47.457  1.00  0.00    -0.017 A 
HETATM   25  C   UNL     1       3.230  28.211  47.398  1.00  0.00    -0.017 A 
HETATM   26  C   UNL     1       1.981  27.633  47.047  1.00  0.00    -0.025 A 
HETATM   27  C   UNL     1       4.300  27.315  47.652  1.00  0.00     0.013 A 
HETATM   28  C   UNL     1       1.833  26.237  46.997  1.00  0.00     0.012 A 
HETATM   29  C   UNL     1       0.888  28.450  46.737  1.00  0.00     0.012 A 
HETATM   30  C   UNL     1       2.901  25.388  47.272  1.00  0.00     0.001 A 
HETATM   31  C   UNL     1       4.137  25.927  47.592  1.00  0.00     0.001 A 
HETATM   32  C   UNL     1       1.004  29.835  46.752  1.00  0.00     0.002 A 
HETATM   33  C   UNL     1       2.212  30.424  47.100  1.00  0.00     0.010 A 
ENDBRANCH   9  24
TORSDOF 4
ENDMDL
MODEL 8
REMARK VINA RESULT:      -7.7      7.559     10.749
REMARK  4 active torsions:
REMARK  status: ('A' for Active; 'I' for Inactive)
REMARK    1  A    between atoms: C_9  and  C_10 
REMARK    2  A    between atoms: C_20  and  C_21 
REMARK       I    between atoms: C_21  and  N_22 
REMARK    3  A    between atoms: N_22  and  C_23 
REMARK    4  A    between atoms: C_24  and  O_25 
ROOT
HETATM    1  C   UNL     1       3.151  25.231  47.938  1.00  0.00     0.070 C 
HETATM    2  C   UNL     1       2.601  26.637  47.883  1.00  0.00     0.037 A 
HETATM    3  N   UNL     1       1.454  26.799  47.115  1.00  0.00    -0.192 N 
HETATM    4  C   UNL     1       0.810  27.970  46.973  1.00  0.00     0.725 A 
HETATM    5  N   UNL     1       1.305  29.083  47.595  1.00  0.00    -0.084 N 
HETATM    6  N   UNL     1       0.456  30.127  47.469  1.00  0.00    -0.149 NA
HETATM    7  C   UNL     1      -0.466  29.597  46.657  1.00  0.00     0.275 A 
HETATM    8  N   UNL     1      -0.293  28.275  46.340  1.00  0.00    -0.054 NA
HETATM    9  C   UNL     1       2.497  29.085  48.452  1.00  0.00     0.203 A 
HETATM   10  C   UNL     1       3.139  27.699  48.539  1.00  0.00     0.062 A 
HETATM   11  H   UNL     1       1.085  25.979  46.639  1.00  0.00     0.184 HD
ENDROOT
BRANCH  10  12
HETATM   12  C   UNL     1       4.439  27.548  49.269  1.00  0.00     0.256 C 
HETATM   13  N   UNL     1       4.315  27.157  50.586  1.00  0.00    -0.321 N 
HETATM   14  H   UNL     1       3.405  27.222  51.015  1.00  0.00     0.169 HD
HETATM   15  O   UNL     1       5.474  27.847  48.688  1.00  0.00    -0.267 OA
BRANCH  13  16
HETATM   16  C   UNL     1       5.370  26.917  51.502  1.00  0.00     0.068 A 
HETATM   17  C   UNL     1       5.805  27.791  52.511  1.00  0.00     0.095 A 
HETATM   18  C   UNL     1       6.821  27.408  53.395  1.00  0.00     0.039 A 
HETATM   19  C   UNL     1       7.459  26.180  53.247  1.00  0.00     0.003 A 
HETATM   20  C   UNL     1       7.082  25.329  52.212  1.00  0.00     0.002 A 
HETATM   21  C   UNL     1       6.050  25.698  51.345  1.00  0.00     0.032 A 
BRANCH  17  22
HETATM   22  O   UNL     1       5.309  29.054  52.691  1.00  0.00    -0.354 OA
HETATM   23  C   UNL     1       4.307  29.059  53.706  1.00  0.00     0.210 C 
ENDBRANCH  17  22
ENDBRANCH  13  16
ENDBRANCH  10  12
BRANCH   9  24
HETATM   24  C   UNL     1       3.455  30.202  48.024  1.00  0.00    -0.017 A 
HETATM   25  C   UNL     1       4.016  31.123  48.966  1.00  0.00    -0.017 A 
HETATM   26  C   UNL     1       4.950  32.085  48.499  1.00  0.00    -0.025 A 
HETATM   27  C   UNL     1       3.698  31.159  50.348  1.00  0.00     0.013 A 
HETATM   28  C   UNL     1       5.542  32.994  49.392  1.00  0.00     0.012 A 
HETATM   29  C   UNL     1       5.283  32.144  47.140  1.00  0.00     0.012 A 
HETATM   30  C   UNL     1       5.218  32.987  50.746  1.00  0.00     0.001 A 
HETATM   31  C   UNL     1       4.291  32.075  51.223  1.00  0.00     0.001 A 
HETATM   32  C   UNL     1       4.700  31.277  46.224  1.00  0.00     0.002 A 
HETATM   33  C   UNL     1       3.791  30.322  46.658  1.00  0.00     0.010 A 
ENDBRANCH   9  24
TORSDOF 4
ENDMDL
MODEL 9
REMARK VINA RESULT:      -7.6      4.675      8.583
REMARK  4 active torsions:
REMARK  status: ('A' for Active; 'I' for Inactive)
REMARK    1  A    between atoms: C_9  and  C_10 
REMARK    2  A    between atoms: C_20  and  C_21 
REMARK       I    between atoms: C_21  and  N_22 
REMARK    3  A    between atoms: N_22  and  C_23 
REMARK    4  A    between atoms: C_24  and  O_25 
ROOT
HETATM    1  C   UNL     1       5.606  38.987  64.477  1.00  0.00     0.070 C 
HETATM    2  C   UNL     1       5.329  37.516  64.688  1.00  0.00     0.037 A 
HETATM    3  N   UNL     1       5.137  37.130  66.009  1.00  0.00    -0.192 N 
HETATM    4  C   UNL     1       4.853  35.871  66.384  1.00  0.00     0.725 A 
HETATM    5  N   UNL     1       4.764  34.894  65.430  1.00  0.00    -0.084 N 
HETATM    6  N   UNL     1       4.327  33.733  65.965  1.00  0.00    -0.149 NA
HETATM    7  C   UNL     1       4.292  34.057  67.262  1.00  0.00     0.275 A 
HETATM    8  N   UNL     1       4.595  35.360  67.560  1.00  0.00    -0.054 NA
HETATM    9  C   UNL     1       4.927  35.133  63.991  1.00  0.00     0.203 A 
HETATM   10  C   UNL     1       5.242  36.600  63.688  1.00  0.00     0.062 A 
HETATM   11  H   UNL     1       5.213  37.846  66.727  1.00  0.00     0.184 HD
ENDROOT
BRANCH  10  12
HETATM   12  C   UNL     1       5.567  36.995  62.280  1.00  0.00     0.256 C 
HETATM   13  N   UNL     1       4.467  37.259  61.491  1.00  0.00    -0.321 N 
HETATM   14  H   UNL     1       3.563  36.959  61.823  1.00  0.00     0.169 HD
HETATM   15  O   UNL     1       6.738  36.979  61.922  1.00  0.00    -0.267 OA
BRANCH  13  16
HETATM   16  C   UNL     1       4.475  37.671  60.135  1.00  0.00     0.068 A 
HETATM   17  C   UNL     1       4.791  38.954  59.661  1.00  0.00     0.095 A 
HETATM   18  C   UNL     1       4.823  39.217  58.286  1.00  0.00     0.039 A 
HETATM   19  C   UNL     1       4.480  38.227  57.370  1.00  0.00     0.003 A 
HETATM   20  C   UNL     1       4.103  36.969  57.826  1.00  0.00     0.002 A 
HETATM   21  C   UNL     1       4.096  36.695  59.198  1.00  0.00     0.032 A 
BRANCH  17  22
HETATM   22  O   UNL     1       5.058  40.022  60.474  1.00  0.00    -0.354 OA
HETATM   23  C   UNL     1       6.464  40.239  60.571  1.00  0.00     0.210 C 
ENDBRANCH  17  22
ENDBRANCH  13  16
ENDBRANCH  10  12
BRANCH   9  24
HETATM   24  C   UNL     1       5.927  34.135  63.399  1.00  0.00    -0.017 A 
HETATM   25  C   UNL     1       5.736  33.543  62.109  1.00  0.00    -0.017 A 
HETATM   26  C   UNL     1       6.744  32.682  61.602  1.00  0.00    -0.025 A 
HETATM   27  C   UNL     1       4.595  33.743  61.290  1.00  0.00     0.013 A 
HETATM   28  C   UNL     1       6.607  32.097  60.331  1.00  0.00     0.012 A 
HETATM   29  C   UNL     1       7.880  32.397  62.368  1.00  0.00     0.012 A 
HETATM   30  C   UNL     1       5.481  32.331  59.548  1.00  0.00     0.001 A 
HETATM   31  C   UNL     1       4.471  33.149  60.030  1.00  0.00     0.001 A 
HETATM   32  C   UNL     1       8.039  32.938  63.639  1.00  0.00     0.002 A 
HETATM   33  C   UNL     1       7.071  33.791  64.152  1.00  0.00     0.010 A 
ENDBRANCH   9  24
TORSDOF 4
ENDMDL
MODEL 10
REMARK VINA RESULT:      -7.5      4.987      7.710
REMARK  4 active torsions:
REMARK  status: ('A' for Active; 'I' for Inactive)
REMARK    1  A    between atoms: C_9  and  C_10 
REMARK    2  A    between atoms: C_20  and  C_21 
REMARK       I    between atoms: C_21  and  N_22 
REMARK    3  A    between atoms: N_22  and  C_23 
REMARK    4  A    between atoms: C_24  and  O_25 
ROOT
HETATM    1  C   UNL     1       6.269  25.613  51.637  1.00  0.00     0.070 C 
HETATM    2  C   UNL     1       5.437  26.593  50.843  1.00  0.00     0.037 A 
HETATM    3  N   UNL     1       5.106  26.188  49.556  1.00  0.00    -0.192 N 
HETATM    4  C   UNL     1       4.351  26.916  48.716  1.00  0.00     0.725 A 
HETATM    5  N   UNL     1       3.888  28.137  49.122  1.00  0.00    -0.084 N 
HETATM    6  N   UNL     1       3.029  28.656  48.218  1.00  0.00    -0.149 NA
HETATM    7  C   UNL     1       3.122  27.747  47.241  1.00  0.00     0.275 A 
HETATM    8  N   UNL     1       3.912  26.660  47.511  1.00  0.00    -0.054 NA
HETATM    9  C   UNL     1       4.134  28.709  50.452  1.00  0.00     0.203 A 
HETATM   10  C   UNL     1       4.999  27.789  51.317  1.00  0.00     0.062 A 
HETATM   11  H   UNL     1       5.456  25.287  49.239  1.00  0.00     0.184 HD
ENDROOT
BRANCH  10  12
HETATM   12  C   UNL     1       5.455  28.276  52.659  1.00  0.00     0.256 C 
HETATM   13  N   UNL     1       4.463  28.328  53.616  1.00  0.00    -0.321 N 
HETATM   14  H   UNL     1       3.505  28.264  53.309  1.00  0.00     0.169 HD
HETATM   15  O   UNL     1       6.613  28.652  52.783  1.00  0.00    -0.267 OA
BRANCH  13  16
HETATM   16  C   UNL     1       4.611  28.725  54.969  1.00  0.00     0.068 A 
HETATM   17  C   UNL     1       5.195  27.968  55.996  1.00  0.00     0.095 A 
HETATM   18  C   UNL     1       5.336  28.503  57.283  1.00  0.00     0.039 A 
HETATM   19  C   UNL     1       4.842  29.770  57.578  1.00  0.00     0.003 A 
HETATM   20  C   UNL     1       4.205  30.508  56.587  1.00  0.00     0.002 A 
HETATM   21  C   UNL     1       4.085  29.988  55.295  1.00  0.00     0.032 A 
BRANCH  17  22
HETATM   22  O   UNL     1       5.634  26.681  55.839  1.00  0.00    -0.354 OA
HETATM   23  C   UNL     1       7.049  26.652  55.665  1.00  0.00     0.210 C 
ENDBRANCH  17  22
ENDBRANCH  13  16
ENDBRANCH  10  12
BRANCH   9  24
HETATM   24  C   UNL     1       4.663  30.141  50.323  1.00  0.00    -0.017 A 
HETATM   25  C   UNL     1       4.100  31.227  51.067  1.00  0.00    -0.017 A 
HETATM   26  C   UNL     1       4.693  32.512  50.944  1.00  0.00    -0.025 A 
HETATM   27  C   UNL     1       2.972  31.124  51.921  1.00  0.00     0.013 A 
HETATM   28  C   UNL     1       4.187  33.602  51.672  1.00  0.00     0.012 A 
HETATM   29  C   UNL     1       5.782  32.707  50.086  1.00  0.00     0.012 A 
HETATM   30  C   UNL     1       3.089  33.457  52.515  1.00  0.00     0.001 A 
HETATM   31  C   UNL     1       2.477  32.220  52.634  1.00  0.00     0.001 A 
HETATM   32  C   UNL     1       6.295  31.658  49.332  1.00  0.00     0.002 A 
HETATM   33  C   UNL     1       5.737  30.391  49.442  1.00  0.00     0.010 A 
ENDBRANCH   9  24
TORSDOF 4
ENDMDL
