MODEL 1
REMARK VINA RESULT:     -10.1      0.000      0.000
REMARK  6 active torsions:
REMARK  status: ('A' for Active; 'I' for Inactive)
REMARK    1  A    between atoms: C_6  and  C_7 
REMARK    2  A    between atoms: C_7  and  N_8 
REMARK       I    between atoms: N_8  and  C_9 
REMARK    3  A    between atoms: N_8  and  C_19 
REMARK    4  A    between atoms: C_9  and  C_10 
REMARK    5  A    between atoms: C_12  and  O_13 
REMARK    6  A    between atoms: C_19  and  C_20 
ROOT
HETATM    1  N   UNL     1       6.917  27.469  56.204  1.00  0.00    -0.341 N 
HETATM    2  C   UNL     1       7.736  27.658  57.321  1.00  0.00     0.254 C 
HETATM    3  O   UNL     1       7.659  26.957  58.330  1.00  0.00    -0.267 OA
ENDROOT
BRANCH   1   4
HETATM    4  C   UNL     1       5.985  26.334  56.246  1.00  0.00     0.170 C 
BRANCH   4   5
HETATM    5  C   UNL     1       6.611  25.025  55.854  1.00  0.00     0.029 A 
HETATM    6  C   UNL     1       7.263  24.154  56.646  1.00  0.00     0.028 A 
HETATM    7  C   UNL     1       7.783  22.891  56.120  1.00  0.00    -0.008 A 
HETATM    8  C   UNL     1       7.598  22.579  54.765  1.00  0.00     0.051 A 
HETATM    9  C   UNL     1       8.446  21.986  56.952  1.00  0.00     0.014 A 
HETATM   10  C   UNL     1       8.071  21.368  54.230  1.00  0.00    -0.034 A 
HETATM   11  N   UNL     1       6.929  23.508  53.955  1.00  0.00    -0.322 N 
HETATM   12  C   UNL     1       7.876  21.002  52.787  1.00  0.00     0.050 C 
HETATM   13  C   UNL     1       8.733  20.473  55.085  1.00  0.00     0.009 A 
HETATM   14  C   UNL     1       8.920  20.781  56.434  1.00  0.00     0.002 A 
HETATM   15  C   UNL     1       6.439  24.702  54.403  1.00  0.00     0.253 A 
HETATM   16  H   UNL     1       6.782  23.323  52.974  1.00  0.00     0.169 HD
HETATM   17  O   UNL     1       5.882  25.482  53.632  1.00  0.00    -0.268 OA
ENDBRANCH   4   5
ENDBRANCH   1   4
BRANCH   1  18
HETATM   18  C   UNL     1       6.801  28.398  55.066  1.00  0.00     0.158 C 
BRANCH  18  19
HETATM   19  C   UNL     1       5.366  28.699  54.608  1.00  0.00     0.139 C 
HETATM   20  O   UNL     1       5.333  28.809  53.168  1.00  0.00    -0.384 OA
HETATM   21  C   UNL     1       4.540  29.953  52.819  1.00  0.00     0.168 C 
HETATM   22  C   UNL     1       3.792  30.357  54.069  1.00  0.00     0.029 C 
HETATM   23  C   UNL     1       4.786  29.999  55.145  1.00  0.00     0.035 C 
ENDBRANCH  18  19
ENDBRANCH   1  18
BRANCH   2  24
HETATM   24  C   UNL     1       8.756  28.733  57.343  1.00  0.00     0.034 A 
HETATM   25  C   UNL     1       8.475  29.884  58.093  1.00  0.00     0.053 A 
HETATM   26  C   UNL     1       9.423  30.902  58.187  1.00  0.00     0.069 A 
HETATM   27  C   UNL     1      10.641  30.771  57.515  1.00  0.00     0.037 A 
HETATM   28  C   UNL     1      10.937  29.611  56.795  1.00  0.00     0.004 A 
HETATM   29  C   UNL     1      10.003  28.578  56.728  1.00  0.00     0.017 A 
BRANCH  26  30
HETATM   30  O   UNL     1       9.274  32.067  58.891  1.00  0.00    -0.356 OA
HETATM   31  C   UNL     1       9.376  31.964  60.307  1.00  0.00     0.210 C 
ENDBRANCH  26  30
ENDBRANCH   2  24
TORSDOF 6
ENDMDL
MODEL 2
REMARK VINA RESULT:      -9.4      1.714      2.540
REMARK  6 active torsions:
REMARK  status: ('A' for Active; 'I' for Inactive)
REMARK    1  A    between atoms: C_6  and  C_7 
REMARK    2  A    between atoms: C_7  and  N_8 
REMARK       I    between atoms: N_8  and  C_9 
REMARK    3  A    between atoms: N_8  and  C_19 
REMARK    4  A    between atoms: C_9  and  C_10 
REMARK    5  A    between atoms: C_12  and  O_13 
REMARK    6  A    between atoms: C_19  and  C_20 
ROOT
HETATM    1  N   UNL     1       6.406  28.777  56.816  1.00  0.00    -0.341 N 
HETATM    2  C   UNL     1       7.484  28.592  57.687  1.00  0.00     0.254 C 
HETATM    3  O   UNL     1       7.637  27.567  58.351  1.00  0.00    -0.267 OA
ENDROOT
BRANCH   1   4
HETATM    4  C   UNL     1       5.474  27.652  56.662  1.00  0.00     0.170 C 
BRANCH   4   5
HETATM    5  C   UNL     1       6.011  26.537  55.808  1.00  0.00     0.029 A 
HETATM    6  C   UNL     1       6.497  26.620  54.557  1.00  0.00     0.028 A 
HETATM    7  C   UNL     1       7.028  25.442  53.868  1.00  0.00    -0.008 A 
HETATM    8  C   UNL     1       7.030  24.202  54.524  1.00  0.00     0.051 A 
HETATM    9  C   UNL     1       7.544  25.540  52.574  1.00  0.00     0.014 A 
HETATM   10  C   UNL     1       7.546  23.054  53.898  1.00  0.00    -0.034 A 
HETATM   11  N   UNL     1       6.505  24.137  55.822  1.00  0.00    -0.322 N 
HETATM   12  C   UNL     1       7.575  21.717  54.580  1.00  0.00     0.050 C 
HETATM   13  C   UNL     1       8.061  23.176  52.598  1.00  0.00     0.009 A 
HETATM   14  C   UNL     1       8.058  24.408  51.942  1.00  0.00     0.002 A 
HETATM   15  C   UNL     1       5.991  25.208  56.496  1.00  0.00     0.253 A 
HETATM   16  H   UNL     1       6.484  23.261  56.324  1.00  0.00     0.169 HD
HETATM   17  O   UNL     1       5.524  25.075  57.625  1.00  0.00    -0.268 OA
ENDBRANCH   4   5
ENDBRANCH   1   4
BRANCH   1  18
HETATM   18  C   UNL     1       6.042  30.050  56.169  1.00  0.00     0.158 C 
BRANCH  18  19
HETATM   19  C   UNL     1       4.574  30.168  55.732  1.00  0.00     0.139 C 
HETATM   20  O   UNL     1       4.493  30.964  54.529  1.00  0.00    -0.384 OA
HETATM   21  C   UNL     1       3.406  31.891  54.672  1.00  0.00     0.168 C 
HETATM   22  C   UNL     1       2.592  31.422  55.856  1.00  0.00     0.029 C 
HETATM   23  C   UNL     1       3.661  30.841  56.747  1.00  0.00     0.035 C 
ENDBRANCH  18  19
ENDBRANCH   1  18
BRANCH   2  24
HETATM   24  C   UNL     1       8.514  29.644  57.855  1.00  0.00     0.034 A 
HETATM   25  C   UNL     1       8.249  30.678  58.765  1.00  0.00     0.053 A 
HETATM   26  C   UNL     1       9.208  31.664  58.997  1.00  0.00     0.069 A 
HETATM   27  C   UNL     1      10.420  31.619  58.303  1.00  0.00     0.037 A 
HETATM   28  C   UNL     1      10.700  30.572  57.423  1.00  0.00     0.004 A 
HETATM   29  C   UNL     1       9.756  29.568  57.215  1.00  0.00     0.017 A 
BRANCH  26  30
HETATM   30  O   UNL     1       9.075  32.717  59.860  1.00  0.00    -0.356 OA
HETATM   31  C   UNL     1       8.065  32.590  60.857  1.00  0.00     0.210 C 
ENDBRANCH  26  30
ENDBRANCH   2  24
TORSDOF 6
ENDMDL
MODEL 3
REMARK VINA RESULT:      -9.4      1.234      2.066
REMARK  6 active torsions:
REMARK  status: ('A' for Active; 'I' for Inactive)
REMARK    1  A    between atoms: C_6  and  C_7 
REMARK    2  A    between atoms: C_7  and  N_8 
REMARK       I    between atoms: N_8  and  C_9 
REMARK    3  A    between atoms: N_8  and  C_19 
REMARK    4  A    between atoms: C_9  and  C_10 
REMARK    5  A    between atoms: C_12  and  O_13 
REMARK    6  A    between atoms: C_19  and  C_20 
ROOT
HETATM    1  N   UNL     1       7.439  27.313  55.986  1.00  0.00    -0.341 N 
HETATM    2  C   UNL     1       7.815  27.867  57.214  1.00  0.00     0.254 C 
HETATM    3  O   UNL     1       7.301  27.533  58.281  1.00  0.00    -0.267 OA
ENDROOT
BRANCH   1   4
HETATM    4  C   UNL     1       6.434  26.242  56.018  1.00  0.00     0.170 C 
BRANCH   4   5
HETATM    5  C   UNL     1       6.976  24.896  55.628  1.00  0.00     0.029 A 
HETATM    6  C   UNL     1       6.960  24.323  54.411  1.00  0.00     0.028 A 
HETATM    7  C   UNL     1       7.571  23.013  54.178  1.00  0.00    -0.008 A 
HETATM    8  C   UNL     1       8.187  22.341  55.244  1.00  0.00     0.051 A 
HETATM    9  C   UNL     1       7.562  22.432  52.909  1.00  0.00     0.014 A 
HETATM   10  C   UNL     1       8.797  21.089  55.053  1.00  0.00    -0.034 A 
HETATM   11  N   UNL     1       8.179  22.949  56.507  1.00  0.00    -0.322 N 
HETATM   12  C   UNL     1       9.476  20.352  56.172  1.00  0.00     0.050 C 
HETATM   13  C   UNL     1       8.778  20.524  53.769  1.00  0.00     0.009 A 
HETATM   14  C   UNL     1       8.164  21.191  52.706  1.00  0.00     0.002 A 
HETATM   15  C   UNL     1       7.611  24.164  56.769  1.00  0.00     0.253 A 
HETATM   16  H   UNL     1       8.607  22.495  57.300  1.00  0.00     0.169 HD
HETATM   17  O   UNL     1       7.619  24.630  57.907  1.00  0.00    -0.268 OA
ENDBRANCH   4   5
ENDBRANCH   1   4
BRANCH   1  18
HETATM   18  C   UNL     1       7.847  27.819  54.664  1.00  0.00     0.158 C 
BRANCH  18  19
HETATM   19  C   UNL     1       6.733  28.493  53.847  1.00  0.00     0.139 C 
HETATM   20  O   UNL     1       5.729  29.018  54.743  1.00  0.00    -0.384 OA
HETATM   21  C   UNL     1       4.435  28.683  54.220  1.00  0.00     0.168 C 
HETATM   22  C   UNL     1       4.650  28.233  52.792  1.00  0.00     0.029 C 
HETATM   23  C   UNL     1       6.000  27.568  52.886  1.00  0.00     0.035 C 
ENDBRANCH  18  19
ENDBRANCH   1  18
BRANCH   2  24
HETATM   24  C   UNL     1       8.871  28.903  57.289  1.00  0.00     0.034 A 
HETATM   25  C   UNL     1       8.601  30.057  58.039  1.00  0.00     0.053 A 
HETATM   26  C   UNL     1       9.581  31.039  58.183  1.00  0.00     0.069 A 
HETATM   27  C   UNL     1      10.820  30.869  57.559  1.00  0.00     0.037 A 
HETATM   28  C   UNL     1      11.103  29.706  56.840  1.00  0.00     0.004 A 
HETATM   29  C   UNL     1      10.136  28.709  56.724  1.00  0.00     0.017 A 
BRANCH  26  30
HETATM   30  O   UNL     1       9.446  32.202  58.892  1.00  0.00    -0.356 OA
HETATM   31  C   UNL     1       9.398  32.073  60.309  1.00  0.00     0.210 C 
ENDBRANCH  26  30
ENDBRANCH   2  24
TORSDOF 6
ENDMDL
MODEL 4
REMARK VINA RESULT:      -9.2      1.445      2.214
REMARK  6 active torsions:
REMARK  status: ('A' for Active; 'I' for Inactive)
REMARK    1  A    between atoms: C_6  and  C_7 
REMARK    2  A    between atoms: C_7  and  N_8 
REMARK       I    between atoms: N_8  and  C_9 
REMARK    3  A    between atoms: N_8  and  C_19 
REMARK    4  A    between atoms: C_9  and  C_10 
REMARK    5  A    between atoms: C_12  and  O_13 
REMARK    6  A    between atoms: C_19  and  C_20 
ROOT
HETATM    1  N   UNL     1       6.062  27.013  55.047  1.00  0.00    -0.341 N 
HETATM    2  C   UNL     1       5.842  27.307  56.396  1.00  0.00     0.254 C 
HETATM    3  O   UNL     1       5.080  26.650  57.106  1.00  0.00    -0.267 OA
ENDROOT
BRANCH   1   4
HETATM    4  C   UNL     1       5.391  25.824  54.507  1.00  0.00     0.170 C 
BRANCH   4   5
HETATM    5  C   UNL     1       6.240  24.583  54.545  1.00  0.00     0.029 A 
HETATM    6  C   UNL     1       6.747  23.965  55.626  1.00  0.00     0.028 A 
HETATM    7  C   UNL     1       7.525  22.732  55.502  1.00  0.00    -0.008 A 
HETATM    8  C   UNL     1       7.747  22.181  54.231  1.00  0.00     0.051 A 
HETATM    9  C   UNL     1       8.036  22.089  56.632  1.00  0.00     0.014 A 
HETATM   10  C   UNL     1       8.476  20.989  54.077  1.00  0.00    -0.034 A 
HETATM   11  N   UNL     1       7.222  22.850  53.117  1.00  0.00    -0.322 N 
HETATM   12  C   UNL     1       8.718  20.369  52.731  1.00  0.00     0.050 C 
HETATM   13  C   UNL     1       8.979  20.359  55.225  1.00  0.00     0.009 A 
HETATM   14  C   UNL     1       8.761  20.906  56.492  1.00  0.00     0.002 A 
HETATM   15  C   UNL     1       6.500  24.008  53.188  1.00  0.00     0.253 A 
HETATM   16  H   UNL     1       7.365  22.488  52.186  1.00  0.00     0.169 HD
HETATM   17  O   UNL     1       6.089  24.556  52.167  1.00  0.00    -0.268 OA
ENDBRANCH   4   5
ENDBRANCH   1   4
BRANCH   1  18
HETATM   18  C   UNL     1       6.776  27.879  54.093  1.00  0.00     0.158 C 
BRANCH  18  19
HETATM   19  C   UNL     1       5.879  28.707  53.159  1.00  0.00     0.139 C 
HETATM   20  O   UNL     1       4.663  29.063  53.851  1.00  0.00    -0.384 OA
HETATM   21  C   UNL     1       3.556  28.847  52.963  1.00  0.00     0.168 C 
HETATM   22  C   UNL     1       4.142  28.673  51.579  1.00  0.00     0.029 C 
HETATM   23  C   UNL     1       5.449  27.989  51.889  1.00  0.00     0.035 C 
ENDBRANCH  18  19
ENDBRANCH   1  18
BRANCH   2  24
HETATM   24  C   UNL     1       6.530  28.446  57.048  1.00  0.00     0.034 A 
HETATM   25  C   UNL     1       7.920  28.363  57.210  1.00  0.00     0.053 A 
HETATM   26  C   UNL     1       8.621  29.430  57.772  1.00  0.00     0.069 A 
HETATM   27  C   UNL     1       7.922  30.568  58.185  1.00  0.00     0.037 A 
HETATM   28  C   UNL     1       6.542  30.667  57.994  1.00  0.00     0.004 A 
HETATM   29  C   UNL     1       5.846  29.614  57.402  1.00  0.00     0.017 A 
BRANCH  26  30
HETATM   30  O   UNL     1       9.973  29.476  57.977  1.00  0.00    -0.356 OA
HETATM   31  C   UNL     1      10.747  30.066  56.937  1.00  0.00     0.210 C 
ENDBRANCH  26  30
ENDBRANCH   2  24
TORSDOF 6
ENDMDL
MODEL 5
REMARK VINA RESULT:      -9.2      2.704      4.089
REMARK  6 active torsions:
REMARK  status: ('A' for Active; 'I' for Inactive)
REMARK    1  A    between atoms: C_6  and  C_7 
REMARK    2  A    between atoms: C_7  and  N_8 
REMARK       I    between atoms: N_8  and  C_9 
REMARK    3  A    between atoms: N_8  and  C_19 
REMARK    4  A    between atoms: C_9  and  C_10 
REMARK    5  A    between atoms: C_12  and  O_13 
REMARK    6  A    between atoms: C_19  and  C_20 
ROOT
HETATM    1  N   UNL     1       6.396  27.661  54.511  1.00  0.00    -0.341 N 
HETATM    2  C   UNL     1       6.447  28.848  55.249  1.00  0.00     0.254 C 
HETATM    3  O   UNL     1       7.503  29.348  55.636  1.00  0.00    -0.267 OA
ENDROOT
BRANCH   1   4
HETATM    4  C   UNL     1       7.680  27.051  54.143  1.00  0.00     0.170 C 
BRANCH   4   5
HETATM    5  C   UNL     1       7.730  25.566  54.374  1.00  0.00     0.029 A 
HETATM    6  C   UNL     1       7.703  24.587  53.452  1.00  0.00     0.028 A 
HETATM    7  C   UNL     1       7.803  23.178  53.835  1.00  0.00    -0.008 A 
HETATM    8  C   UNL     1       7.931  22.839  55.190  1.00  0.00     0.051 A 
HETATM    9  C   UNL     1       7.789  22.169  52.869  1.00  0.00     0.014 A 
HETATM   10  C   UNL     1       8.045  21.497  55.592  1.00  0.00    -0.034 A 
HETATM   11  N   UNL     1       7.942  23.874  56.135  1.00  0.00    -0.322 N 
HETATM   12  C   UNL     1       8.197  21.104  57.033  1.00  0.00     0.050 C 
HETATM   13  C   UNL     1       8.030  20.500  54.605  1.00  0.00     0.009 A 
HETATM   14  C   UNL     1       7.901  20.834  53.255  1.00  0.00     0.002 A 
HETATM   15  C   UNL     1       7.840  25.200  55.821  1.00  0.00     0.253 A 
HETATM   16  H   UNL     1       8.026  23.670  57.120  1.00  0.00     0.169 HD
HETATM   17  O   UNL     1       7.832  26.056  56.704  1.00  0.00    -0.268 OA
ENDBRANCH   4   5
ENDBRANCH   1   4
BRANCH   1  18
HETATM   18  C   UNL     1       5.173  26.896  54.213  1.00  0.00     0.158 C 
BRANCH  18  19
HETATM   19  C   UNL     1       4.671  26.999  52.764  1.00  0.00     0.139 C 
HETATM   20  O   UNL     1       4.857  25.730  52.099  1.00  0.00    -0.384 OA
HETATM   21  C   UNL     1       5.401  25.977  50.794  1.00  0.00     0.168 C 
HETATM   22  C   UNL     1       5.230  27.456  50.528  1.00  0.00     0.029 C 
HETATM   23  C   UNL     1       5.394  28.032  51.912  1.00  0.00     0.035 C 
ENDBRANCH  18  19
ENDBRANCH   1  18
BRANCH   2  24
HETATM   24  C   UNL     1       5.206  29.574  55.607  1.00  0.00     0.034 A 
HETATM   25  C   UNL     1       4.891  29.697  56.968  1.00  0.00     0.053 A 
HETATM   26  C   UNL     1       3.762  30.415  57.360  1.00  0.00     0.069 A 
HETATM   27  C   UNL     1       2.942  30.990  56.385  1.00  0.00     0.037 A 
HETATM   28  C   UNL     1       3.272  30.899  55.031  1.00  0.00     0.004 A 
HETATM   29  C   UNL     1       4.419  30.210  54.641  1.00  0.00     0.017 A 
BRANCH  26  30
HETATM   30  O   UNL     1       3.351  30.613  58.650  1.00  0.00    -0.356 OA
HETATM   31  C   UNL     1       3.747  31.841  59.255  1.00  0.00     0.210 C 
ENDBRANCH  26  30
ENDBRANCH   2  24
TORSDOF 6
ENDMDL
MODEL 6
REMARK VINA RESULT:      -9.2      1.725      5.106
REMARK  6 active torsions:
REMARK  status: ('A' for Active; 'I' for Inactive)
REMARK    1  A    between atoms: C_6  and  C_7 
REMARK    2  A    between atoms: C_7  and  N_8 
REMARK       I    between atoms: N_8  and  C_9 
REMARK    3  A    between atoms: N_8  and  C_19 
REMARK    4  A    between atoms: C_9  and  C_10 
REMARK    5  A    between atoms: C_12  and  O_13 
REMARK    6  A    between atoms: C_19  and  C_20 
ROOT
HETATM    1  N   UNL     1       6.989  27.557  56.244  1.00  0.00    -0.341 N 
HETATM    2  C   UNL     1       5.594  27.617  56.182  1.00  0.00     0.254 C 
HETATM    3  O   UNL     1       4.865  26.827  56.784  1.00  0.00    -0.267 OA
ENDROOT
BRANCH   1   4
HETATM    4  C   UNL     1       7.574  26.541  57.129  1.00  0.00     0.170 C 
BRANCH   4   5
HETATM    5  C   UNL     1       7.780  25.209  56.463  1.00  0.00     0.029 A 
HETATM    6  C   UNL     1       7.441  24.853  55.211  1.00  0.00     0.028 A 
HETATM    7  C   UNL     1       7.750  23.520  54.689  1.00  0.00    -0.008 A 
HETATM    8  C   UNL     1       8.414  22.596  55.508  1.00  0.00     0.051 A 
HETATM    9  C   UNL     1       7.407  23.164  53.383  1.00  0.00     0.014 A 
HETATM   10  C   UNL     1       8.741  21.313  55.034  1.00  0.00    -0.034 A 
HETATM   11  N   UNL     1       8.745  22.983  56.814  1.00  0.00    -0.322 N 
HETATM   12  C   UNL     1       9.463  20.307  55.883  1.00  0.00     0.050 C 
HETATM   13  C   UNL     1       8.387  20.977  53.719  1.00  0.00     0.009 A 
HETATM   14  C   UNL     1       7.725  21.895  52.901  1.00  0.00     0.002 A 
HETATM   15  C   UNL     1       8.465  24.211  57.344  1.00  0.00     0.253 A 
HETATM   16  H   UNL     1       9.218  22.344  57.436  1.00  0.00     0.169 HD
HETATM   17  O   UNL     1       8.763  24.477  58.506  1.00  0.00    -0.268 OA
ENDBRANCH   4   5
ENDBRANCH   1   4
BRANCH   1  18
HETATM   18  C   UNL     1       7.913  28.317  55.384  1.00  0.00     0.158 C 
BRANCH  18  19
HETATM   19  C   UNL     1       8.600  29.516  56.055  1.00  0.00     0.139 C 
HETATM   20  O   UNL     1       9.955  29.629  55.568  1.00  0.00    -0.384 OA
HETATM   21  C   UNL     1      10.819  29.878  56.688  1.00  0.00     0.168 C 
HETATM   22  C   UNL     1       9.925  30.260  57.846  1.00  0.00     0.029 C 
HETATM   23  C   UNL     1       8.700  29.425  57.571  1.00  0.00     0.035 C 
ENDBRANCH  18  19
ENDBRANCH   1  18
BRANCH   2  24
HETATM   24  C   UNL     1       4.913  28.652  55.371  1.00  0.00     0.034 A 
HETATM   25  C   UNL     1       4.310  28.250  54.170  1.00  0.00     0.053 A 
HETATM   26  C   UNL     1       3.613  29.177  53.396  1.00  0.00     0.069 A 
HETATM   27  C   UNL     1       3.537  30.506  53.820  1.00  0.00     0.037 A 
HETATM   28  C   UNL     1       4.106  30.903  55.032  1.00  0.00     0.004 A 
HETATM   29  C   UNL     1       4.775  29.969  55.823  1.00  0.00     0.017 A 
BRANCH  26  30
HETATM   30  O   UNL     1       2.978  28.911  52.213  1.00  0.00    -0.356 OA
HETATM   31  C   UNL     1       3.082  29.910  51.204  1.00  0.00     0.210 C 
ENDBRANCH  26  30
ENDBRANCH   2  24
TORSDOF 6
ENDMDL
MODEL 7
REMARK VINA RESULT:      -9.2      2.262      7.717
REMARK  6 active torsions:
REMARK  status: ('A' for Active; 'I' for Inactive)
REMARK    1  A    between atoms: C_6  and  C_7 
REMARK    2  A    between atoms: C_7  and  N_8 
REMARK       I    between atoms: N_8  and  C_9 
REMARK    3  A    between atoms: N_8  and  C_19 
REMARK    4  A    between atoms: C_9  and  C_10 
REMARK    5  A    between atoms: C_12  and  O_13 
REMARK    6  A    between atoms: C_19  and  C_20 
ROOT
HETATM    1  N   UNL     1       6.281  26.847  54.373  1.00  0.00    -0.341 N 
HETATM    2  C   UNL     1       5.232  27.527  53.745  1.00  0.00     0.254 C 
HETATM    3  O   UNL     1       4.275  27.993  54.362  1.00  0.00    -0.267 OA
ENDROOT
BRANCH   1   4
HETATM    4  C   UNL     1       6.237  26.766  55.839  1.00  0.00     0.170 C 
BRANCH   4   5
HETATM    5  C   UNL     1       7.035  27.840  56.526  1.00  0.00     0.029 A 
HETATM    6  C   UNL     1       8.350  28.095  56.403  1.00  0.00     0.028 A 
HETATM    7  C   UNL     1       8.977  29.212  57.111  1.00  0.00    -0.008 A 
HETATM    8  C   UNL     1       8.193  30.035  57.933  1.00  0.00     0.051 A 
HETATM    9  C   UNL     1      10.341  29.478  56.966  1.00  0.00     0.014 A 
HETATM   10  C   UNL     1       8.760  31.126  58.614  1.00  0.00    -0.034 A 
HETATM   11  N   UNL     1       6.828  29.742  58.058  1.00  0.00    -0.322 N 
HETATM   12  C   UNL     1       7.944  32.033  59.490  1.00  0.00     0.050 C 
HETATM   13  C   UNL     1      10.132  31.376  58.454  1.00  0.00     0.009 A 
HETATM   14  C   UNL     1      10.915  30.557  57.637  1.00  0.00     0.002 A 
HETATM   15  C   UNL     1       6.206  28.704  57.424  1.00  0.00     0.253 A 
HETATM   16  H   UNL     1       6.233  30.307  58.644  1.00  0.00     0.169 HD
HETATM   17  O   UNL     1       5.008  28.489  57.597  1.00  0.00    -0.268 OA
ENDBRANCH   4   5
ENDBRANCH   1   4
BRANCH   1  18
HETATM   18  C   UNL     1       7.330  26.078  53.683  1.00  0.00     0.158 C 
BRANCH  18  19
HETATM   19  C   UNL     1       7.183  24.550  53.762  1.00  0.00     0.139 C 
HETATM   20  O   UNL     1       7.963  24.048  54.869  1.00  0.00    -0.384 OA
HETATM   21  C   UNL     1       8.675  22.881  54.430  1.00  0.00     0.168 C 
HETATM   22  C   UNL     1       8.052  22.466  53.115  1.00  0.00     0.029 C 
HETATM   23  C   UNL     1       7.667  23.800  52.529  1.00  0.00     0.035 C 
ENDBRANCH  18  19
ENDBRANCH   1  18
BRANCH   2  24
HETATM   24  C   UNL     1       5.224  27.720  52.276  1.00  0.00     0.034 A 
HETATM   25  C   UNL     1       5.667  28.954  51.777  1.00  0.00     0.053 A 
HETATM   26  C   UNL     1       5.727  29.168  50.401  1.00  0.00     0.069 A 
HETATM   27  C   UNL     1       5.325  28.151  49.530  1.00  0.00     0.037 A 
HETATM   28  C   UNL     1       4.916  26.910  50.023  1.00  0.00     0.004 A 
HETATM   29  C   UNL     1       4.888  26.684  51.398  1.00  0.00     0.017 A 
BRANCH  26  30
HETATM   30  O   UNL     1       6.145  30.319  49.790  1.00  0.00    -0.356 OA
HETATM   31  C   UNL     1       5.183  30.988  48.982  1.00  0.00     0.210 C 
ENDBRANCH  26  30
ENDBRANCH   2  24
TORSDOF 6
ENDMDL
MODEL 8
REMARK VINA RESULT:      -9.1      2.166      7.289
REMARK  6 active torsions:
REMARK  status: ('A' for Active; 'I' for Inactive)
REMARK    1  A    between atoms: C_6  and  C_7 
REMARK    2  A    between atoms: C_7  and  N_8 
REMARK       I    between atoms: N_8  and  C_9 
REMARK    3  A    between atoms: N_8  and  C_19 
REMARK    4  A    between atoms: C_9  and  C_10 
REMARK    5  A    between atoms: C_12  and  O_13 
REMARK    6  A    between atoms: C_19  and  C_20 
ROOT
HETATM    1  N   UNL     1       6.354  26.424  54.787  1.00  0.00    -0.341 N 
HETATM    2  C   UNL     1       6.757  25.275  55.476  1.00  0.00     0.254 C 
HETATM    3  O   UNL     1       6.635  25.152  56.695  1.00  0.00    -0.267 OA
ENDROOT
BRANCH   1   4
HETATM    4  C   UNL     1       5.701  27.478  55.575  1.00  0.00     0.170 C 
BRANCH   4   5
HETATM    5  C   UNL     1       6.665  28.360  56.319  1.00  0.00     0.029 A 
HETATM    6  C   UNL     1       7.985  28.503  56.103  1.00  0.00     0.028 A 
HETATM    7  C   UNL     1       8.787  29.441  56.890  1.00  0.00    -0.008 A 
HETATM    8  C   UNL     1       8.168  30.208  57.888  1.00  0.00     0.051 A 
HETATM    9  C   UNL     1      10.154  29.594  56.649  1.00  0.00     0.014 A 
HETATM   10  C   UNL     1       8.905  31.130  58.652  1.00  0.00    -0.034 A 
HETATM   11  N   UNL     1       6.795  30.032  58.106  1.00  0.00    -0.322 N 
HETATM   12  C   UNL     1       8.268  31.975  59.718  1.00  0.00     0.050 C 
HETATM   13  C   UNL     1      10.277  31.268  58.392  1.00  0.00     0.009 A 
HETATM   14  C   UNL     1      10.896  30.505  57.400  1.00  0.00     0.002 A 
HETATM   15  C   UNL     1       6.013  29.160  57.402  1.00  0.00     0.253 A 
HETATM   16  H   UNL     1       6.315  30.561  58.819  1.00  0.00     0.169 HD
HETATM   17  O   UNL     1       4.817  29.038  57.661  1.00  0.00    -0.268 OA
ENDBRANCH   4   5
ENDBRANCH   1   4
BRANCH   1  18
HETATM   18  C   UNL     1       6.671  26.728  53.381  1.00  0.00     0.158 C 
BRANCH  18  19
HETATM   19  C   UNL     1       5.470  27.123  52.508  1.00  0.00     0.139 C 
HETATM   20  O   UNL     1       5.299  26.149  51.456  1.00  0.00    -0.384 OA
HETATM   21  C   UNL     1       5.054  26.849  50.226  1.00  0.00     0.168 C 
HETATM   22  C   UNL     1       4.735  28.279  50.600  1.00  0.00     0.029 C 
HETATM   23  C   UNL     1       5.602  28.473  51.818  1.00  0.00     0.035 C 
ENDBRANCH  18  19
ENDBRANCH   1  18
BRANCH   2  24
HETATM   24  C   UNL     1       7.362  24.131  54.757  1.00  0.00     0.034 A 
HETATM   25  C   UNL     1       8.254  23.312  55.465  1.00  0.00     0.053 A 
HETATM   26  C   UNL     1       8.811  22.192  54.848  1.00  0.00     0.069 A 
HETATM   27  C   UNL     1       8.486  21.908  53.519  1.00  0.00     0.037 A 
HETATM   28  C   UNL     1       7.572  22.701  52.822  1.00  0.00     0.004 A 
HETATM   29  C   UNL     1       6.989  23.802  53.449  1.00  0.00     0.017 A 
BRANCH  26  30
HETATM   30  O   UNL     1       9.685  21.314  55.430  1.00  0.00    -0.356 OA
HETATM   31  C   UNL     1       9.108  20.303  56.250  1.00  0.00     0.210 C 
ENDBRANCH  26  30
ENDBRANCH   2  24
TORSDOF 6
ENDMDL
MODEL 9
REMARK VINA RESULT:      -9.1      3.313      7.614
REMARK  6 active torsions:
REMARK  status: ('A' for Active; 'I' for Inactive)
REMARK    1  A    between atoms: C_6  and  C_7 
REMARK    2  A    between atoms: C_7  and  N_8 
REMARK       I    between atoms: N_8  and  C_9 
REMARK    3  A    between atoms: N_8  and  C_19 
REMARK    4  A    between atoms: C_9  and  C_10 
REMARK    5  A    between atoms: C_12  and  O_13 
REMARK    6  A    between atoms: C_19  and  C_20 
ROOT
HETATM    1  N   UNL     1       6.622  26.074  53.432  1.00  0.00    -0.341 N 
HETATM    2  C   UNL     1       7.658  25.254  52.975  1.00  0.00     0.254 C 
HETATM    3  O   UNL     1       8.450  25.606  52.101  1.00  0.00    -0.267 OA
ENDROOT
BRANCH   1   4
HETATM    4  C   UNL     1       6.549  27.430  52.872  1.00  0.00     0.170 C 
BRANCH   4   5
HETATM    5  C   UNL     1       5.551  27.568  51.756  1.00  0.00     0.029 A 
HETATM    6  C   UNL     1       5.420  26.788  50.668  1.00  0.00     0.028 A 
HETATM    7  C   UNL     1       4.363  27.028  49.684  1.00  0.00    -0.008 A 
HETATM    8  C   UNL     1       3.468  28.091  49.878  1.00  0.00     0.051 A 
HETATM    9  C   UNL     1       4.224  26.205  48.564  1.00  0.00     0.014 A 
HETATM   10  C   UNL     1       2.432  28.340  48.961  1.00  0.00    -0.034 A 
HETATM   11  N   UNL     1       3.633  28.900  51.010  1.00  0.00    -0.322 N 
HETATM   12  C   UNL     1       1.451  29.461  49.149  1.00  0.00     0.050 C 
HETATM   13  C   UNL     1       2.311  27.499  47.844  1.00  0.00     0.009 A 
HETATM   14  C   UNL     1       3.201  26.441  47.647  1.00  0.00     0.002 A 
HETATM   15  C   UNL     1       4.612  28.718  51.947  1.00  0.00     0.253 A 
HETATM   16  H   UNL     1       3.013  29.678  51.182  1.00  0.00     0.169 HD
HETATM   17  O   UNL     1       4.714  29.480  52.905  1.00  0.00    -0.268 OA
ENDBRANCH   4   5
ENDBRANCH   1   4
BRANCH   1  18
HETATM   18  C   UNL     1       5.514  25.641  54.302  1.00  0.00     0.158 C 
BRANCH  18  19
HETATM   19  C   UNL     1       5.474  26.299  55.690  1.00  0.00     0.139 C 
HETATM   20  O   UNL     1       4.681  27.505  55.628  1.00  0.00    -0.384 OA
HETATM   21  C   UNL     1       5.374  28.540  56.341  1.00  0.00     0.168 C 
HETATM   22  C   UNL     1       6.458  27.858  57.145  1.00  0.00     0.029 C 
HETATM   23  C   UNL     1       6.831  26.713  56.238  1.00  0.00     0.035 C 
ENDBRANCH  18  19
ENDBRANCH   1  18
BRANCH   2  24
HETATM   24  C   UNL     1       7.854  23.896  53.531  1.00  0.00     0.034 A 
HETATM   25  C   UNL     1       8.160  23.786  54.895  1.00  0.00     0.053 A 
HETATM   26  C   UNL     1       8.304  22.527  55.478  1.00  0.00     0.069 A 
HETATM   27  C   UNL     1       8.159  21.384  54.688  1.00  0.00     0.037 A 
HETATM   28  C   UNL     1       7.820  21.489  53.337  1.00  0.00     0.004 A 
HETATM   29  C   UNL     1       7.643  22.747  52.761  1.00  0.00     0.017 A 
BRANCH  26  30
HETATM   30  O   UNL     1       8.594  22.287  56.794  1.00  0.00    -0.356 OA
HETATM   31  C   UNL     1       8.475  20.936  57.228  1.00  0.00     0.210 C 
ENDBRANCH  26  30
ENDBRANCH   2  24
TORSDOF 6
ENDMDL
MODEL 10
REMARK VINA RESULT:      -8.9      2.600      7.255
REMARK  6 active torsions:
REMARK  status: ('A' for Active; 'I' for Inactive)
REMARK    1  A    between atoms: C_6  and  C_7 
REMARK    2  A    between atoms: C_7  and  N_8 
REMARK       I    between atoms: N_8  and  C_9 
REMARK    3  A    between atoms: N_8  and  C_19 
REMARK    4  A    between atoms: C_9  and  C_10 
REMARK    5  A    between atoms: C_12  and  O_13 
REMARK    6  A    between atoms: C_19  and  C_20 
ROOT
HETATM    1  N   UNL     1       6.572  27.770  55.165  1.00  0.00    -0.341 N 
HETATM    2  C   UNL     1       6.193  26.531  55.691  1.00  0.00     0.254 C 
HETATM    3  O   UNL     1       5.052  26.295  56.086  1.00  0.00    -0.267 OA
ENDROOT
BRANCH   1   4
HETATM    4  C   UNL     1       5.519  28.786  55.032  1.00  0.00     0.170 C 
BRANCH   4   5
HETATM    5  C   UNL     1       4.832  28.769  53.695  1.00  0.00     0.029 A 
HETATM    6  C   UNL     1       5.143  28.026  52.618  1.00  0.00     0.028 A 
HETATM    7  C   UNL     1       4.345  28.090  51.392  1.00  0.00    -0.008 A 
HETATM    8  C   UNL     1       3.232  28.943  51.338  1.00  0.00     0.051 A 
HETATM    9  C   UNL     1       4.667  27.305  50.284  1.00  0.00     0.014 A 
HETATM   10  C   UNL     1       2.435  29.018  50.183  1.00  0.00    -0.034 A 
HETATM   11  N   UNL     1       2.935  29.720  52.467  1.00  0.00    -0.322 N 
HETATM   12  C   UNL     1       1.230  29.911  50.101  1.00  0.00     0.050 C 
HETATM   13  C   UNL     1       2.776  28.219  49.082  1.00  0.00     0.009 A 
HETATM   14  C   UNL     1       3.884  27.370  49.132  1.00  0.00     0.002 A 
HETATM   15  C   UNL     1       3.660  29.698  53.625  1.00  0.00     0.253 A 
HETATM   16  H   UNL     1       2.147  30.350  52.465  1.00  0.00     0.169 HD
HETATM   17  O   UNL     1       3.357  30.423  54.570  1.00  0.00    -0.268 OA
ENDBRANCH   4   5
ENDBRANCH   1   4
BRANCH   1  18
HETATM   18  C   UNL     1       7.956  28.190  54.886  1.00  0.00     0.158 C 
BRANCH  18  19
HETATM   19  C   UNL     1       8.514  29.277  55.817  1.00  0.00     0.139 C 
HETATM   20  O   UNL     1       9.835  29.658  55.376  1.00  0.00    -0.384 OA
HETATM   21  C   UNL     1      10.689  29.746  56.527  1.00  0.00     0.168 C 
HETATM   22  C   UNL     1       9.783  29.746  57.737  1.00  0.00     0.029 C 
HETATM   23  C   UNL     1       8.658  28.856  57.273  1.00  0.00     0.035 C 
ENDBRANCH  18  19
ENDBRANCH   1  18
BRANCH   2  24
HETATM   24  C   UNL     1       7.169  25.422  55.799  1.00  0.00     0.034 A 
HETATM   25  C   UNL     1       7.375  24.620  54.667  1.00  0.00     0.053 A 
HETATM   26  C   UNL     1       8.320  23.595  54.703  1.00  0.00     0.069 A 
HETATM   27  C   UNL     1       9.041  23.366  55.878  1.00  0.00     0.037 A 
HETATM   28  C   UNL     1       8.862  24.184  56.995  1.00  0.00     0.004 A 
HETATM   29  C   UNL     1       7.942  25.230  56.950  1.00  0.00     0.017 A 
BRANCH  26  30
HETATM   30  O   UNL     1       8.619  22.750  53.668  1.00  0.00    -0.356 OA
HETATM   31  C   UNL     1       8.607  21.358  53.968  1.00  0.00     0.210 C 
ENDBRANCH  26  30
ENDBRANCH   2  24
TORSDOF 6
ENDMDL
