MODEL 1
REMARK VINA RESULT:     -10.2      0.000      0.000
REMARK  5 active torsions:
REMARK  status: ('A' for Active; 'I' for Inactive)
REMARK    1  A    between atoms: C_2  and  O_4 
REMARK    2  A    between atoms: O_4  and  C_5 
REMARK    3  A    between atoms: C_10  and  C_11 
REMARK    4  A    between atoms: C_13  and  N_14 
REMARK    5  A    between atoms: N_14  and  C_15 
ROOT
HETATM    1  C   UNL     1       7.029  24.809  53.303  1.00  0.00     0.164 A 
HETATM    2  N   UNL     1       7.594  25.876  53.882  1.00  0.00    -0.215 NA
HETATM    3  C   UNL     1       7.219  27.095  53.459  1.00  0.00     0.122 A 
HETATM    4  C   UNL     1       6.323  27.264  52.385  1.00  0.00     0.033 A 
HETATM    5  C   UNL     1       5.943  28.508  51.813  1.00  0.00     0.017 A 
HETATM    6  C   UNL     1       5.027  28.563  50.764  1.00  0.00     0.001 A 
HETATM    7  C   UNL     1       4.482  27.386  50.273  1.00  0.00     0.002 A 
HETATM    8  C   UNL     1       4.866  26.162  50.828  1.00  0.00     0.032 A 
HETATM    9  C   UNL     1       5.781  26.080  51.869  1.00  0.00     0.072 A 
HETATM   10  N   UNL     1       6.107  24.871  52.330  1.00  0.00    -0.228 NA
ENDROOT
BRANCH   3  11
HETATM   11  N   UNL     1       7.805  28.246  54.070  1.00  0.00    -0.243 NA
HETATM   12  H   UNL     1       7.536  29.054  53.512  1.00  0.00     0.135 HD
BRANCH  11  13
HETATM   13  C   UNL     1       7.645  28.632  55.430  1.00  0.00     0.015 A 
HETATM   14  C   UNL     1       6.389  28.698  56.048  1.00  0.00     0.026 A 
HETATM   15  C   UNL     1       6.229  29.168  57.358  1.00  0.00     0.034 A 
HETATM   16  C   UNL     1       7.377  29.604  58.018  1.00  0.00     0.061 A 
HETATM   17  N   UNL     1       7.569  30.106  59.278  1.00  0.00    -0.278 N 
HETATM   18  C   UNL     1       8.635  29.595  57.428  1.00  0.00     0.013 A 
HETATM   19  H   UNL     1       6.870  30.252  59.996  1.00  0.00     0.189 HD
HETATM   20  N   UNL     1       8.847  30.432  59.549  1.00  0.00    -0.186 NA
HETATM   21  C   UNL     1       9.492  30.116  58.423  1.00  0.00     0.152 A 
HETATM   22  C   UNL     1       8.773  29.124  56.111  1.00  0.00     0.039 A 
ENDBRANCH  11  13
ENDBRANCH   3  11
BRANCH   1  23
HETATM   23  C   UNL     1       7.406  23.476  53.796  1.00  0.00     0.046 A 
HETATM   24  C   UNL     1       7.308  23.104  55.149  1.00  0.00     0.093 A 
HETATM   25  C   UNL     1       7.696  21.838  55.604  1.00  0.00     0.038 A 
HETATM   26  C   UNL     1       8.160  20.892  54.695  1.00  0.00     0.003 A 
HETATM   27  C   UNL     1       8.260  21.221  53.345  1.00  0.00     0.001 A 
HETATM   28  C   UNL     1       7.893  22.499  52.904  1.00  0.00     0.018 A 
BRANCH  24  29
HETATM   29  O   UNL     1       6.933  24.062  56.105  1.00  0.00    -0.278 OA
BRANCH  29  30
HETATM   30  C   UNL     1       7.986  24.559  56.866  1.00  0.00     0.260 C 
HETATM   31  C   UNL     1       7.467  25.669  57.731  1.00  0.00     0.126 C 
HETATM   32  O   UNL     1       9.159  24.210  56.818  1.00  0.00    -0.265 OA
ENDBRANCH  29  30
ENDBRANCH  24  29
ENDBRANCH   1  23
TORSDOF 5
ENDMDL
MODEL 2
REMARK VINA RESULT:     -10.0      2.057      5.799
REMARK  5 active torsions:
REMARK  status: ('A' for Active; 'I' for Inactive)
REMARK    1  A    between atoms: C_2  and  O_4 
REMARK    2  A    between atoms: O_4  and  C_5 
REMARK    3  A    between atoms: C_10  and  C_11 
REMARK    4  A    between atoms: C_13  and  N_14 
REMARK    5  A    between atoms: N_14  and  C_15 
ROOT
HETATM    1  C   UNL     1       7.550  27.659  54.184  1.00  0.00     0.164 A 
HETATM    2  N   UNL     1       7.965  26.433  53.841  1.00  0.00    -0.215 NA
HETATM    3  C   UNL     1       7.397  25.851  52.771  1.00  0.00     0.122 A 
HETATM    4  C   UNL     1       6.339  26.462  52.069  1.00  0.00     0.033 A 
HETATM    5  C   UNL     1       5.620  25.884  50.989  1.00  0.00     0.017 A 
HETATM    6  C   UNL     1       4.603  26.587  50.348  1.00  0.00     0.001 A 
HETATM    7  C   UNL     1       4.288  27.869  50.773  1.00  0.00     0.002 A 
HETATM    8  C   UNL     1       4.987  28.433  51.845  1.00  0.00     0.032 A 
HETATM    9  C   UNL     1       6.001  27.750  52.504  1.00  0.00     0.072 A 
HETATM   10  N   UNL     1       6.606  28.354  53.529  1.00  0.00    -0.228 NA
ENDROOT
BRANCH   3  11
HETATM   11  N   UNL     1       7.832  24.547  52.385  1.00  0.00    -0.243 NA
HETATM   12  H   UNL     1       8.726  24.655  51.909  1.00  0.00     0.135 HD
BRANCH  11  13
HETATM   13  C   UNL     1       7.980  23.432  53.256  1.00  0.00     0.015 A 
HETATM   14  C   UNL     1       7.825  22.111  52.816  1.00  0.00     0.026 A 
HETATM   15  C   UNL     1       7.879  21.022  53.696  1.00  0.00     0.034 A 
HETATM   16  C   UNL     1       8.061  21.312  55.048  1.00  0.00     0.061 A 
HETATM   17  N   UNL     1       8.163  20.501  56.148  1.00  0.00    -0.278 N 
HETATM   18  C   UNL     1       8.177  22.608  55.533  1.00  0.00     0.013 A 
HETATM   19  H   UNL     1       8.126  19.489  56.173  1.00  0.00     0.189 HD
HETATM   20  N   UNL     1       8.325  21.167  57.306  1.00  0.00    -0.186 NA
HETATM   21  C   UNL     1       8.336  22.448  56.927  1.00  0.00     0.152 A 
HETATM   22  C   UNL     1       8.115  23.686  54.633  1.00  0.00     0.039 A 
ENDBRANCH  11  13
ENDBRANCH   3  11
BRANCH   1  23
HETATM   23  C   UNL     1       8.202  28.314  55.328  1.00  0.00     0.046 A 
HETATM   24  C   UNL     1       7.759  28.156  56.654  1.00  0.00     0.093 A 
HETATM   25  C   UNL     1       8.377  28.808  57.728  1.00  0.00     0.038 A 
HETATM   26  C   UNL     1       9.490  29.612  57.497  1.00  0.00     0.003 A 
HETATM   27  C   UNL     1       9.963  29.782  56.198  1.00  0.00     0.001 A 
HETATM   28  C   UNL     1       9.322  29.146  55.128  1.00  0.00     0.018 A 
BRANCH  24  29
HETATM   29  O   UNL     1       6.586  27.429  56.911  1.00  0.00    -0.278 OA
BRANCH  29  30
HETATM   30  C   UNL     1       6.801  26.133  57.369  1.00  0.00     0.260 C 
HETATM   31  C   UNL     1       5.627  25.287  56.976  1.00  0.00     0.126 C 
HETATM   32  O   UNL     1       7.749  25.735  58.035  1.00  0.00    -0.265 OA
ENDBRANCH  29  30
ENDBRANCH  24  29
ENDBRANCH   1  23
TORSDOF 5
ENDMDL
MODEL 3
REMARK VINA RESULT:      -9.9      3.505      7.353
REMARK  5 active torsions:
REMARK  status: ('A' for Active; 'I' for Inactive)
REMARK    1  A    between atoms: C_2  and  O_4 
REMARK    2  A    between atoms: O_4  and  C_5 
REMARK    3  A    between atoms: C_10  and  C_11 
REMARK    4  A    between atoms: C_13  and  N_14 
REMARK    5  A    between atoms: N_14  and  C_15 
ROOT
HETATM    1  C   UNL     1       5.381  27.262  51.576  1.00  0.00     0.164 A 
HETATM    2  N   UNL     1       6.447  26.561  51.981  1.00  0.00    -0.215 NA
HETATM    3  C   UNL     1       6.686  26.482  53.301  1.00  0.00     0.122 A 
HETATM    4  C   UNL     1       5.899  27.176  54.240  1.00  0.00     0.033 A 
HETATM    5  C   UNL     1       6.132  27.225  55.641  1.00  0.00     0.017 A 
HETATM    6  C   UNL     1       5.274  27.926  56.485  1.00  0.00     0.001 A 
HETATM    7  C   UNL     1       4.178  28.585  55.949  1.00  0.00     0.002 A 
HETATM    8  C   UNL     1       3.956  28.548  54.569  1.00  0.00     0.032 A 
HETATM    9  C   UNL     1       4.800  27.861  53.706  1.00  0.00     0.072 A 
HETATM   10  N   UNL     1       4.526  27.890  52.400  1.00  0.00    -0.228 NA
ENDROOT
BRANCH   3  11
HETATM   11  N   UNL     1       7.815  25.731  53.752  1.00  0.00    -0.243 NA
HETATM   12  H   UNL     1       8.199  26.219  54.559  1.00  0.00     0.135 HD
BRANCH  11  13
HETATM   13  C   UNL     1       7.808  24.349  54.090  1.00  0.00     0.015 A 
HETATM   14  C   UNL     1       7.624  23.900  55.405  1.00  0.00     0.026 A 
HETATM   15  C   UNL     1       7.712  22.544  55.746  1.00  0.00     0.034 A 
HETATM   16  C   UNL     1       8.025  21.653  54.720  1.00  0.00     0.061 A 
HETATM   17  N   UNL     1       8.178  20.292  54.710  1.00  0.00    -0.278 N 
HETATM   18  C   UNL     1       8.255  22.060  53.412  1.00  0.00     0.013 A 
HETATM   19  H   UNL     1       8.080  19.655  55.492  1.00  0.00     0.189 HD
HETATM   20  N   UNL     1       8.498  19.785  53.506  1.00  0.00    -0.186 NA
HETATM   21  C   UNL     1       8.541  20.863  52.718  1.00  0.00     0.152 A 
HETATM   22  C   UNL     1       8.167  23.426  53.092  1.00  0.00     0.039 A 
ENDBRANCH  11  13
ENDBRANCH   3  11
BRANCH   1  23
HETATM   23  C   UNL     1       5.093  27.312  50.136  1.00  0.00     0.046 A 
HETATM   24  C   UNL     1       5.496  28.378  49.311  1.00  0.00     0.093 A 
HETATM   25  C   UNL     1       5.192  28.421  47.945  1.00  0.00     0.038 A 
HETATM   26  C   UNL     1       4.500  27.363  47.361  1.00  0.00     0.003 A 
HETATM   27  C   UNL     1       4.095  26.285  48.144  1.00  0.00     0.001 A 
HETATM   28  C   UNL     1       4.383  26.265  49.514  1.00  0.00     0.018 A 
BRANCH  24  29
HETATM   29  O   UNL     1       6.113  29.503  49.885  1.00  0.00    -0.278 OA
BRANCH  29  30
HETATM   30  C   UNL     1       5.304  30.632  49.949  1.00  0.00     0.260 C 
HETATM   31  C   UNL     1       6.097  31.814  49.476  1.00  0.00     0.126 C 
HETATM   32  O   UNL     1       4.155  30.694  50.370  1.00  0.00    -0.265 OA
ENDBRANCH  29  30
ENDBRANCH  24  29
ENDBRANCH   1  23
TORSDOF 5
ENDMDL
MODEL 4
REMARK VINA RESULT:      -9.8      2.454      7.268
REMARK  5 active torsions:
REMARK  status: ('A' for Active; 'I' for Inactive)
REMARK    1  A    between atoms: C_2  and  O_4 
REMARK    2  A    between atoms: O_4  and  C_5 
REMARK    3  A    between atoms: C_10  and  C_11 
REMARK    4  A    between atoms: C_13  and  N_14 
REMARK    5  A    between atoms: N_14  and  C_15 
ROOT
HETATM    1  C   UNL     1       7.138  27.963  57.168  1.00  0.00     0.164 A 
HETATM    2  N   UNL     1       6.148  27.797  56.281  1.00  0.00    -0.215 NA
HETATM    3  C   UNL     1       5.961  26.569  55.768  1.00  0.00     0.122 A 
HETATM    4  C   UNL     1       6.822  25.497  56.076  1.00  0.00     0.033 A 
HETATM    5  C   UNL     1       6.757  24.195  55.512  1.00  0.00     0.017 A 
HETATM    6  C   UNL     1       7.646  23.198  55.907  1.00  0.00     0.001 A 
HETATM    7  C   UNL     1       8.609  23.484  56.864  1.00  0.00     0.002 A 
HETATM    8  C   UNL     1       8.681  24.769  57.410  1.00  0.00     0.032 A 
HETATM    9  C   UNL     1       7.810  25.781  57.028  1.00  0.00     0.072 A 
HETATM   10  N   UNL     1       7.957  26.985  57.585  1.00  0.00    -0.228 NA
ENDROOT
BRANCH   3  11
HETATM   11  N   UNL     1       4.905  26.370  54.827  1.00  0.00    -0.243 NA
HETATM   12  H   UNL     1       4.103  26.904  55.155  1.00  0.00     0.135 HD
BRANCH  11  13
HETATM   13  C   UNL     1       4.990  26.604  53.426  1.00  0.00     0.015 A 
HETATM   14  C   UNL     1       5.074  25.559  52.495  1.00  0.00     0.026 A 
HETATM   15  C   UNL     1       5.251  25.795  51.126  1.00  0.00     0.034 A 
HETATM   16  C   UNL     1       5.376  27.126  50.725  1.00  0.00     0.061 A 
HETATM   17  N   UNL     1       5.549  27.693  49.491  1.00  0.00    -0.278 N 
HETATM   18  C   UNL     1       5.340  28.189  51.618  1.00  0.00     0.013 A 
HETATM   19  H   UNL     1       5.617  27.218  48.598  1.00  0.00     0.189 HD
HETATM   20  N   UNL     1       5.639  29.035  49.512  1.00  0.00    -0.186 NA
HETATM   21  C   UNL     1       5.508  29.333  50.808  1.00  0.00     0.152 A 
HETATM   22  C   UNL     1       5.166  27.929  52.989  1.00  0.00     0.039 A 
ENDBRANCH  11  13
ENDBRANCH   3  11
BRANCH   1  23
HETATM   23  C   UNL     1       7.314  29.295  57.763  1.00  0.00     0.046 A 
HETATM   24  C   UNL     1       8.577  29.843  58.053  1.00  0.00     0.093 A 
HETATM   25  C   UNL     1       8.725  31.104  58.645  1.00  0.00     0.038 A 
HETATM   26  C   UNL     1       7.596  31.868  58.927  1.00  0.00     0.003 A 
HETATM   27  C   UNL     1       6.330  31.363  58.643  1.00  0.00     0.001 A 
HETATM   28  C   UNL     1       6.193  30.091  58.074  1.00  0.00     0.018 A 
BRANCH  24  29
HETATM   29  O   UNL     1       9.730  29.062  57.868  1.00  0.00    -0.278 OA
BRANCH  29  30
HETATM   30  C   UNL     1      10.647  29.595  56.969  1.00  0.00     0.260 C 
HETATM   31  C   UNL     1      10.040  29.569  55.598  1.00  0.00     0.126 C 
HETATM   32  O   UNL     1      11.786  29.974  57.215  1.00  0.00    -0.265 OA
ENDBRANCH  29  30
ENDBRANCH  24  29
ENDBRANCH   1  23
TORSDOF 5
ENDMDL
MODEL 5
REMARK VINA RESULT:      -9.7      2.628      6.979
REMARK  5 active torsions:
REMARK  status: ('A' for Active; 'I' for Inactive)
REMARK    1  A    between atoms: C_2  and  O_4 
REMARK    2  A    between atoms: O_4  and  C_5 
REMARK    3  A    between atoms: C_10  and  C_11 
REMARK    4  A    between atoms: C_13  and  N_14 
REMARK    5  A    between atoms: N_14  and  C_15 
ROOT
HETATM    1  C   UNL     1       7.968  27.860  55.936  1.00  0.00     0.164 A 
HETATM    2  N   UNL     1       7.708  26.679  56.510  1.00  0.00    -0.215 NA
HETATM    3  C   UNL     1       6.962  25.796  55.825  1.00  0.00     0.122 A 
HETATM    4  C   UNL     1       6.393  26.116  54.576  1.00  0.00     0.033 A 
HETATM    5  C   UNL     1       5.520  25.283  53.826  1.00  0.00     0.017 A 
HETATM    6  C   UNL     1       5.032  25.689  52.586  1.00  0.00     0.001 A 
HETATM    7  C   UNL     1       5.404  26.926  52.080  1.00  0.00     0.002 A 
HETATM    8  C   UNL     1       6.253  27.751  52.824  1.00  0.00     0.032 A 
HETATM    9  C   UNL     1       6.748  27.371  54.064  1.00  0.00     0.072 A 
HETATM   10  N   UNL     1       7.539  28.225  54.717  1.00  0.00    -0.228 NA
ENDROOT
BRANCH   3  11
HETATM   11  N   UNL     1       6.680  24.527  56.417  1.00  0.00    -0.243 NA
HETATM   12  H   UNL     1       5.675  24.378  56.350  1.00  0.00     0.135 HD
BRANCH  11  13
HETATM   13  C   UNL     1       7.288  23.292  56.056  1.00  0.00     0.015 A 
HETATM   14  C   UNL     1       8.088  22.562  56.945  1.00  0.00     0.026 A 
HETATM   15  C   UNL     1       8.759  21.395  56.556  1.00  0.00     0.034 A 
HETATM   16  C   UNL     1       8.625  21.004  55.224  1.00  0.00     0.061 A 
HETATM   17  N   UNL     1       9.132  19.936  54.532  1.00  0.00    -0.278 N 
HETATM   18  C   UNL     1       7.877  21.721  54.298  1.00  0.00     0.013 A 
HETATM   19  H   UNL     1       9.724  19.195  54.889  1.00  0.00     0.189 HD
HETATM   20  N   UNL     1       8.782  19.907  53.233  1.00  0.00    -0.186 NA
HETATM   21  C   UNL     1       8.015  20.993  53.096  1.00  0.00     0.152 A 
HETATM   22  C   UNL     1       7.215  22.891  54.710  1.00  0.00     0.039 A 
ENDBRANCH  11  13
ENDBRANCH   3  11
BRANCH   1  23
HETATM   23  C   UNL     1       8.820  28.809  56.666  1.00  0.00     0.046 A 
HETATM   24  C   UNL     1       8.343  29.619  57.712  1.00  0.00     0.093 A 
HETATM   25  C   UNL     1       9.164  30.536  58.380  1.00  0.00     0.038 A 
HETATM   26  C   UNL     1      10.508  30.635  58.033  1.00  0.00     0.003 A 
HETATM   27  C   UNL     1      11.019  29.841  57.010  1.00  0.00     0.001 A 
HETATM   28  C   UNL     1      10.183  28.945  56.332  1.00  0.00     0.018 A 
BRANCH  24  29
HETATM   29  O   UNL     1       6.973  29.612  58.024  1.00  0.00    -0.278 OA
BRANCH  29  30
HETATM   30  C   UNL     1       6.251  30.664  57.469  1.00  0.00     0.260 C 
HETATM   31  C   UNL     1       5.875  31.615  58.566  1.00  0.00     0.126 C 
HETATM   32  O   UNL     1       5.913  30.789  56.298  1.00  0.00    -0.265 OA
ENDBRANCH  29  30
ENDBRANCH  24  29
ENDBRANCH   1  23
TORSDOF 5
ENDMDL
MODEL 6
REMARK VINA RESULT:      -9.6      2.472      5.443
REMARK  5 active torsions:
REMARK  status: ('A' for Active; 'I' for Inactive)
REMARK    1  A    between atoms: C_2  and  O_4 
REMARK    2  A    between atoms: O_4  and  C_5 
REMARK    3  A    between atoms: C_10  and  C_11 
REMARK    4  A    between atoms: C_13  and  N_14 
REMARK    5  A    between atoms: N_14  and  C_15 
ROOT
HETATM    1  C   UNL     1       5.590  26.001  51.930  1.00  0.00     0.164 A 
HETATM    2  N   UNL     1       5.025  26.327  53.099  1.00  0.00    -0.215 NA
HETATM    3  C   UNL     1       5.480  25.723  54.210  1.00  0.00     0.122 A 
HETATM    4  C   UNL     1       6.463  24.715  54.157  1.00  0.00     0.033 A 
HETATM    5  C   UNL     1       6.936  23.961  55.264  1.00  0.00     0.017 A 
HETATM    6  C   UNL     1       7.932  23.001  55.103  1.00  0.00     0.001 A 
HETATM    7  C   UNL     1       8.467  22.778  53.842  1.00  0.00     0.002 A 
HETATM    8  C   UNL     1       7.993  23.512  52.751  1.00  0.00     0.032 A 
HETATM    9  C   UNL     1       6.997  24.470  52.885  1.00  0.00     0.072 A 
HETATM   10  N   UNL     1       6.588  25.114  51.789  1.00  0.00    -0.228 NA
ENDROOT
BRANCH   3  11
HETATM   11  N   UNL     1       4.895  26.063  55.468  1.00  0.00    -0.243 NA
HETATM   12  H   UNL     1       5.060  25.282  56.100  1.00  0.00     0.135 HD
BRANCH  11  13
HETATM   13  C   UNL     1       5.168  27.243  56.215  1.00  0.00     0.015 A 
HETATM   14  C   UNL     1       4.303  28.346  56.218  1.00  0.00     0.026 A 
HETATM   15  C   UNL     1       4.621  29.538  56.880  1.00  0.00     0.034 A 
HETATM   16  C   UNL     1       5.861  29.597  57.516  1.00  0.00     0.061 A 
HETATM   17  N   UNL     1       6.467  30.588  58.241  1.00  0.00    -0.278 N 
HETATM   18  C   UNL     1       6.766  28.543  57.503  1.00  0.00     0.013 A 
HETATM   19  H   UNL     1       6.097  31.505  58.461  1.00  0.00     0.189 HD
HETATM   20  N   UNL     1       7.694  30.266  58.691  1.00  0.00    -0.186 NA
HETATM   21  C   UNL     1       7.870  29.020  58.242  1.00  0.00     0.152 A 
HETATM   22  C   UNL     1       6.429  27.356  56.828  1.00  0.00     0.039 A 
ENDBRANCH  11  13
ENDBRANCH   3  11
BRANCH   1  23
HETATM   23  C   UNL     1       5.124  26.694  50.721  1.00  0.00     0.046 A 
HETATM   24  C   UNL     1       5.122  28.095  50.594  1.00  0.00     0.093 A 
HETATM   25  C   UNL     1       4.650  28.738  49.443  1.00  0.00     0.038 A 
HETATM   26  C   UNL     1       4.199  27.980  48.367  1.00  0.00     0.003 A 
HETATM   27  C   UNL     1       4.196  26.590  48.453  1.00  0.00     0.001 A 
HETATM   28  C   UNL     1       4.647  25.957  49.617  1.00  0.00     0.018 A 
BRANCH  24  29
HETATM   29  O   UNL     1       5.482  28.891  51.693  1.00  0.00    -0.278 OA
BRANCH  29  30
HETATM   30  C   UNL     1       4.585  29.914  51.982  1.00  0.00     0.260 C 
HETATM   31  C   UNL     1       3.410  29.327  52.705  1.00  0.00     0.126 C 
HETATM   32  O   UNL     1       4.683  31.092  51.660  1.00  0.00    -0.265 OA
ENDBRANCH  29  30
ENDBRANCH  24  29
ENDBRANCH   1  23
TORSDOF 5
ENDMDL
MODEL 7
REMARK VINA RESULT:      -9.6      2.203      6.486
REMARK  5 active torsions:
REMARK  status: ('A' for Active; 'I' for Inactive)
REMARK    1  A    between atoms: C_2  and  O_4 
REMARK    2  A    between atoms: O_4  and  C_5 
REMARK    3  A    between atoms: C_10  and  C_11 
REMARK    4  A    between atoms: C_13  and  N_14 
REMARK    5  A    between atoms: N_14  and  C_15 
ROOT
HETATM    1  C   UNL     1       5.790  28.480  54.489  1.00  0.00     0.164 A 
HETATM    2  N   UNL     1       6.721  27.523  54.387  1.00  0.00    -0.215 NA
HETATM    3  C   UNL     1       6.797  26.837  53.234  1.00  0.00     0.122 A 
HETATM    4  C   UNL     1       5.881  27.047  52.184  1.00  0.00     0.033 A 
HETATM    5  C   UNL     1       5.828  26.309  50.972  1.00  0.00     0.017 A 
HETATM    6  C   UNL     1       4.893  26.616  49.986  1.00  0.00     0.001 A 
HETATM    7  C   UNL     1       4.001  27.657  50.195  1.00  0.00     0.002 A 
HETATM    8  C   UNL     1       4.045  28.376  51.393  1.00  0.00     0.032 A 
HETATM    9  C   UNL     1       4.964  28.085  52.393  1.00  0.00     0.072 A 
HETATM   10  N   UNL     1       4.927  28.808  53.514  1.00  0.00    -0.228 NA
ENDROOT
BRANCH   3  11
HETATM   11  N   UNL     1       7.790  25.818  53.103  1.00  0.00    -0.243 NA
HETATM   12  H   UNL     1       8.670  26.209  53.433  1.00  0.00     0.135 HD
BRANCH  11  13
HETATM   13  C   UNL     1       7.707  24.508  53.652  1.00  0.00     0.015 A 
HETATM   14  C   UNL     1       7.428  24.279  55.006  1.00  0.00     0.026 A 
HETATM   15  C   UNL     1       7.440  22.992  55.560  1.00  0.00     0.034 A 
HETATM   16  C   UNL     1       7.779  21.940  54.709  1.00  0.00     0.061 A 
HETATM   17  N   UNL     1       7.877  20.591  54.922  1.00  0.00    -0.278 N 
HETATM   18  C   UNL     1       8.103  22.127  53.371  1.00  0.00     0.013 A 
HETATM   19  H   UNL     1       7.708  20.089  55.785  1.00  0.00     0.189 HD
HETATM   20  N   UNL     1       8.249  19.890  53.835  1.00  0.00    -0.186 NA
HETATM   21  C   UNL     1       8.382  20.828  52.893  1.00  0.00     0.152 A 
HETATM   22  C   UNL     1       8.089  23.428  52.836  1.00  0.00     0.039 A 
ENDBRANCH  11  13
ENDBRANCH   3  11
BRANCH   1  23
HETATM   23  C   UNL     1       5.735  29.260  55.733  1.00  0.00     0.046 A 
HETATM   24  C   UNL     1       6.885  29.740  56.387  1.00  0.00     0.093 A 
HETATM   25  C   UNL     1       6.815  30.461  57.586  1.00  0.00     0.038 A 
HETATM   26  C   UNL     1       5.573  30.751  58.142  1.00  0.00     0.003 A 
HETATM   27  C   UNL     1       4.412  30.302  57.516  1.00  0.00     0.001 A 
HETATM   28  C   UNL     1       4.495  29.561  56.331  1.00  0.00     0.018 A 
BRANCH  24  29
HETATM   29  O   UNL     1       8.155  29.386  55.904  1.00  0.00    -0.278 OA
BRANCH  29  30
HETATM   30  C   UNL     1       8.964  28.738  56.832  1.00  0.00     0.260 C 
HETATM   31  C   UNL     1      10.291  29.437  56.878  1.00  0.00     0.126 C 
HETATM   32  O   UNL     1       8.689  27.732  57.475  1.00  0.00    -0.265 OA
ENDBRANCH  29  30
ENDBRANCH  24  29
ENDBRANCH   1  23
TORSDOF 5
ENDMDL
MODEL 8
REMARK VINA RESULT:      -9.6      1.076      1.811
REMARK  5 active torsions:
REMARK  status: ('A' for Active; 'I' for Inactive)
REMARK    1  A    between atoms: C_2  and  O_4 
REMARK    2  A    between atoms: O_4  and  C_5 
REMARK    3  A    between atoms: C_10  and  C_11 
REMARK    4  A    between atoms: C_13  and  N_14 
REMARK    5  A    between atoms: N_14  and  C_15 
ROOT
HETATM    1  C   UNL     1       7.062  24.674  53.329  1.00  0.00     0.164 A 
HETATM    2  N   UNL     1       7.580  25.766  53.905  1.00  0.00    -0.215 NA
HETATM    3  C   UNL     1       7.189  26.967  53.447  1.00  0.00     0.122 A 
HETATM    4  C   UNL     1       6.325  27.094  52.341  1.00  0.00     0.033 A 
HETATM    5  C   UNL     1       5.933  28.316  51.732  1.00  0.00     0.017 A 
HETATM    6  C   UNL     1       5.052  28.328  50.653  1.00  0.00     0.001 A 
HETATM    7  C   UNL     1       4.554  27.129  50.167  1.00  0.00     0.002 A 
HETATM    8  C   UNL     1       4.950  25.925  50.757  1.00  0.00     0.032 A 
HETATM    9  C   UNL     1       5.831  25.886  51.830  1.00  0.00     0.072 A 
HETATM   10  N   UNL     1       6.172  24.694  52.324  1.00  0.00    -0.228 NA
ENDROOT
BRANCH   3  11
HETATM   11  N   UNL     1       7.724  28.144  54.054  1.00  0.00    -0.243 NA
HETATM   12  H   UNL     1       7.814  28.847  53.324  1.00  0.00     0.135 HD
BRANCH  11  13
HETATM   13  C   UNL     1       7.178  28.813  55.184  1.00  0.00     0.015 A 
HETATM   14  C   UNL     1       7.949  29.138  56.309  1.00  0.00     0.026 A 
HETATM   15  C   UNL     1       7.386  29.713  57.455  1.00  0.00     0.034 A 
HETATM   16  C   UNL     1       6.007  29.921  57.447  1.00  0.00     0.061 A 
HETATM   17  N   UNL     1       5.160  30.455  58.381  1.00  0.00    -0.278 N 
HETATM   18  C   UNL     1       5.199  29.575  56.371  1.00  0.00     0.013 A 
HETATM   19  H   UNL     1       5.401  30.820  59.295  1.00  0.00     0.189 HD
HETATM   20  N   UNL     1       3.869  30.475  58.003  1.00  0.00    -0.186 NA
HETATM   21  C   UNL     1       3.898  29.942  56.778  1.00  0.00     0.152 A 
HETATM   22  C   UNL     1       5.784  28.995  55.231  1.00  0.00     0.039 A 
ENDBRANCH  11  13
ENDBRANCH   3  11
BRANCH   1  23
HETATM   23  C   UNL     1       7.456  23.361  53.859  1.00  0.00     0.046 A 
HETATM   24  C   UNL     1       7.283  22.997  55.207  1.00  0.00     0.093 A 
HETATM   25  C   UNL     1       7.687  21.750  55.700  1.00  0.00     0.038 A 
HETATM   26  C   UNL     1       8.246  20.816  54.833  1.00  0.00     0.003 A 
HETATM   27  C   UNL     1       8.423  21.138  53.489  1.00  0.00     0.001 A 
HETATM   28  C   UNL     1       8.038  22.396  53.012  1.00  0.00     0.018 A 
BRANCH  24  29
HETATM   29  O   UNL     1       6.808  23.947  56.126  1.00  0.00    -0.278 OA
BRANCH  29  30
HETATM   30  C   UNL     1       7.799  24.547  56.896  1.00  0.00     0.260 C 
HETATM   31  C   UNL     1       7.218  25.760  57.560  1.00  0.00     0.126 C 
HETATM   32  O   UNL     1       8.970  24.201  56.990  1.00  0.00    -0.265 OA
ENDBRANCH  29  30
ENDBRANCH  24  29
ENDBRANCH   1  23
TORSDOF 5
ENDMDL
MODEL 9
REMARK VINA RESULT:      -9.4      2.536      7.389
REMARK  5 active torsions:
REMARK  status: ('A' for Active; 'I' for Inactive)
REMARK    1  A    between atoms: C_2  and  O_4 
REMARK    2  A    between atoms: O_4  and  C_5 
REMARK    3  A    between atoms: C_10  and  C_11 
REMARK    4  A    between atoms: C_13  and  N_14 
REMARK    5  A    between atoms: N_14  and  C_15 
ROOT
HETATM    1  C   UNL     1       6.202  27.052  54.581  1.00  0.00     0.164 A 
HETATM    2  N   UNL     1       6.092  27.162  53.251  1.00  0.00    -0.215 NA
HETATM    3  C   UNL     1       6.440  26.103  52.500  1.00  0.00     0.122 A 
HETATM    4  C   UNL     1       6.983  24.935  53.070  1.00  0.00     0.033 A 
HETATM    5  C   UNL     1       7.461  23.808  52.351  1.00  0.00     0.017 A 
HETATM    6  C   UNL     1       7.959  22.691  53.018  1.00  0.00     0.001 A 
HETATM    7  C   UNL     1       7.987  22.682  54.404  1.00  0.00     0.002 A 
HETATM    8  C   UNL     1       7.528  23.796  55.112  1.00  0.00     0.032 A 
HETATM    9  C   UNL     1       7.033  24.924  54.470  1.00  0.00     0.072 A 
HETATM   10  N   UNL     1       6.631  25.952  55.220  1.00  0.00    -0.228 NA
ENDROOT
BRANCH   3  11
HETATM   11  N   UNL     1       6.322  26.198  51.080  1.00  0.00    -0.243 NA
HETATM   12  H   UNL     1       6.426  25.258  50.704  1.00  0.00     0.135 HD
BRANCH  11  13
HETATM   13  C   UNL     1       5.233  26.787  50.377  1.00  0.00     0.015 A 
HETATM   14  C   UNL     1       4.703  28.036  50.727  1.00  0.00     0.026 A 
HETATM   15  C   UNL     1       3.573  28.568  50.093  1.00  0.00     0.034 A 
HETATM   16  C   UNL     1       2.971  27.782  49.110  1.00  0.00     0.061 A 
HETATM   17  N   UNL     1       1.881  28.000  48.311  1.00  0.00    -0.278 N 
HETATM   18  C   UNL     1       3.438  26.521  48.761  1.00  0.00     0.013 A 
HETATM   19  H   UNL     1       1.287  28.821  48.287  1.00  0.00     0.189 HD
HETATM   20  N   UNL     1       1.597  26.980  47.480  1.00  0.00    -0.186 NA
HETATM   21  C   UNL     1       2.550  26.084  47.755  1.00  0.00     0.152 A 
HETATM   22  C   UNL     1       4.571  26.004  49.414  1.00  0.00     0.039 A 
ENDBRANCH  11  13
ENDBRANCH   3  11
BRANCH   1  23
HETATM   23  C   UNL     1       5.780  28.194  55.405  1.00  0.00     0.046 A 
HETATM   24  C   UNL     1       6.685  29.135  55.928  1.00  0.00     0.093 A 
HETATM   25  C   UNL     1       6.267  30.203  56.733  1.00  0.00     0.038 A 
HETATM   26  C   UNL     1       4.912  30.373  57.002  1.00  0.00     0.003 A 
HETATM   27  C   UNL     1       3.986  29.466  56.491  1.00  0.00     0.001 A 
HETATM   28  C   UNL     1       4.417  28.388  55.708  1.00  0.00     0.018 A 
BRANCH  24  29
HETATM   29  O   UNL     1       8.065  28.942  55.754  1.00  0.00    -0.278 OA
BRANCH  29  30
HETATM   30  C   UNL     1       8.737  28.531  56.900  1.00  0.00     0.260 C 
HETATM   31  C   UNL     1       9.998  29.333  57.027  1.00  0.00     0.126 C 
HETATM   32  O   UNL     1       8.411  27.630  57.663  1.00  0.00    -0.265 OA
ENDBRANCH  29  30
ENDBRANCH  24  29
ENDBRANCH   1  23
TORSDOF 5
ENDMDL
MODEL 10
REMARK VINA RESULT:      -9.1      2.868      7.018
REMARK  5 active torsions:
REMARK  status: ('A' for Active; 'I' for Inactive)
REMARK    1  A    between atoms: C_2  and  O_4 
REMARK    2  A    between atoms: O_4  and  C_5 
REMARK    3  A    between atoms: C_10  and  C_11 
REMARK    4  A    between atoms: C_13  and  N_14 
REMARK    5  A    between atoms: N_14  and  C_15 
ROOT
HETATM    1  C   UNL     1       6.463  30.067  57.486  1.00  0.00     0.164 A 
HETATM    2  N   UNL     1       6.210  28.755  57.578  1.00  0.00    -0.215 NA
HETATM    3  C   UNL     1       5.444  28.192  56.628  1.00  0.00     0.122 A 
HETATM    4  C   UNL     1       4.849  28.957  55.605  1.00  0.00     0.033 A 
HETATM    5  C   UNL     1       3.954  28.465  54.617  1.00  0.00     0.017 A 
HETATM    6  C   UNL     1       3.440  29.307  53.634  1.00  0.00     0.001 A 
HETATM    7  C   UNL     1       3.806  30.645  53.623  1.00  0.00     0.002 A 
HETATM    8  C   UNL     1       4.676  31.132  54.602  1.00  0.00     0.032 A 
HETATM    9  C   UNL     1       5.198  30.314  55.596  1.00  0.00     0.072 A 
HETATM   10  N   UNL     1       6.008  30.862  56.504  1.00  0.00    -0.228 NA
ENDROOT
BRANCH   3  11
HETATM   11  N   UNL     1       5.170  26.793  56.704  1.00  0.00    -0.243 NA
HETATM   12  H   UNL     1       4.211  26.655  56.390  1.00  0.00     0.135 HD
BRANCH  11  13
HETATM   13  C   UNL     1       5.940  25.764  56.093  1.00  0.00     0.015 A 
HETATM   14  C   UNL     1       5.764  25.392  54.753  1.00  0.00     0.026 A 
HETATM   15  C   UNL     1       6.458  24.317  54.183  1.00  0.00     0.034 A 
HETATM   16  C   UNL     1       7.316  23.603  55.019  1.00  0.00     0.061 A 
HETATM   17  N   UNL     1       8.129  22.527  54.786  1.00  0.00    -0.278 N 
HETATM   18  C   UNL     1       7.488  23.912  56.363  1.00  0.00     0.013 A 
HETATM   19  H   UNL     1       8.263  22.034  53.911  1.00  0.00     0.189 HD
HETATM   20  N   UNL     1       8.807  22.106  55.870  1.00  0.00    -0.186 NA
HETATM   21  C   UNL     1       8.416  22.954  56.826  1.00  0.00     0.152 A 
HETATM   22  C   UNL     1       6.778  24.992  56.916  1.00  0.00     0.039 A 
ENDBRANCH  11  13
ENDBRANCH   3  11
BRANCH   1  23
HETATM   23  C   UNL     1       7.337  30.674  58.500  1.00  0.00     0.046 A 
HETATM   24  C   UNL     1       8.675  30.284  58.689  1.00  0.00     0.093 A 
HETATM   25  C   UNL     1       9.486  30.857  59.677  1.00  0.00     0.038 A 
HETATM   26  C   UNL     1       8.976  31.872  60.482  1.00  0.00     0.003 A 
HETATM   27  C   UNL     1       7.658  32.291  60.315  1.00  0.00     0.001 A 
HETATM   28  C   UNL     1       6.850  31.695  59.341  1.00  0.00     0.018 A 
BRANCH  24  29
HETATM   29  O   UNL     1       9.191  29.201  57.959  1.00  0.00    -0.278 OA
BRANCH  29  30
HETATM   30  C   UNL     1      10.053  29.561  56.928  1.00  0.00     0.260 C 
HETATM   31  C   UNL     1       9.355  29.327  55.621  1.00  0.00     0.126 C 
HETATM   32  O   UNL     1      11.210  29.949  57.035  1.00  0.00    -0.265 OA
ENDBRANCH  29  30
ENDBRANCH  24  29
ENDBRANCH   1  23
TORSDOF 5
ENDMDL
