MODEL 1
REMARK VINA RESULT:      -7.1      0.000      0.000
REMARK  2 active torsions:
REMARK  status: ('A' for Active; 'I' for Inactive)
REMARK    1  A    between atoms: S_2  and  C_3 
REMARK    2  A    between atoms: C_7  and  N_8 
ROOT
HETATM    1  C   UNL     1       7.711  26.592  56.513  1.00  0.00     0.060 A 
HETATM    2  C   UNL     1       7.125  26.137  55.334  1.00  0.00     0.044 A 
HETATM    3  C   UNL     1       7.297  24.802  54.956  1.00  0.00     0.033 A 
HETATM    4 BR   UNL     1       6.523  24.260  53.301  1.00  0.00    -0.049 Br
HETATM    5  C   UNL     1       8.042  23.897  55.752  1.00  0.00     0.028 A 
HETATM    6  C   UNL     1       8.613  24.391  56.937  1.00  0.00     0.026 A 
HETATM    7  C   UNL     1       8.448  25.727  57.321  1.00  0.00     0.025 A 
ENDROOT
BRANCH   5   8
HETATM    8  N   UNL     1       8.164  22.545  55.379  1.00  0.00    -0.279 NA
HETATM    9  C   UNL     1       9.093  22.232  54.278  1.00  0.00     0.123 C 
HETATM   10  C   UNL     1       8.847  20.786  53.798  1.00  0.00     0.247 C 
HETATM   11  N   UNL     1       8.947  19.821  54.961  1.00  0.00    -0.073 N 
HETATM   12  H   UNL     1       9.917  19.792  55.300  1.00  0.00     0.277 HD
HETATM   13  H   UNL     1       8.718  18.873  54.637  1.00  0.00     0.277 HD
HETATM   14  C   UNL     1       8.027  20.190  56.105  1.00  0.00     0.247 C 
HETATM   15  C   UNL     1       8.277  21.646  56.550  1.00  0.00     0.123 C 
ENDBRANCH   5   8
BRANCH   1  16
HETATM   16  S   UNL     1       7.435  28.272  57.031  1.00  0.00     0.171 S 
HETATM   17  C   UNL     1       5.675  28.368  57.222  1.00  0.00     0.167 C 
HETATM   18  O   UNL     1       7.820  29.127  55.925  1.00  0.00    -0.223 OA
HETATM   19  O   UNL     1       8.052  28.410  58.335  1.00  0.00    -0.223 OA
ENDBRANCH   1  16
TORSDOF 2
ENDMDL
MODEL 2
REMARK VINA RESULT:      -6.9      4.660      6.558
REMARK  2 active torsions:
REMARK  status: ('A' for Active; 'I' for Inactive)
REMARK    1  A    between atoms: S_2  and  C_3 
REMARK    2  A    between atoms: C_7  and  N_8 
ROOT
HETATM    1  C   UNL     1       8.083  22.195  54.410  1.00  0.00     0.060 A 
HETATM    2  C   UNL     1       7.331  22.965  55.294  1.00  0.00     0.044 A 
HETATM    3  C   UNL     1       6.815  24.191  54.863  1.00  0.00     0.033 A 
HETATM    4 BR   UNL     1       5.849  25.225  56.141  1.00  0.00    -0.049 Br
HETATM    5  C   UNL     1       7.027  24.661  53.544  1.00  0.00     0.028 A 
HETATM    6  C   UNL     1       7.785  23.854  52.680  1.00  0.00     0.026 A 
HETATM    7  C   UNL     1       8.308  22.628  53.103  1.00  0.00     0.025 A 
ENDROOT
BRANCH   5   8
HETATM    8  N   UNL     1       6.458  25.877  53.115  1.00  0.00    -0.279 NA
HETATM    9  C   UNL     1       7.234  27.106  53.361  1.00  0.00     0.123 C 
HETATM   10  C   UNL     1       6.327  28.335  53.135  1.00  0.00     0.247 C 
HETATM   11  N   UNL     1       5.704  28.283  51.755  1.00  0.00    -0.073 N 
HETATM   12  H   UNL     1       6.437  28.400  51.044  1.00  0.00     0.277 HD
HETATM   13  H   UNL     1       5.056  29.073  51.646  1.00  0.00     0.277 HD
HETATM   14  C   UNL     1       4.960  26.990  51.500  1.00  0.00     0.247 C 
HETATM   15  C   UNL     1       5.881  25.779  51.755  1.00  0.00     0.123 C 
ENDBRANCH   5   8
BRANCH   1  16
HETATM   16  S   UNL     1       8.682  20.604  54.933  1.00  0.00     0.171 S 
HETATM   17  C   UNL     1       7.433  20.034  56.056  1.00  0.00     0.167 C 
HETATM   18  O   UNL     1       9.900  20.833  55.687  1.00  0.00    -0.223 OA
HETATM   19  O   UNL     1       8.677  19.752  53.761  1.00  0.00    -0.223 OA
ENDBRANCH   1  16
TORSDOF 2
ENDMDL
MODEL 3
REMARK VINA RESULT:      -6.9      4.199      6.297
REMARK  2 active torsions:
REMARK  status: ('A' for Active; 'I' for Inactive)
REMARK    1  A    between atoms: S_2  and  C_3 
REMARK    2  A    between atoms: C_7  and  N_8 
ROOT
HETATM    1  C   UNL     1       7.916  22.560  55.253  1.00  0.00     0.060 A 
HETATM    2  C   UNL     1       7.863  23.183  54.009  1.00  0.00     0.044 A 
HETATM    3  C   UNL     1       7.586  24.552  53.941  1.00  0.00     0.033 A 
HETATM    4 BR   UNL     1       7.464  25.329  52.205  1.00  0.00    -0.049 Br
HETATM    5  C   UNL     1       7.373  25.323  55.110  1.00  0.00     0.028 A 
HETATM    6  C   UNL     1       7.441  24.661  56.347  1.00  0.00     0.026 A 
HETATM    7  C   UNL     1       7.714  23.291  56.424  1.00  0.00     0.025 A 
ENDROOT
BRANCH   5   8
HETATM    8  N   UNL     1       7.143  26.710  55.024  1.00  0.00    -0.279 NA
HETATM    9  C   UNL     1       5.744  27.152  54.883  1.00  0.00     0.123 C 
HETATM   10  C   UNL     1       5.718  28.640  54.475  1.00  0.00     0.247 C 
HETATM   11  N   UNL     1       6.515  29.471  55.459  1.00  0.00    -0.073 N 
HETATM   12  H   UNL     1       6.040  29.471  56.371  1.00  0.00     0.277 HD
HETATM   13  H   UNL     1       6.540  30.446  55.138  1.00  0.00     0.277 HD
HETATM   14  C   UNL     1       7.932  28.967  55.633  1.00  0.00     0.247 C 
HETATM   15  C   UNL     1       7.930  27.474  56.018  1.00  0.00     0.123 C 
ENDBRANCH   5   8
BRANCH   1  16
HETATM   16  S   UNL     1       8.336  20.834  55.346  1.00  0.00     0.171 S 
HETATM   17  C   UNL     1       8.311  20.304  53.654  1.00  0.00     0.167 C 
HETATM   18  O   UNL     1       7.255  20.168  56.047  1.00  0.00    -0.223 OA
HETATM   19  O   UNL     1       9.699  20.764  55.834  1.00  0.00    -0.223 OA
ENDBRANCH   1  16
TORSDOF 2
ENDMDL
MODEL 4
REMARK VINA RESULT:      -6.8      7.608      9.623
REMARK  2 active torsions:
REMARK  status: ('A' for Active; 'I' for Inactive)
REMARK    1  A    between atoms: S_2  and  C_3 
REMARK    2  A    between atoms: C_7  and  N_8 
ROOT
HETATM    1  C   UNL     1       6.781  32.915  62.935  1.00  0.00     0.060 A 
HETATM    2  C   UNL     1       6.087  32.928  61.727  1.00  0.00     0.044 A 
HETATM    3  C   UNL     1       6.707  32.432  60.576  1.00  0.00     0.033 A 
HETATM    4 BR   UNL     1       5.727  32.538  58.946  1.00  0.00    -0.049 Br
HETATM    5  C   UNL     1       8.021  31.904  60.613  1.00  0.00     0.028 A 
HETATM    6  C   UNL     1       8.687  31.902  61.850  1.00  0.00     0.026 A 
HETATM    7  C   UNL     1       8.075  32.399  63.006  1.00  0.00     0.025 A 
ENDROOT
BRANCH   5   8
HETATM    8  N   UNL     1       8.612  31.366  59.453  1.00  0.00    -0.279 NA
HETATM    9  C   UNL     1      10.045  31.639  59.239  1.00  0.00     0.123 C 
HETATM   10  C   UNL     1      10.424  31.267  57.790  1.00  0.00     0.247 C 
HETATM   11  N   UNL     1      10.035  29.834  57.495  1.00  0.00    -0.073 N 
HETATM   12  H   UNL     1      10.614  29.198  58.058  1.00  0.00     0.277 HD
HETATM   13  H   UNL     1      10.235  29.623  56.510  1.00  0.00     0.277 HD
HETATM   14  C   UNL     1       8.573  29.558  57.775  1.00  0.00     0.247 C 
HETATM   15  C   UNL     1       8.215  29.959  59.220  1.00  0.00     0.123 C 
ENDBRANCH   5   8
BRANCH   1  16
HETATM   16  S   UNL     1       5.968  33.480  64.413  1.00  0.00     0.171 S 
HETATM   17  C   UNL     1       5.606  35.181  64.068  1.00  0.00     0.167 C 
HETATM   18  O   UNL     1       6.946  33.431  65.482  1.00  0.00    -0.223 OA
HETATM   19  O   UNL     1       4.720  32.749  64.505  1.00  0.00    -0.223 OA
ENDBRANCH   1  16
TORSDOF 2
ENDMDL
MODEL 5
REMARK VINA RESULT:      -6.6      9.441     12.669
REMARK  2 active torsions:
REMARK  status: ('A' for Active; 'I' for Inactive)
REMARK    1  A    between atoms: S_2  and  C_3 
REMARK    2  A    between atoms: C_7  and  N_8 
ROOT
HETATM    1  C   UNL     1       7.605  32.201  61.157  1.00  0.00     0.060 A 
HETATM    2  C   UNL     1       6.326  32.717  60.965  1.00  0.00     0.044 A 
HETATM    3  C   UNL     1       5.691  33.379  62.020  1.00  0.00     0.033 A 
HETATM    4 BR   UNL     1       3.917  34.004  61.713  1.00  0.00    -0.049 Br
HETATM    5  C   UNL     1       6.324  33.550  63.276  1.00  0.00     0.028 A 
HETATM    6  C   UNL     1       7.617  33.021  63.429  1.00  0.00     0.026 A 
HETATM    7  C   UNL     1       8.259  32.354  62.380  1.00  0.00     0.025 A 
ENDROOT
BRANCH   5   8
HETATM    8  N   UNL     1       5.687  34.261  64.311  1.00  0.00    -0.279 NA
HETATM    9  C   UNL     1       5.975  33.837  65.694  1.00  0.00     0.123 C 
HETATM   10  C   UNL     1       4.955  34.492  66.650  1.00  0.00     0.247 C 
HETATM   11  N   UNL     1       4.954  35.996  66.470  1.00  0.00    -0.073 N 
HETATM   12  H   UNL     1       5.852  36.380  66.789  1.00  0.00     0.277 HD
HETATM   13  H   UNL     1       4.226  36.408  67.067  1.00  0.00     0.277 HD
HETATM   14  C   UNL     1       4.713  36.410  65.034  1.00  0.00     0.247 C 
HETATM   15  C   UNL     1       5.729  35.725  64.098  1.00  0.00     0.123 C 
ENDBRANCH   5   8
BRANCH   1  16
HETATM   16  S   UNL     1       8.442  31.420  59.795  1.00  0.00     0.171 S 
HETATM   17  C   UNL     1       7.141  31.084  58.640  1.00  0.00     0.167 C 
HETATM   18  O   UNL     1       8.958  30.155  60.281  1.00  0.00    -0.223 OA
HETATM   19  O   UNL     1       9.325  32.418  59.223  1.00  0.00    -0.223 OA
ENDBRANCH   1  16
TORSDOF 2
ENDMDL
MODEL 6
REMARK VINA RESULT:      -6.5     10.222     12.344
REMARK  2 active torsions:
REMARK  status: ('A' for Active; 'I' for Inactive)
REMARK    1  A    between atoms: S_2  and  C_3 
REMARK    2  A    between atoms: C_7  and  N_8 
ROOT
HETATM    1  C   UNL     1       5.658  34.011  65.916  1.00  0.00     0.060 A 
HETATM    2  C   UNL     1       4.770  33.608  64.922  1.00  0.00     0.044 A 
HETATM    3  C   UNL     1       5.272  33.045  63.745  1.00  0.00     0.033 A 
HETATM    4 BR   UNL     1       4.008  32.573  62.399  1.00  0.00    -0.049 Br
HETATM    5  C   UNL     1       6.663  32.862  63.546  1.00  0.00     0.028 A 
HETATM    6  C   UNL     1       7.527  33.276  64.573  1.00  0.00     0.026 A 
HETATM    7  C   UNL     1       7.034  33.843  65.753  1.00  0.00     0.025 A 
ENDROOT
BRANCH   5   8
HETATM    8  N   UNL     1       7.146  32.250  62.373  1.00  0.00    -0.279 NA
HETATM    9  C   UNL     1       7.137  33.058  61.140  1.00  0.00     0.123 C 
HETATM   10  C   UNL     1       7.378  32.136  59.925  1.00  0.00     0.247 C 
HETATM   11  N   UNL     1       8.653  31.340  60.112  1.00  0.00    -0.073 N 
HETATM   12  H   UNL     1       9.461  31.975  60.088  1.00  0.00     0.277 HD
HETATM   13  H   UNL     1       8.764  30.687  59.327  1.00  0.00     0.277 HD
HETATM   14  C   UNL     1       8.667  30.562  61.411  1.00  0.00     0.247 C 
HETATM   15  C   UNL     1       8.401  31.500  62.605  1.00  0.00     0.123 C 
ENDBRANCH   5   8
BRANCH   1  16
HETATM   16  S   UNL     1       5.019  34.663  67.443  1.00  0.00     0.171 S 
HETATM   17  C   UNL     1       6.459  34.832  68.463  1.00  0.00     0.167 C 
HETATM   18  O   UNL     1       4.170  33.639  68.021  1.00  0.00    -0.223 OA
HETATM   19  O   UNL     1       4.502  35.984  67.146  1.00  0.00    -0.223 OA
ENDBRANCH   1  16
TORSDOF 2
ENDMDL
MODEL 7
REMARK VINA RESULT:      -6.5      3.454      4.687
REMARK  2 active torsions:
REMARK  status: ('A' for Active; 'I' for Inactive)
REMARK    1  A    between atoms: S_2  and  C_3 
REMARK    2  A    between atoms: C_7  and  N_8 
ROOT
HETATM    1  C   UNL     1       8.382  30.276  58.150  1.00  0.00     0.060 A 
HETATM    2  C   UNL     1       7.032  30.106  57.850  1.00  0.00     0.044 A 
HETATM    3  C   UNL     1       6.635  28.999  57.094  1.00  0.00     0.033 A 
HETATM    4 BR   UNL     1       4.784  28.859  56.665  1.00  0.00    -0.049 Br
HETATM    5  C   UNL     1       7.572  28.039  56.638  1.00  0.00     0.028 A 
HETATM    6  C   UNL     1       8.923  28.242  56.965  1.00  0.00     0.026 A 
HETATM    7  C   UNL     1       9.330  29.348  57.718  1.00  0.00     0.025 A 
ENDROOT
BRANCH   5   8
HETATM    8  N   UNL     1       7.146  26.906  55.917  1.00  0.00    -0.279 NA
HETATM    9  C   UNL     1       7.334  26.929  54.455  1.00  0.00     0.123 C 
HETATM   10  C   UNL     1       6.523  25.780  53.819  1.00  0.00     0.247 C 
HETATM   11  N   UNL     1       6.898  24.456  54.452  1.00  0.00    -0.073 N 
HETATM   12  H   UNL     1       7.868  24.221  54.207  1.00  0.00     0.277 HD
HETATM   13  H   UNL     1       6.305  23.714  54.063  1.00  0.00     0.277 HD
HETATM   14  C   UNL     1       6.753  24.470  55.960  1.00  0.00     0.247 C 
HETATM   15  C   UNL     1       7.553  25.640  56.567  1.00  0.00     0.123 C 
ENDBRANCH   5   8
BRANCH   1  16
HETATM   16  S   UNL     1       8.881  31.645  59.171  1.00  0.00     0.171 S 
HETATM   17  C   UNL     1       9.286  30.886  60.722  1.00  0.00     0.167 C 
HETATM   18  O   UNL     1       7.712  32.481  59.366  1.00  0.00    -0.223 OA
HETATM   19  O   UNL     1      10.094  32.180  58.585  1.00  0.00    -0.223 OA
ENDBRANCH   1  16
TORSDOF 2
ENDMDL
MODEL 8
REMARK VINA RESULT:      -6.5      2.138      2.875
REMARK  2 active torsions:
REMARK  status: ('A' for Active; 'I' for Inactive)
REMARK    1  A    between atoms: S_2  and  C_3 
REMARK    2  A    between atoms: C_7  and  N_8 
ROOT
HETATM    1  C   UNL     1       5.974  26.241  54.929  1.00  0.00     0.060 A 
HETATM    2  C   UNL     1       6.951  25.967  55.883  1.00  0.00     0.044 A 
HETATM    3  C   UNL     1       7.596  24.726  55.864  1.00  0.00     0.033 A 
HETATM    4 BR   UNL     1       8.876  24.391  57.234  1.00  0.00    -0.049 Br
HETATM    5  C   UNL     1       7.288  23.747  54.888  1.00  0.00     0.028 A 
HETATM    6  C   UNL     1       6.301  24.062  53.939  1.00  0.00     0.026 A 
HETATM    7  C   UNL     1       5.648  25.299  53.953  1.00  0.00     0.025 A 
ENDROOT
BRANCH   5   8
HETATM    8  N   UNL     1       7.981  22.521  54.856  1.00  0.00    -0.279 NA
HETATM    9  C   UNL     1       7.770  21.600  55.987  1.00  0.00     0.123 C 
HETATM   10  C   UNL     1       8.842  20.489  55.946  1.00  0.00     0.247 C 
HETATM   11  N   UNL     1       8.834  19.798  54.599  1.00  0.00    -0.073 N 
HETATM   12  H   UNL     1       7.954  19.278  54.485  1.00  0.00     0.277 HD
HETATM   13  H   UNL     1       9.593  19.107  54.567  1.00  0.00     0.277 HD
HETATM   14  C   UNL     1       8.995  20.768  53.447  1.00  0.00     0.247 C 
HETATM   15  C   UNL     1       7.928  21.879  53.524  1.00  0.00     0.123 C 
ENDBRANCH   5   8
BRANCH   1  16
HETATM   16  S   UNL     1       5.202  27.844  54.909  1.00  0.00     0.171 S 
HETATM   17  C   UNL     1       4.181  27.800  53.461  1.00  0.00     0.167 C 
HETATM   18  O   UNL     1       6.253  28.820  54.694  1.00  0.00    -0.223 OA
HETATM   19  O   UNL     1       4.348  27.909  56.078  1.00  0.00    -0.223 OA
ENDBRANCH   1  16
TORSDOF 2
ENDMDL
MODEL 9
REMARK VINA RESULT:      -6.2      7.168      9.203
REMARK  2 active torsions:
REMARK  status: ('A' for Active; 'I' for Inactive)
REMARK    1  A    between atoms: S_2  and  C_3 
REMARK    2  A    between atoms: C_7  and  N_8 
ROOT
HETATM    1  C   UNL     1       6.266  32.714  62.063  1.00  0.00     0.060 A 
HETATM    2  C   UNL     1       7.383  31.977  62.450  1.00  0.00     0.044 A 
HETATM    3  C   UNL     1       8.099  31.263  61.484  1.00  0.00     0.033 A 
HETATM    4 BR   UNL     1       9.578  30.224  62.090  1.00  0.00    -0.049 Br
HETATM    5  C   UNL     1       7.723  31.283  60.119  1.00  0.00     0.028 A 
HETATM    6  C   UNL     1       6.595  32.042  59.766  1.00  0.00     0.026 A 
HETATM    7  C   UNL     1       5.871  32.757  60.725  1.00  0.00     0.025 A 
ENDROOT
BRANCH   5   8
HETATM    8  N   UNL     1       8.485  30.595  59.154  1.00  0.00    -0.279 NA
HETATM    9  C   UNL     1       7.752  29.731  58.210  1.00  0.00     0.123 C 
HETATM   10  C   UNL     1       8.756  28.823  57.467  1.00  0.00     0.247 C 
HETATM   11  N   UNL     1       9.832  29.658  56.805  1.00  0.00    -0.073 N 
HETATM   12  H   UNL     1       9.417  30.216  56.048  1.00  0.00     0.277 HD
HETATM   13  H   UNL     1      10.525  29.037  56.370  1.00  0.00     0.277 HD
HETATM   14  C   UNL     1      10.534  30.580  57.780  1.00  0.00     0.247 C 
HETATM   15  C   UNL     1       9.509  31.459  58.525  1.00  0.00     0.123 C 
ENDBRANCH   5   8
BRANCH   1  16
HETATM   16  S   UNL     1       5.396  33.679  63.277  1.00  0.00     0.171 S 
HETATM   17  C   UNL     1       6.528  33.758  64.640  1.00  0.00     0.167 C 
HETATM   18  O   UNL     1       4.241  32.904  63.690  1.00  0.00    -0.223 OA
HETATM   19  O   UNL     1       5.245  35.009  62.721  1.00  0.00    -0.223 OA
ENDBRANCH   1  16
TORSDOF 2
ENDMDL
MODEL 10
REMARK VINA RESULT:      -6.1      3.273      4.020
REMARK  2 active torsions:
REMARK  status: ('A' for Active; 'I' for Inactive)
REMARK    1  A    between atoms: S_2  and  C_3 
REMARK    2  A    between atoms: C_7  and  N_8 
ROOT
HETATM    1  C   UNL     1       5.655  26.535  52.542  1.00  0.00     0.060 A 
HETATM    2  C   UNL     1       5.362  26.426  53.899  1.00  0.00     0.044 A 
HETATM    3  C   UNL     1       5.876  25.348  54.626  1.00  0.00     0.033 A 
HETATM    4 BR   UNL     1       5.385  25.224  56.463  1.00  0.00    -0.049 Br
HETATM    5  C   UNL     1       6.699  24.370  54.016  1.00  0.00     0.028 A 
HETATM    6  C   UNL     1       6.978  24.516  52.646  1.00  0.00     0.026 A 
HETATM    7  C   UNL     1       6.465  25.590  51.911  1.00  0.00     0.025 A 
ENDROOT
BRANCH   5   8
HETATM    8  N   UNL     1       7.246  23.317  54.775  1.00  0.00    -0.279 NA
HETATM    9  C   UNL     1       7.605  22.083  54.052  1.00  0.00     0.123 C 
HETATM   10  C   UNL     1       7.865  20.953  55.071  1.00  0.00     0.247 C 
HETATM   11  N   UNL     1       8.909  21.383  56.080  1.00  0.00    -0.073 N 
HETATM   12  H   UNL     1       9.817  21.487  55.611  1.00  0.00     0.277 HD
HETATM   13  H   UNL     1       9.022  20.645  56.786  1.00  0.00     0.277 HD
HETATM   14  C   UNL     1       8.550  22.682  56.771  1.00  0.00     0.247 C 
HETATM   15  C   UNL     1       8.274  23.787  55.732  1.00  0.00     0.123 C 
ENDBRANCH   5   8
BRANCH   1  16
HETATM   16  S   UNL     1       5.061  27.943  51.632  1.00  0.00     0.171 S 
HETATM   17  C   UNL     1       3.647  28.476  52.560  1.00  0.00     0.167 C 
HETATM   18  O   UNL     1       4.603  27.457  50.345  1.00  0.00    -0.223 OA
HETATM   19  O   UNL     1       6.088  28.961  51.725  1.00  0.00    -0.223 OA
ENDBRANCH   1  16
TORSDOF 2
ENDMDL
