MODEL 1
REMARK VINA RESULT:     -10.1      0.000      0.000
REMARK  8 active torsions:
REMARK  status: ('A' for Active; 'I' for Inactive)
REMARK       I    between atoms: C_2  and  N_3 
REMARK    1  A    between atoms: N_3  and  C_4 
REMARK    2  A    between atoms: C_6  and  N_7 
REMARK       I    between atoms: N_7  and  C_8 
REMARK    3  A    between atoms: C_8  and  C_9 
REMARK       I    between atoms: C_9  and  N_10 
REMARK    4  A    between atoms: N_10  and  C_11 
REMARK    5  A    between atoms: C_11  and  C_12 
REMARK    6  A    between atoms: C_12  and  S_13 
REMARK    7  A    between atoms: S_13  and  C_14 
REMARK    8  A    between atoms: C_16  and  C_17 
ROOT
HETATM    1  C   UNL     1       8.697  29.930  58.294  1.00  0.00     0.309 C 
HETATM    2  N   UNL     1       7.627  29.071  58.378  1.00  0.00    -0.352 N 
HETATM    3  O   UNL     1       9.677  29.802  57.573  1.00  0.00    -0.262 OA
HETATM    4  H   UNL     1       6.950  29.279  59.111  1.00  0.00     0.162 HD
ENDROOT
BRANCH   1   5
HETATM    5  C   UNL     1       8.584  31.151  59.235  1.00  0.00     0.313 C 
HETATM    6  N   UNL     1       7.837  30.868  60.358  1.00  0.00    -0.319 N 
HETATM    7  H   UNL     1       7.516  29.904  60.413  1.00  0.00     0.169 HD
HETATM    8  O   UNL     1       9.149  32.185  58.912  1.00  0.00    -0.262 OA
BRANCH   6   9
HETATM    9  C   UNL     1       7.489  31.738  61.406  1.00  0.00     0.037 A 
HETATM   10  C   UNL     1       6.370  32.582  61.382  1.00  0.00     0.059 A 
HETATM   11  C   UNL     1       6.079  33.416  62.469  1.00  0.00     0.036 A 
HETATM   12  C   UNL     1       6.934  33.410  63.579  1.00  0.00     0.029 A 
HETATM   13  C   UNL     1       8.047  32.570  63.613  1.00  0.00     0.004 A 
HETATM   14  C   UNL     1       8.318  31.733  62.533  1.00  0.00     0.029 A 
BRANCH  11  15
HETATM   15  N   UNL     1       4.967  34.284  62.530  1.00  0.00    -0.327 N 
HETATM   16  C   UNL     1       3.632  33.941  62.646  1.00  0.00     0.218 C 
HETATM   17  C   UNL     1       2.714  35.139  62.648  1.00  0.00     0.117 C 
HETATM   18  O   UNL     1       3.167  32.813  62.763  1.00  0.00    -0.274 OA
HETATM   19  H   UNL     1       5.183  35.272  62.528  1.00  0.00     0.169 HD
ENDBRANCH  11  15
ENDBRANCH   6   9
ENDBRANCH   1   5
BRANCH   2  20
HETATM   20  C   UNL     1       7.604  27.773  57.738  1.00  0.00     0.133 C 
BRANCH  20  21
HETATM   21  C   UNL     1       6.313  27.509  56.958  1.00  0.00     0.102 C 
BRANCH  21  22
HETATM   22  S   UNL     1       6.469  28.084  55.231  1.00  0.00    -0.090 SA
BRANCH  22  23
HETATM   23  C   UNL     1       6.990  26.634  54.464  1.00  0.00     0.166 A 
HETATM   24  N   UNL     1       6.955  25.415  54.939  1.00  0.00    -0.223 NA
HETATM   25  C   UNL     1       7.517  24.627  53.953  1.00  0.00     0.085 A 
HETATM   26  C   UNL     1       7.879  25.405  52.871  1.00  0.00     0.122 A 
HETATM   27  N   UNL     1       7.533  26.683  53.216  1.00  0.00    -0.343 N 
HETATM   28  H   UNL     1       7.651  27.523  52.668  1.00  0.00     0.167 HD
BRANCH  25  29
HETATM   29  C   UNL     1       7.683  23.185  54.086  1.00  0.00    -0.006 A 
HETATM   30  C   UNL     1       7.597  22.597  55.356  1.00  0.00     0.014 A 
HETATM   31  C   UNL     1       7.756  21.218  55.522  1.00  0.00     0.001 A 
HETATM   32  C   UNL     1       8.005  20.409  54.417  1.00  0.00     0.000 A 
HETATM   33  C   UNL     1       8.096  20.977  53.148  1.00  0.00     0.001 A 
HETATM   34  C   UNL     1       7.935  22.357  52.983  1.00  0.00     0.014 A 
ENDBRANCH  25  29
ENDBRANCH  22  23
ENDBRANCH  21  22
ENDBRANCH  20  21
ENDBRANCH   2  20
TORSDOF 8
ENDMDL
MODEL 2
REMARK VINA RESULT:      -9.7      1.169      1.463
REMARK  8 active torsions:
REMARK  status: ('A' for Active; 'I' for Inactive)
REMARK       I    between atoms: C_2  and  N_3 
REMARK    1  A    between atoms: N_3  and  C_4 
REMARK    2  A    between atoms: C_6  and  N_7 
REMARK       I    between atoms: N_7  and  C_8 
REMARK    3  A    between atoms: C_8  and  C_9 
REMARK       I    between atoms: C_9  and  N_10 
REMARK    4  A    between atoms: N_10  and  C_11 
REMARK    5  A    between atoms: C_11  and  C_12 
REMARK    6  A    between atoms: C_12  and  S_13 
REMARK    7  A    between atoms: S_13  and  C_14 
REMARK    8  A    between atoms: C_16  and  C_17 
ROOT
HETATM    1  C   UNL     1       8.283  29.844  58.480  1.00  0.00     0.309 C 
HETATM    2  N   UNL     1       7.039  29.394  58.107  1.00  0.00    -0.352 N 
HETATM    3  O   UNL     1       9.357  29.343  58.178  1.00  0.00    -0.262 OA
HETATM    4  H   UNL     1       6.248  29.872  58.537  1.00  0.00     0.162 HD
ENDROOT
BRANCH   1   5
HETATM    5  C   UNL     1       8.241  31.108  59.368  1.00  0.00     0.313 C 
HETATM    6  N   UNL     1       7.553  30.889  60.542  1.00  0.00    -0.319 N 
HETATM    7  H   UNL     1       7.219  29.936  60.657  1.00  0.00     0.169 HD
HETATM    8  O   UNL     1       8.806  32.116  58.969  1.00  0.00    -0.262 OA
BRANCH   6   9
HETATM    9  C   UNL     1       7.277  31.812  61.566  1.00  0.00     0.037 A 
HETATM   10  C   UNL     1       6.167  32.668  61.569  1.00  0.00     0.059 A 
HETATM   11  C   UNL     1       5.950  33.555  62.631  1.00  0.00     0.036 A 
HETATM   12  C   UNL     1       6.870  33.590  63.687  1.00  0.00     0.029 A 
HETATM   13  C   UNL     1       7.975  32.739  63.694  1.00  0.00     0.004 A 
HETATM   14  C   UNL     1       8.172  31.849  62.640  1.00  0.00     0.029 A 
BRANCH  11  15
HETATM   15  N   UNL     1       4.852  34.439  62.717  1.00  0.00    -0.327 N 
HETATM   16  C   UNL     1       4.851  35.808  62.520  1.00  0.00     0.218 C 
HETATM   17  C   UNL     1       3.493  36.433  62.729  1.00  0.00     0.117 C 
HETATM   18  O   UNL     1       5.801  36.507  62.188  1.00  0.00    -0.274 OA
HETATM   19  H   UNL     1       3.957  34.007  62.907  1.00  0.00     0.169 HD
ENDBRANCH  11  15
ENDBRANCH   6   9
ENDBRANCH   1   5
BRANCH   2  20
HETATM   20  C   UNL     1       6.824  28.128  57.439  1.00  0.00     0.133 C 
BRANCH  20  21
HETATM   21  C   UNL     1       7.212  28.155  55.958  1.00  0.00     0.102 C 
BRANCH  21  22
HETATM   22  S   UNL     1       5.756  27.845  54.900  1.00  0.00    -0.090 SA
BRANCH  22  23
HETATM   23  C   UNL     1       6.179  26.321  54.223  1.00  0.00     0.166 A 
HETATM   24  N   UNL     1       6.638  25.264  54.843  1.00  0.00    -0.223 NA
HETATM   25  C   UNL     1       6.849  24.325  53.852  1.00  0.00     0.085 A 
HETATM   26  C   UNL     1       6.494  24.844  52.622  1.00  0.00     0.122 A 
HETATM   27  N   UNL     1       6.068  26.119  52.881  1.00  0.00    -0.343 N 
HETATM   28  H   UNL     1       5.732  26.803  52.217  1.00  0.00     0.167 HD
BRANCH  25  29
HETATM   29  C   UNL     1       7.374  22.992  54.118  1.00  0.00    -0.006 A 
HETATM   30  C   UNL     1       7.744  22.171  53.043  1.00  0.00     0.014 A 
HETATM   31  C   UNL     1       8.247  20.885  53.260  1.00  0.00     0.001 A 
HETATM   32  C   UNL     1       8.386  20.404  54.559  1.00  0.00     0.000 A 
HETATM   33  C   UNL     1       8.022  21.205  55.639  1.00  0.00     0.001 A 
HETATM   34  C   UNL     1       7.520  22.492  55.419  1.00  0.00     0.014 A 
ENDBRANCH  25  29
ENDBRANCH  22  23
ENDBRANCH  21  22
ENDBRANCH  20  21
ENDBRANCH   2  20
TORSDOF 8
ENDMDL
MODEL 3
REMARK VINA RESULT:      -9.5      3.215      5.211
REMARK  8 active torsions:
REMARK  status: ('A' for Active; 'I' for Inactive)
REMARK       I    between atoms: C_2  and  N_3 
REMARK    1  A    between atoms: N_3  and  C_4 
REMARK    2  A    between atoms: C_6  and  N_7 
REMARK       I    between atoms: N_7  and  C_8 
REMARK    3  A    between atoms: C_8  and  C_9 
REMARK       I    between atoms: C_9  and  N_10 
REMARK    4  A    between atoms: N_10  and  C_11 
REMARK    5  A    between atoms: C_11  and  C_12 
REMARK    6  A    between atoms: C_12  and  S_13 
REMARK    7  A    between atoms: S_13  and  C_14 
REMARK    8  A    between atoms: C_16  and  C_17 
ROOT
HETATM    1  C   UNL     1       4.705  28.968  54.583  1.00  0.00     0.309 C 
HETATM    2  N   UNL     1       4.351  29.604  53.417  1.00  0.00    -0.352 N 
HETATM    3  O   UNL     1       4.278  27.894  54.984  1.00  0.00    -0.262 OA
HETATM    4  H   UNL     1       4.727  30.543  53.294  1.00  0.00     0.162 HD
ENDROOT
BRANCH   1   5
HETATM    5  C   UNL     1       5.746  29.746  55.419  1.00  0.00     0.313 C 
HETATM    6  N   UNL     1       6.911  29.029  55.589  1.00  0.00    -0.319 N 
HETATM    7  H   UNL     1       6.919  28.130  55.112  1.00  0.00     0.169 HD
HETATM    8  O   UNL     1       5.454  30.866  55.811  1.00  0.00    -0.262 OA
BRANCH   6   9
HETATM    9  C   UNL     1       8.053  29.396  56.321  1.00  0.00     0.037 A 
HETATM   10  C   UNL     1       8.029  29.765  57.673  1.00  0.00     0.059 A 
HETATM   11  C   UNL     1       9.211  30.109  58.342  1.00  0.00     0.036 A 
HETATM   12  C   UNL     1      10.421  30.099  57.635  1.00  0.00     0.029 A 
HETATM   13  C   UNL     1      10.454  29.729  56.291  1.00  0.00     0.004 A 
HETATM   14  C   UNL     1       9.274  29.373  55.640  1.00  0.00     0.029 A 
BRANCH  11  15
HETATM   15  N   UNL     1       9.276  30.479  59.704  1.00  0.00    -0.327 N 
HETATM   16  C   UNL     1       9.270  31.755  60.235  1.00  0.00     0.218 C 
HETATM   17  C   UNL     1       9.387  31.768  61.740  1.00  0.00     0.117 C 
HETATM   18  O   UNL     1       9.161  32.810  59.620  1.00  0.00    -0.274 OA
HETATM   19  H   UNL     1       9.289  29.712  60.364  1.00  0.00     0.169 HD
ENDBRANCH  11  15
ENDBRANCH   6   9
ENDBRANCH   1   5
BRANCH   2  20
HETATM   20  C   UNL     1       3.260  29.160  52.575  1.00  0.00     0.133 C 
BRANCH  20  21
HETATM   21  C   UNL     1       3.732  28.483  51.286  1.00  0.00     0.102 C 
BRANCH  21  22
HETATM   22  S   UNL     1       5.548  28.293  51.279  1.00  0.00    -0.090 SA
BRANCH  22  23
HETATM   23  C   UNL     1       5.707  26.761  52.045  1.00  0.00     0.166 A 
HETATM   24  N   UNL     1       6.795  26.200  52.505  1.00  0.00    -0.223 NA
HETATM   25  C   UNL     1       6.392  24.970  52.990  1.00  0.00     0.085 A 
HETATM   26  C   UNL     1       5.031  24.814  52.817  1.00  0.00     0.122 A 
HETATM   27  N   UNL     1       4.611  25.969  52.213  1.00  0.00    -0.343 N 
HETATM   28  H   UNL     1       3.672  26.210  51.932  1.00  0.00     0.167 HD
BRANCH  25  29
HETATM   29  C   UNL     1       7.312  24.010  53.586  1.00  0.00    -0.006 A 
HETATM   30  C   UNL     1       7.584  22.809  52.914  1.00  0.00     0.014 A 
HETATM   31  C   UNL     1       8.457  21.863  53.459  1.00  0.00     0.001 A 
HETATM   32  C   UNL     1       9.069  22.106  54.685  1.00  0.00     0.000 A 
HETATM   33  C   UNL     1       8.809  23.293  55.367  1.00  0.00     0.001 A 
HETATM   34  C   UNL     1       7.936  24.240  54.820  1.00  0.00     0.014 A 
ENDBRANCH  25  29
ENDBRANCH  22  23
ENDBRANCH  21  22
ENDBRANCH  20  21
ENDBRANCH   2  20
TORSDOF 8
ENDMDL
MODEL 4
REMARK VINA RESULT:      -9.2      2.042      2.258
REMARK  8 active torsions:
REMARK  status: ('A' for Active; 'I' for Inactive)
REMARK       I    between atoms: C_2  and  N_3 
REMARK    1  A    between atoms: N_3  and  C_4 
REMARK    2  A    between atoms: C_6  and  N_7 
REMARK       I    between atoms: N_7  and  C_8 
REMARK    3  A    between atoms: C_8  and  C_9 
REMARK       I    between atoms: C_9  and  N_10 
REMARK    4  A    between atoms: N_10  and  C_11 
REMARK    5  A    between atoms: C_11  and  C_12 
REMARK    6  A    between atoms: C_12  and  S_13 
REMARK    7  A    between atoms: S_13  and  C_14 
REMARK    8  A    between atoms: C_16  and  C_17 
ROOT
HETATM    1  C   UNL     1       5.510  31.383  57.890  1.00  0.00     0.309 C 
HETATM    2  N   UNL     1       5.826  30.068  58.137  1.00  0.00    -0.352 N 
HETATM    3  O   UNL     1       5.043  31.837  56.855  1.00  0.00    -0.262 OA
HETATM    4  H   UNL     1       6.305  29.886  59.017  1.00  0.00     0.162 HD
ENDROOT
BRANCH   1   5
HETATM    5  C   UNL     1       5.805  32.322  59.081  1.00  0.00     0.313 C 
HETATM    6  N   UNL     1       6.238  31.627  60.190  1.00  0.00    -0.319 N 
HETATM    7  H   UNL     1       6.333  30.625  60.042  1.00  0.00     0.169 HD
HETATM    8  O   UNL     1       5.647  33.524  58.925  1.00  0.00    -0.262 OA
BRANCH   6   9
HETATM    9  C   UNL     1       6.558  32.138  61.460  1.00  0.00     0.037 A 
HETATM   10  C   UNL     1       5.657  32.847  62.267  1.00  0.00     0.059 A 
HETATM   11  C   UNL     1       6.043  33.318  63.528  1.00  0.00     0.036 A 
HETATM   12  C   UNL     1       7.353  33.087  63.969  1.00  0.00     0.029 A 
HETATM   13  C   UNL     1       8.254  32.379  63.174  1.00  0.00     0.004 A 
HETATM   14  C   UNL     1       7.854  31.902  61.928  1.00  0.00     0.029 A 
BRANCH  11  15
HETATM   15  N   UNL     1       5.194  34.027  64.407  1.00  0.00    -0.327 N 
HETATM   16  C   UNL     1       5.073  35.397  64.543  1.00  0.00     0.218 C 
HETATM   17  C   UNL     1       4.085  35.799  65.611  1.00  0.00     0.117 C 
HETATM   18  O   UNL     1       5.652  36.258  63.890  1.00  0.00    -0.274 OA
HETATM   19  H   UNL     1       4.577  33.458  64.972  1.00  0.00     0.169 HD
ENDBRANCH  11  15
ENDBRANCH   6   9
ENDBRANCH   1   5
BRANCH   2  20
HETATM   20  C   UNL     1       5.815  29.048  57.109  1.00  0.00     0.133 C 
BRANCH  20  21
HETATM   21  C   UNL     1       7.134  28.956  56.338  1.00  0.00     0.102 C 
BRANCH  21  22
HETATM   22  S   UNL     1       6.890  28.129  54.729  1.00  0.00    -0.090 SA
BRANCH  22  23
HETATM   23  C   UNL     1       7.321  26.514  55.138  1.00  0.00     0.166 A 
HETATM   24  N   UNL     1       7.317  25.459  54.364  1.00  0.00    -0.223 NA
HETATM   25  C   UNL     1       7.709  24.412  55.176  1.00  0.00     0.085 A 
HETATM   26  C   UNL     1       7.958  24.870  56.455  1.00  0.00     0.122 A 
HETATM   27  N   UNL     1       7.705  26.215  56.410  1.00  0.00    -0.343 N 
HETATM   28  H   UNL     1       7.778  26.881  57.166  1.00  0.00     0.167 HD
BRANCH  25  29
HETATM   29  C   UNL     1       7.826  23.039  54.702  1.00  0.00    -0.006 A 
HETATM   30  C   UNL     1       7.744  21.984  55.623  1.00  0.00     0.014 A 
HETATM   31  C   UNL     1       7.857  20.655  55.206  1.00  0.00     0.001 A 
HETATM   32  C   UNL     1       8.054  20.364  53.858  1.00  0.00     0.000 A 
HETATM   33  C   UNL     1       8.140  21.399  52.930  1.00  0.00     0.001 A 
HETATM   34  C   UNL     1       8.025  22.730  53.350  1.00  0.00     0.014 A 
ENDBRANCH  25  29
ENDBRANCH  22  23
ENDBRANCH  21  22
ENDBRANCH  20  21
ENDBRANCH   2  20
TORSDOF 8
ENDMDL
MODEL 5
REMARK VINA RESULT:      -8.9      1.924      2.775
REMARK  8 active torsions:
REMARK  status: ('A' for Active; 'I' for Inactive)
REMARK       I    between atoms: C_2  and  N_3 
REMARK    1  A    between atoms: N_3  and  C_4 
REMARK    2  A    between atoms: C_6  and  N_7 
REMARK       I    between atoms: N_7  and  C_8 
REMARK    3  A    between atoms: C_8  and  C_9 
REMARK       I    between atoms: C_9  and  N_10 
REMARK    4  A    between atoms: N_10  and  C_11 
REMARK    5  A    between atoms: C_11  and  C_12 
REMARK    6  A    between atoms: C_12  and  S_13 
REMARK    7  A    between atoms: S_13  and  C_14 
REMARK    8  A    between atoms: C_16  and  C_17 
ROOT
HETATM    1  C   UNL     1       7.506  29.479  57.374  1.00  0.00     0.309 C 
HETATM    2  N   UNL     1       7.631  29.581  56.009  1.00  0.00    -0.352 N 
HETATM    3  O   UNL     1       8.200  28.801  58.118  1.00  0.00    -0.262 OA
HETATM    4  H   UNL     1       6.899  30.110  55.536  1.00  0.00     0.162 HD
ENDROOT
BRANCH   1   5
HETATM    5  C   UNL     1       6.354  30.329  57.954  1.00  0.00     0.313 C 
HETATM    6  N   UNL     1       6.821  31.400  58.685  1.00  0.00    -0.319 N 
HETATM    7  H   UNL     1       7.835  31.486  58.695  1.00  0.00     0.169 HD
HETATM    8  O   UNL     1       5.205  29.993  57.707  1.00  0.00    -0.262 OA
BRANCH   6   9
HETATM    9  C   UNL     1       6.072  32.359  59.389  1.00  0.00     0.037 A 
HETATM   10  C   UNL     1       6.177  32.573  60.770  1.00  0.00     0.059 A 
HETATM   11  C   UNL     1       5.405  33.555  61.402  1.00  0.00     0.036 A 
HETATM   12  C   UNL     1       4.508  34.313  60.638  1.00  0.00     0.029 A 
HETATM   13  C   UNL     1       4.400  34.109  59.263  1.00  0.00     0.004 A 
HETATM   14  C   UNL     1       5.184  33.140  58.641  1.00  0.00     0.029 A 
BRANCH  11  15
HETATM   15  N   UNL     1       5.461  33.844  62.784  1.00  0.00    -0.327 N 
HETATM   16  C   UNL     1       5.137  33.007  63.836  1.00  0.00     0.218 C 
HETATM   17  C   UNL     1       5.287  33.669  65.184  1.00  0.00     0.117 C 
HETATM   18  O   UNL     1       4.780  31.837  63.765  1.00  0.00    -0.274 OA
HETATM   19  H   UNL     1       5.819  34.758  63.025  1.00  0.00     0.169 HD
ENDBRANCH  11  15
ENDBRANCH   6   9
ENDBRANCH   1   5
BRANCH   2  20
HETATM   20  C   UNL     1       8.510  28.734  55.230  1.00  0.00     0.133 C 
BRANCH  20  21
HETATM   21  C   UNL     1       7.851  28.189  53.960  1.00  0.00     0.102 C 
BRANCH  21  22
HETATM   22  S   UNL     1       6.164  27.585  54.312  1.00  0.00    -0.090 SA
BRANCH  22  23
HETATM   23  C   UNL     1       6.511  25.999  54.881  1.00  0.00     0.166 A 
HETATM   24  N   UNL     1       7.029  24.999  54.214  1.00  0.00    -0.223 NA
HETATM   25  C   UNL     1       7.070  23.948  55.110  1.00  0.00     0.085 A 
HETATM   26  C   UNL     1       6.573  24.348  56.334  1.00  0.00     0.122 A 
HETATM   27  N   UNL     1       6.222  25.660  56.168  1.00  0.00    -0.343 N 
HETATM   28  H   UNL     1       5.820  26.282  56.855  1.00  0.00     0.167 HD
BRANCH  25  29
HETATM   29  C   UNL     1       7.573  22.626  54.761  1.00  0.00    -0.006 A 
HETATM   30  C   UNL     1       7.760  22.295  53.411  1.00  0.00     0.014 A 
HETATM   31  C   UNL     1       8.236  21.034  53.039  1.00  0.00     0.001 A 
HETATM   32  C   UNL     1       8.531  20.087  54.016  1.00  0.00     0.000 A 
HETATM   33  C   UNL     1       8.350  20.398  55.362  1.00  0.00     0.001 A 
HETATM   34  C   UNL     1       7.874  21.661  55.732  1.00  0.00     0.014 A 
ENDBRANCH  25  29
ENDBRANCH  22  23
ENDBRANCH  21  22
ENDBRANCH  20  21
ENDBRANCH   2  20
TORSDOF 8
ENDMDL
MODEL 6
REMARK VINA RESULT:      -8.8      2.736     11.257
REMARK  8 active torsions:
REMARK  status: ('A' for Active; 'I' for Inactive)
REMARK       I    between atoms: C_2  and  N_3 
REMARK    1  A    between atoms: N_3  and  C_4 
REMARK    2  A    between atoms: C_6  and  N_7 
REMARK       I    between atoms: N_7  and  C_8 
REMARK    3  A    between atoms: C_8  and  C_9 
REMARK       I    between atoms: C_9  and  N_10 
REMARK    4  A    between atoms: N_10  and  C_11 
REMARK    5  A    between atoms: C_11  and  C_12 
REMARK    6  A    between atoms: C_12  and  S_13 
REMARK    7  A    between atoms: S_13  and  C_14 
REMARK    8  A    between atoms: C_16  and  C_17 
ROOT
HETATM    1  C   UNL     1       5.646  28.599  56.188  1.00  0.00     0.309 C 
HETATM    2  N   UNL     1       5.107  29.348  55.169  1.00  0.00    -0.352 N 
HETATM    3  O   UNL     1       5.393  28.704  57.380  1.00  0.00    -0.262 OA
HETATM    4  H   UNL     1       5.512  29.196  54.247  1.00  0.00     0.162 HD
ENDROOT
BRANCH   1   5
HETATM    5  C   UNL     1       6.667  27.545  55.705  1.00  0.00     0.313 C 
HETATM    6  N   UNL     1       6.128  26.702  54.758  1.00  0.00    -0.319 N 
HETATM    7  H   UNL     1       5.170  26.925  54.499  1.00  0.00     0.169 HD
HETATM    8  O   UNL     1       7.795  27.572  56.176  1.00  0.00    -0.262 OA
BRANCH   6   9
HETATM    9  C   UNL     1       6.742  25.605  54.127  1.00  0.00     0.037 A 
HETATM   10  C   UNL     1       6.845  24.331  54.702  1.00  0.00     0.059 A 
HETATM   11  C   UNL     1       7.461  23.281  54.008  1.00  0.00     0.036 A 
HETATM   12  C   UNL     1       7.993  23.526  52.735  1.00  0.00     0.029 A 
HETATM   13  C   UNL     1       7.890  24.790  52.155  1.00  0.00     0.004 A 
HETATM   14  C   UNL     1       7.261  25.823  52.847  1.00  0.00     0.029 A 
BRANCH  11  15
HETATM   15  N   UNL     1       7.594  21.967  54.509  1.00  0.00    -0.327 N 
HETATM   16  C   UNL     1       8.188  21.569  55.692  1.00  0.00     0.218 C 
HETATM   17  C   UNL     1       8.175  20.072  55.883  1.00  0.00     0.117 C 
HETATM   18  O   UNL     1       8.673  22.292  56.554  1.00  0.00    -0.274 OA
HETATM   19  H   UNL     1       7.167  21.241  53.948  1.00  0.00     0.169 HD
ENDBRANCH  11  15
ENDBRANCH   6   9
ENDBRANCH   1   5
BRANCH   2  20
HETATM   20  C   UNL     1       4.279  30.513  55.399  1.00  0.00     0.133 C 
BRANCH  20  21
HETATM   21  C   UNL     1       4.981  31.598  56.221  1.00  0.00     0.102 C 
BRANCH  21  22
HETATM   22  S   UNL     1       3.946  32.112  57.635  1.00  0.00    -0.090 SA
BRANCH  22  23
HETATM   23  C   UNL     1       5.116  32.108  58.897  1.00  0.00     0.166 A 
HETATM   24  N   UNL     1       5.054  32.717  60.053  1.00  0.00    -0.223 NA
HETATM   25  C   UNL     1       6.250  32.426  60.680  1.00  0.00     0.085 A 
HETATM   26  C   UNL     1       7.026  31.618  59.873  1.00  0.00     0.122 A 
HETATM   27  N   UNL     1       6.283  31.425  58.739  1.00  0.00    -0.343 N 
HETATM   28  H   UNL     1       6.534  30.885  57.923  1.00  0.00     0.167 HD
BRANCH  25  29
HETATM   29  C   UNL     1       6.597  32.927  62.004  1.00  0.00    -0.006 A 
HETATM   30  C   UNL     1       5.906  34.031  62.524  1.00  0.00     0.014 A 
HETATM   31  C   UNL     1       6.216  34.543  63.788  1.00  0.00     0.001 A 
HETATM   32  C   UNL     1       7.222  33.954  64.548  1.00  0.00     0.000 A 
HETATM   33  C   UNL     1       7.920  32.857  64.047  1.00  0.00     0.001 A 
HETATM   34  C   UNL     1       7.608  32.346  62.782  1.00  0.00     0.014 A 
ENDBRANCH  25  29
ENDBRANCH  22  23
ENDBRANCH  21  22
ENDBRANCH  20  21
ENDBRANCH   2  20
TORSDOF 8
ENDMDL
MODEL 7
REMARK VINA RESULT:      -8.8      6.256     10.713
REMARK  8 active torsions:
REMARK  status: ('A' for Active; 'I' for Inactive)
REMARK       I    between atoms: C_2  and  N_3 
REMARK    1  A    between atoms: N_3  and  C_4 
REMARK    2  A    between atoms: C_6  and  N_7 
REMARK       I    between atoms: N_7  and  C_8 
REMARK    3  A    between atoms: C_8  and  C_9 
REMARK       I    between atoms: C_9  and  N_10 
REMARK    4  A    between atoms: N_10  and  C_11 
REMARK    5  A    between atoms: C_11  and  C_12 
REMARK    6  A    between atoms: C_12  and  S_13 
REMARK    7  A    between atoms: S_13  and  C_14 
REMARK    8  A    between atoms: C_16  and  C_17 
ROOT
HETATM    1  C   UNL     1       5.146  28.155  52.053  1.00  0.00     0.309 C 
HETATM    2  N   UNL     1       4.409  27.966  53.198  1.00  0.00    -0.352 N 
HETATM    3  O   UNL     1       6.079  28.933  51.909  1.00  0.00    -0.262 OA
HETATM    4  H   UNL     1       3.600  27.354  53.106  1.00  0.00     0.162 HD
ENDROOT
BRANCH   1   5
HETATM    5  C   UNL     1       4.693  27.266  50.873  1.00  0.00     0.313 C 
HETATM    6  N   UNL     1       3.721  27.878  50.111  1.00  0.00    -0.319 N 
HETATM    7  H   UNL     1       3.486  28.819  50.414  1.00  0.00     0.169 HD
HETATM    8  O   UNL     1       5.224  26.174  50.734  1.00  0.00    -0.262 OA
BRANCH   6   9
HETATM    9  C   UNL     1       3.047  27.358  48.992  1.00  0.00     0.037 A 
HETATM   10  C   UNL     1       1.810  27.834  48.535  1.00  0.00     0.059 A 
HETATM   11  C   UNL     1       1.202  27.275  47.404  1.00  0.00     0.036 A 
HETATM   12  C   UNL     1       1.838  26.216  46.742  1.00  0.00     0.029 A 
HETATM   13  C   UNL     1       3.071  25.740  47.189  1.00  0.00     0.004 A 
HETATM   14  C   UNL     1       3.674  26.314  48.305  1.00  0.00     0.029 A 
BRANCH  11  15
HETATM   15  N   UNL     1      -0.033  27.704  46.870  1.00  0.00    -0.327 N 
HETATM   16  C   UNL     1      -0.316  28.910  46.257  1.00  0.00     0.218 C 
HETATM   17  C   UNL     1      -1.761  29.035  45.839  1.00  0.00     0.117 C 
HETATM   18  O   UNL     1       0.470  29.820  46.020  1.00  0.00    -0.274 OA
HETATM   19  H   UNL     1      -0.785  27.028  46.911  1.00  0.00     0.169 HD
ENDBRANCH  11  15
ENDBRANCH   6   9
ENDBRANCH   1   5
BRANCH   2  20
HETATM   20  C   UNL     1       4.526  28.818  54.362  1.00  0.00     0.133 C 
BRANCH  20  21
HETATM   21  C   UNL     1       5.049  28.080  55.598  1.00  0.00     0.102 C 
BRANCH  21  22
HETATM   22  S   UNL     1       6.874  28.110  55.648  1.00  0.00    -0.090 SA
BRANCH  22  23
HETATM   23  C   UNL     1       7.235  26.659  54.796  1.00  0.00     0.166 A 
HETATM   24  N   UNL     1       7.219  25.433  55.252  1.00  0.00    -0.223 NA
HETATM   25  C   UNL     1       7.615  24.646  54.188  1.00  0.00     0.085 A 
HETATM   26  C   UNL     1       7.860  25.432  53.080  1.00  0.00     0.122 A 
HETATM   27  N   UNL     1       7.611  26.715  53.488  1.00  0.00    -0.343 N 
HETATM   28  H   UNL     1       7.687  27.561  52.942  1.00  0.00     0.167 HD
BRANCH  25  29
HETATM   29  C   UNL     1       7.744  23.197  54.276  1.00  0.00    -0.006 A 
HETATM   30  C   UNL     1       7.906  22.448  53.101  1.00  0.00     0.014 A 
HETATM   31  C   UNL     1       8.026  21.056  53.147  1.00  0.00     0.001 A 
HETATM   32  C   UNL     1       7.986  20.395  54.372  1.00  0.00     0.000 A 
HETATM   33  C   UNL     1       7.825  21.123  55.548  1.00  0.00     0.001 A 
HETATM   34  C   UNL     1       7.705  22.516  55.501  1.00  0.00     0.014 A 
ENDBRANCH  25  29
ENDBRANCH  22  23
ENDBRANCH  21  22
ENDBRANCH  20  21
ENDBRANCH   2  20
TORSDOF 8
ENDMDL
MODEL 8
REMARK VINA RESULT:      -8.7      2.308      3.341
REMARK  8 active torsions:
REMARK  status: ('A' for Active; 'I' for Inactive)
REMARK       I    between atoms: C_2  and  N_3 
REMARK    1  A    between atoms: N_3  and  C_4 
REMARK    2  A    between atoms: C_6  and  N_7 
REMARK       I    between atoms: N_7  and  C_8 
REMARK    3  A    between atoms: C_8  and  C_9 
REMARK       I    between atoms: C_9  and  N_10 
REMARK    4  A    between atoms: N_10  and  C_11 
REMARK    5  A    between atoms: C_11  and  C_12 
REMARK    6  A    between atoms: C_12  and  S_13 
REMARK    7  A    between atoms: S_13  and  C_14 
REMARK    8  A    between atoms: C_16  and  C_17 
ROOT
HETATM    1  C   UNL     1       4.268  30.286  57.621  1.00  0.00     0.309 C 
HETATM    2  N   UNL     1       5.172  29.274  57.842  1.00  0.00    -0.352 N 
HETATM    3  O   UNL     1       3.364  30.287  56.797  1.00  0.00    -0.262 OA
HETATM    4  H   UNL     1       5.924  29.487  58.495  1.00  0.00     0.162 HD
ENDROOT
BRANCH   1   5
HETATM    5  C   UNL     1       4.479  31.512  58.538  1.00  0.00     0.313 C 
HETATM    6  N   UNL     1       3.725  31.430  59.689  1.00  0.00    -0.319 N 
HETATM    7  H   UNL     1       3.187  30.572  59.773  1.00  0.00     0.169 HD
HETATM    8  O   UNL     1       5.263  32.378  58.177  1.00  0.00    -0.262 OA
BRANCH   6   9
HETATM    9  C   UNL     1       3.628  32.373  60.728  1.00  0.00     0.037 A 
HETATM   10  C   UNL     1       4.462  32.382  61.854  1.00  0.00     0.059 A 
HETATM   11  C   UNL     1       4.315  33.361  62.845  1.00  0.00     0.036 A 
HETATM   12  C   UNL     1       3.307  34.324  62.706  1.00  0.00     0.029 A 
HETATM   13  C   UNL     1       2.475  34.324  61.586  1.00  0.00     0.004 A 
HETATM   14  C   UNL     1       2.641  33.355  60.599  1.00  0.00     0.029 A 
BRANCH  11  15
HETATM   15  N   UNL     1       5.121  33.450  64.002  1.00  0.00    -0.327 N 
HETATM   16  C   UNL     1       6.501  33.478  64.070  1.00  0.00     0.218 C 
HETATM   17  C   UNL     1       7.020  33.544  65.486  1.00  0.00     0.117 C 
HETATM   18  O   UNL     1       7.287  33.476  63.129  1.00  0.00    -0.274 OA
HETATM   19  H   UNL     1       4.621  33.543  64.876  1.00  0.00     0.169 HD
ENDBRANCH  11  15
ENDBRANCH   6   9
ENDBRANCH   1   5
BRANCH   2  20
HETATM   20  C   UNL     1       5.287  28.117  56.979  1.00  0.00     0.133 C 
BRANCH  20  21
HETATM   21  C   UNL     1       6.736  27.679  56.751  1.00  0.00     0.102 C 
BRANCH  21  22
HETATM   22  S   UNL     1       7.171  27.772  54.979  1.00  0.00    -0.090 SA
BRANCH  22  23
HETATM   23  C   UNL     1       6.924  26.135  54.510  1.00  0.00     0.166 A 
HETATM   24  N   UNL     1       7.651  25.091  54.818  1.00  0.00    -0.223 NA
HETATM   25  C   UNL     1       7.051  24.029  54.169  1.00  0.00     0.085 A 
HETATM   26  C   UNL     1       5.941  24.462  53.472  1.00  0.00     0.122 A 
HETATM   27  N   UNL     1       5.876  25.810  53.703  1.00  0.00    -0.343 N 
HETATM   28  H   UNL     1       5.191  26.463  53.351  1.00  0.00     0.167 HD
BRANCH  25  29
HETATM   29  C   UNL     1       7.560  22.665  54.239  1.00  0.00    -0.006 A 
HETATM   30  C   UNL     1       7.932  22.007  53.058  1.00  0.00     0.014 A 
HETATM   31  C   UNL     1       8.418  20.697  53.087  1.00  0.00     0.001 A 
HETATM   32  C   UNL     1       8.539  20.027  54.302  1.00  0.00     0.000 A 
HETATM   33  C   UNL     1       8.173  20.665  55.485  1.00  0.00     0.001 A 
HETATM   34  C   UNL     1       7.687  21.976  55.454  1.00  0.00     0.014 A 
ENDBRANCH  25  29
ENDBRANCH  22  23
ENDBRANCH  21  22
ENDBRANCH  20  21
ENDBRANCH   2  20
TORSDOF 8
ENDMDL
MODEL 9
REMARK VINA RESULT:      -8.6      3.264     10.566
REMARK  8 active torsions:
REMARK  status: ('A' for Active; 'I' for Inactive)
REMARK       I    between atoms: C_2  and  N_3 
REMARK    1  A    between atoms: N_3  and  C_4 
REMARK    2  A    between atoms: C_6  and  N_7 
REMARK       I    between atoms: N_7  and  C_8 
REMARK    3  A    between atoms: C_8  and  C_9 
REMARK       I    between atoms: C_9  and  N_10 
REMARK    4  A    between atoms: N_10  and  C_11 
REMARK    5  A    between atoms: C_11  and  C_12 
REMARK    6  A    between atoms: C_12  and  S_13 
REMARK    7  A    between atoms: S_13  and  C_14 
REMARK    8  A    between atoms: C_16  and  C_17 
ROOT
HETATM    1  C   UNL     1       4.879  28.861  55.412  1.00  0.00     0.309 C 
HETATM    2  N   UNL     1       4.799  29.777  54.390  1.00  0.00    -0.352 N 
HETATM    3  O   UNL     1       4.228  28.868  56.447  1.00  0.00    -0.262 OA
HETATM    4  H   UNL     1       5.491  29.675  53.650  1.00  0.00     0.162 HD
ENDROOT
BRANCH   1   5
HETATM    5  C   UNL     1       5.916  27.744  55.159  1.00  0.00     0.313 C 
HETATM    6  N   UNL     1       5.945  26.826  56.186  1.00  0.00    -0.319 N 
HETATM    7  H   UNL     1       5.262  27.000  56.920  1.00  0.00     0.169 HD
HETATM    8  O   UNL     1       6.562  27.777  54.122  1.00  0.00    -0.262 OA
BRANCH   6   9
HETATM    9  C   UNL     1       6.784  25.706  56.322  1.00  0.00     0.037 A 
HETATM   10  C   UNL     1       6.682  24.553  55.531  1.00  0.00     0.059 A 
HETATM   11  C   UNL     1       7.562  23.479  55.716  1.00  0.00     0.036 A 
HETATM   12  C   UNL     1       8.539  23.563  56.717  1.00  0.00     0.029 A 
HETATM   13  C   UNL     1       8.649  24.709  57.505  1.00  0.00     0.004 A 
HETATM   14  C   UNL     1       7.779  25.777  57.302  1.00  0.00     0.029 A 
BRANCH  11  15
HETATM   15  N   UNL     1       7.536  22.289  54.954  1.00  0.00    -0.327 N 
HETATM   16  C   UNL     1       7.985  22.104  53.660  1.00  0.00     0.218 C 
HETATM   17  C   UNL     1       7.764  20.699  53.155  1.00  0.00     0.117 C 
HETATM   18  O   UNL     1       8.533  22.933  52.943  1.00  0.00    -0.274 OA
HETATM   19  H   UNL     1       7.182  21.472  55.434  1.00  0.00     0.169 HD
ENDBRANCH  11  15
ENDBRANCH   6   9
ENDBRANCH   1   5
BRANCH   2  20
HETATM   20  C   UNL     1       4.041  31.006  54.489  1.00  0.00     0.133 C 
BRANCH  20  21
HETATM   21  C   UNL     1       4.816  32.138  55.169  1.00  0.00     0.102 C 
BRANCH  21  22
HETATM   22  S   UNL     1       3.943  32.716  56.665  1.00  0.00    -0.090 SA
BRANCH  22  23
HETATM   23  C   UNL     1       5.081  32.280  57.880  1.00  0.00     0.166 A 
HETATM   24  N   UNL     1       5.214  32.789  59.078  1.00  0.00    -0.223 NA
HETATM   25  C   UNL     1       6.285  32.120  59.638  1.00  0.00     0.085 A 
HETATM   26  C   UNL     1       6.784  31.190  58.748  1.00  0.00     0.122 A 
HETATM   27  N   UNL     1       6.001  31.307  57.631  1.00  0.00    -0.343 N 
HETATM   28  H   UNL     1       6.073  30.783  56.770  1.00  0.00     0.167 HD
BRANCH  25  29
HETATM   29  C   UNL     1       6.781  32.396  60.981  1.00  0.00    -0.006 A 
HETATM   30  C   UNL     1       7.770  31.570  61.533  1.00  0.00     0.014 A 
HETATM   31  C   UNL     1       8.265  31.801  62.819  1.00  0.00     0.001 A 
HETATM   32  C   UNL     1       7.775  32.866  63.571  1.00  0.00     0.000 A 
HETATM   33  C   UNL     1       6.791  33.696  63.039  1.00  0.00     0.001 A 
HETATM   34  C   UNL     1       6.298  33.463  61.750  1.00  0.00     0.014 A 
ENDBRANCH  25  29
ENDBRANCH  22  23
ENDBRANCH  21  22
ENDBRANCH  20  21
ENDBRANCH   2  20
TORSDOF 8
ENDMDL
MODEL 10
REMARK VINA RESULT:      -8.5      3.609      6.545
REMARK  8 active torsions:
REMARK  status: ('A' for Active; 'I' for Inactive)
REMARK       I    between atoms: C_2  and  N_3 
REMARK    1  A    between atoms: N_3  and  C_4 
REMARK    2  A    between atoms: C_6  and  N_7 
REMARK       I    between atoms: N_7  and  C_8 
REMARK    3  A    between atoms: C_8  and  C_9 
REMARK       I    between atoms: C_9  and  N_10 
REMARK    4  A    between atoms: N_10  and  C_11 
REMARK    5  A    between atoms: C_11  and  C_12 
REMARK    6  A    between atoms: C_12  and  S_13 
REMARK    7  A    between atoms: S_13  and  C_14 
REMARK    8  A    between atoms: C_16  and  C_17 
ROOT
HETATM    1  C   UNL     1       8.607  29.960  58.338  1.00  0.00     0.309 C 
HETATM    2  N   UNL     1       7.492  29.162  58.428  1.00  0.00    -0.352 N 
HETATM    3  O   UNL     1       9.571  29.782  57.607  1.00  0.00    -0.262 OA
HETATM    4  H   UNL     1       6.834  29.405  59.167  1.00  0.00     0.162 HD
ENDROOT
BRANCH   1   5
HETATM    5  C   UNL     1       8.570  31.182  59.283  1.00  0.00     0.313 C 
HETATM    6  N   UNL     1       7.754  30.966  60.372  1.00  0.00    -0.319 N 
HETATM    7  H   UNL     1       7.342  30.037  60.405  1.00  0.00     0.169 HD
HETATM    8  O   UNL     1       9.244  32.160  58.993  1.00  0.00    -0.262 OA
BRANCH   6   9
HETATM    9  C   UNL     1       7.446  31.860  61.413  1.00  0.00     0.037 A 
HETATM   10  C   UNL     1       6.428  32.820  61.342  1.00  0.00     0.059 A 
HETATM   11  C   UNL     1       6.170  33.671  62.424  1.00  0.00     0.036 A 
HETATM   12  C   UNL     1       6.959  33.564  63.577  1.00  0.00     0.029 A 
HETATM   13  C   UNL     1       7.972  32.609  63.657  1.00  0.00     0.004 A 
HETATM   14  C   UNL     1       8.209  31.756  62.581  1.00  0.00     0.029 A 
BRANCH  11  15
HETATM   15  N   UNL     1       5.156  34.654  62.439  1.00  0.00    -0.327 N 
HETATM   16  C   UNL     1       3.887  34.550  62.978  1.00  0.00     0.218 C 
HETATM   17  C   UNL     1       3.058  35.797  62.779  1.00  0.00     0.117 C 
HETATM   18  O   UNL     1       3.418  33.595  63.586  1.00  0.00    -0.274 OA
HETATM   19  H   UNL     1       5.409  35.550  62.043  1.00  0.00     0.169 HD
ENDBRANCH  11  15
ENDBRANCH   6   9
ENDBRANCH   1   5
BRANCH   2  20
HETATM   20  C   UNL     1       7.391  27.870  57.783  1.00  0.00     0.133 C 
BRANCH  20  21
HETATM   21  C   UNL     1       6.114  27.709  56.954  1.00  0.00     0.102 C 
BRANCH  21  22
HETATM   22  S   UNL     1       6.319  28.446  55.296  1.00  0.00    -0.090 SA
BRANCH  22  23
HETATM   23  C   UNL     1       5.537  29.961  55.527  1.00  0.00     0.166 A 
HETATM   24  N   UNL     1       5.449  30.662  56.628  1.00  0.00    -0.223 NA
HETATM   25  C   UNL     1       4.697  31.771  56.293  1.00  0.00     0.085 A 
HETATM   26  C   UNL     1       4.345  31.721  54.959  1.00  0.00     0.122 A 
HETATM   27  N   UNL     1       4.892  30.558  54.487  1.00  0.00    -0.343 N 
HETATM   28  H   UNL     1       4.838  30.189  53.548  1.00  0.00     0.167 HD
BRANCH  25  29
HETATM   29  C   UNL     1       4.350  32.815  57.249  1.00  0.00    -0.006 A 
HETATM   30  C   UNL     1       4.650  34.152  56.948  1.00  0.00     0.014 A 
HETATM   31  C   UNL     1       4.337  35.178  57.843  1.00  0.00     0.001 A 
HETATM   32  C   UNL     1       3.718  34.880  59.054  1.00  0.00     0.000 A 
HETATM   33  C   UNL     1       3.414  33.557  59.370  1.00  0.00     0.001 A 
HETATM   34  C   UNL     1       3.728  32.531  58.472  1.00  0.00     0.014 A 
ENDBRANCH  25  29
ENDBRANCH  22  23
ENDBRANCH  21  22
ENDBRANCH  20  21
ENDBRANCH   2  20
TORSDOF 8
ENDMDL
