MODEL 1
REMARK VINA RESULT:     -10.1      0.000      0.000
REMARK  7 active torsions:
REMARK  status: ('A' for Active; 'I' for Inactive)
REMARK    1  A    between atoms: C_2  and  O_3 
REMARK    2  A    between atoms: O_3  and  C_4 
REMARK       I    between atoms: C_4  and  N_5 
REMARK       I    between atoms: N_8  and  C_9 
REMARK    3  A    between atoms: C_9  and  C_10 
REMARK    4  A    between atoms: C_11  and  N_12 
REMARK       I    between atoms: N_12  and  C_13 
REMARK    5  A    between atoms: C_13  and  C_14 
REMARK    6  A    between atoms: N_16  and  C_17 
REMARK    7  A    between atoms: C_18  and  O_19 
ROOT
HETATM    1  C   UNL     1       8.348  31.231  58.791  1.00  0.00     0.059 A 
HETATM    2  C   UNL     1       8.510  30.203  57.847  1.00  0.00     0.050 A 
HETATM    3  C   UNL     1       9.809  29.897  57.402  1.00  0.00     0.030 A 
HETATM    4  C   UNL     1      10.925  30.575  57.900  1.00  0.00     0.002 A 
HETATM    5  C   UNL     1      10.759  31.598  58.825  1.00  0.00     0.001 A 
HETATM    6  C   UNL     1       9.476  31.939  59.252  1.00  0.00     0.019 A 
ENDROOT
BRANCH   2   7
HETATM    7  N   UNL     1       7.476  29.484  57.213  1.00  0.00    -0.326 N 
HETATM    8  C   UNL     1       6.992  28.233  57.536  1.00  0.00     0.228 C 
HETATM    9  O   UNL     1       7.617  27.386  58.170  1.00  0.00    -0.273 OA
HETATM   10  H   UNL     1       7.123  29.898  56.358  1.00  0.00     0.169 HD
BRANCH   8  11
HETATM   11  C   UNL     1       5.576  27.942  57.022  1.00  0.00     0.105 C 
HETATM   12  C   UNL     1       5.382  26.510  56.554  1.00  0.00     0.147 C 
HETATM   13  N   UNL     1       5.806  26.552  55.169  1.00  0.00    -0.315 N 
HETATM   14  C   UNL     1       5.705  27.851  54.649  1.00  0.00     0.225 C 
HETATM   15  O   UNL     1       5.896  28.217  53.501  1.00  0.00    -0.273 OA
HETATM   16  C   UNL     1       5.271  28.763  55.773  1.00  0.00     0.119 C 
BRANCH  13  17
HETATM   17  C   UNL     1       6.406  25.442  54.517  1.00  0.00     0.071 A 
HETATM   18  C   UNL     1       5.855  24.859  53.363  1.00  0.00     0.095 A 
HETATM   19  C   UNL     1       6.380  23.672  52.839  1.00  0.00     0.039 A 
HETATM   20  C   UNL     1       7.480  23.066  53.442  1.00  0.00     0.009 A 
HETATM   21  C   UNL     1       8.079  23.652  54.559  1.00  0.00    -0.060 A 
HETATM   22  C   UNL     1       9.222  22.974  55.257  1.00  0.00     0.048 C 
HETATM   23  C   UNL     1       7.541  24.839  55.082  1.00  0.00     0.039 A 
BRANCH  18  24
HETATM   24  O   UNL     1       4.786  25.450  52.733  1.00  0.00    -0.354 OA
HETATM   25  C   UNL     1       5.061  25.634  51.341  1.00  0.00     0.210 C 
ENDBRANCH  18  24
ENDBRANCH  13  17
ENDBRANCH   8  11
ENDBRANCH   2   7
BRANCH   1  26
HETATM   26  C   UNL     1       7.029  31.797  59.161  1.00  0.00     0.256 C 
HETATM   27  N   UNL     1       6.706  31.920  60.506  1.00  0.00    -0.345 N 
HETATM   28  C   UNL     1       7.429  31.327  61.634  1.00  0.00     0.146 C 
HETATM   29  C   UNL     1       5.464  32.584  60.896  1.00  0.00     0.146 C 
HETATM   30  C   UNL     1       7.767  32.407  62.669  1.00  0.00     0.148 C 
HETATM   31  N   UNL     1       6.605  33.219  63.042  1.00  0.00    -0.325 N 
HETATM   32  C   UNL     1       6.683  33.931  64.230  1.00  0.00     0.362 C 
HETATM   33  C   UNL     1       5.734  33.672  61.944  1.00  0.00     0.148 C 
HETATM   34  O   UNL     1       7.589  33.796  65.043  1.00  0.00    -0.238 OA
HETATM   35  O   UNL     1       6.315  32.217  58.250  1.00  0.00    -0.267 OA
BRANCH  32  36
HETATM   36  O   UNL     1       5.642  34.792  64.390  1.00  0.00    -0.304 OA
BRANCH  36  37
HETATM   37  C   UNL     1       4.736  34.492  65.461  1.00  0.00     0.176 C 
HETATM   38  C   UNL     1       3.876  35.698  65.793  1.00  0.00     0.034 C 
ENDBRANCH  36  37
ENDBRANCH  32  36
ENDBRANCH   1  26
TORSDOF 7
ENDMDL
MODEL 2
REMARK VINA RESULT:      -9.6      1.026      2.029
REMARK  7 active torsions:
REMARK  status: ('A' for Active; 'I' for Inactive)
REMARK    1  A    between atoms: C_2  and  O_3 
REMARK    2  A    between atoms: O_3  and  C_4 
REMARK       I    between atoms: C_4  and  N_5 
REMARK       I    between atoms: N_8  and  C_9 
REMARK    3  A    between atoms: C_9  and  C_10 
REMARK    4  A    between atoms: C_11  and  N_12 
REMARK       I    between atoms: N_12  and  C_13 
REMARK    5  A    between atoms: C_13  and  C_14 
REMARK    6  A    between atoms: N_16  and  C_17 
REMARK    7  A    between atoms: C_18  and  O_19 
ROOT
HETATM    1  C   UNL     1       8.203  31.252  58.714  1.00  0.00     0.059 A 
HETATM    2  C   UNL     1       8.278  30.161  57.833  1.00  0.00     0.050 A 
HETATM    3  C   UNL     1       9.538  29.782  57.337  1.00  0.00     0.030 A 
HETATM    4  C   UNL     1      10.702  30.451  57.725  1.00  0.00     0.002 A 
HETATM    5  C   UNL     1      10.622  31.536  58.589  1.00  0.00     0.001 A 
HETATM    6  C   UNL     1       9.378  31.948  59.064  1.00  0.00     0.019 A 
ENDROOT
BRANCH   2   7
HETATM    7  N   UNL     1       7.187  29.439  57.307  1.00  0.00    -0.326 N 
HETATM    8  C   UNL     1       6.825  28.135  57.574  1.00  0.00     0.228 C 
HETATM    9  O   UNL     1       7.588  27.275  58.007  1.00  0.00    -0.273 OA
HETATM   10  H   UNL     1       6.674  29.908  56.569  1.00  0.00     0.169 HD
BRANCH   8  11
HETATM   11  C   UNL     1       5.357  27.804  57.272  1.00  0.00     0.105 C 
HETATM   12  C   UNL     1       5.181  26.589  56.378  1.00  0.00     0.147 C 
HETATM   13  N   UNL     1       5.263  27.143  55.042  1.00  0.00    -0.315 N 
HETATM   14  C   UNL     1       4.932  28.507  55.041  1.00  0.00     0.225 C 
HETATM   15  O   UNL     1       4.817  29.251  54.081  1.00  0.00    -0.273 OA
HETATM   16  C   UNL     1       4.699  28.925  56.474  1.00  0.00     0.119 C 
BRANCH  13  17
HETATM   17  C   UNL     1       5.785  26.416  53.940  1.00  0.00     0.071 A 
HETATM   18  C   UNL     1       7.023  25.754  53.992  1.00  0.00     0.095 A 
HETATM   19  C   UNL     1       7.581  25.185  52.842  1.00  0.00     0.039 A 
HETATM   20  C   UNL     1       6.898  25.243  51.629  1.00  0.00     0.009 A 
HETATM   21  C   UNL     1       5.642  25.849  51.560  1.00  0.00    -0.060 A 
HETATM   22  C   UNL     1       4.926  25.977  50.246  1.00  0.00     0.048 C 
HETATM   23  C   UNL     1       5.093  26.424  52.717  1.00  0.00     0.039 A 
BRANCH  18  24
HETATM   24  O   UNL     1       7.706  25.660  55.181  1.00  0.00    -0.354 OA
HETATM   25  C   UNL     1       8.117  24.311  55.419  1.00  0.00     0.210 C 
ENDBRANCH  18  24
ENDBRANCH  13  17
ENDBRANCH   8  11
ENDBRANCH   2   7
BRANCH   1  26
HETATM   26  C   UNL     1       6.926  31.887  59.120  1.00  0.00     0.256 C 
HETATM   27  N   UNL     1       6.628  31.988  60.472  1.00  0.00    -0.345 N 
HETATM   28  C   UNL     1       7.326  31.317  61.572  1.00  0.00     0.146 C 
HETATM   29  C   UNL     1       5.435  32.714  60.899  1.00  0.00     0.146 C 
HETATM   30  C   UNL     1       7.743  32.342  62.633  1.00  0.00     0.148 C 
HETATM   31  N   UNL     1       6.638  33.213  63.047  1.00  0.00    -0.325 N 
HETATM   32  C   UNL     1       6.775  33.882  64.254  1.00  0.00     0.362 C 
HETATM   33  C   UNL     1       5.784  33.751  61.975  1.00  0.00     0.148 C 
HETATM   34  O   UNL     1       7.681  33.667  65.050  1.00  0.00    -0.238 OA
HETATM   35  O   UNL     1       6.229  32.378  58.232  1.00  0.00    -0.267 OA
BRANCH  32  36
HETATM   36  O   UNL     1       5.791  34.800  64.455  1.00  0.00    -0.304 OA
BRANCH  36  37
HETATM   37  C   UNL     1       5.283  34.895  65.793  1.00  0.00     0.176 C 
HETATM   38  C   UNL     1       4.387  36.112  65.943  1.00  0.00     0.034 C 
ENDBRANCH  36  37
ENDBRANCH  32  36
ENDBRANCH   1  26
TORSDOF 7
ENDMDL
MODEL 3
REMARK VINA RESULT:      -9.5      1.921      2.799
REMARK  7 active torsions:
REMARK  status: ('A' for Active; 'I' for Inactive)
REMARK    1  A    between atoms: C_2  and  O_3 
REMARK    2  A    between atoms: O_3  and  C_4 
REMARK       I    between atoms: C_4  and  N_5 
REMARK       I    between atoms: N_8  and  C_9 
REMARK    3  A    between atoms: C_9  and  C_10 
REMARK    4  A    between atoms: C_11  and  N_12 
REMARK       I    between atoms: N_12  and  C_13 
REMARK    5  A    between atoms: C_13  and  C_14 
REMARK    6  A    between atoms: N_16  and  C_17 
REMARK    7  A    between atoms: C_18  and  O_19 
ROOT
HETATM    1  C   UNL     1       8.284  30.393  57.664  1.00  0.00     0.059 A 
HETATM    2  C   UNL     1       8.779  29.348  56.867  1.00  0.00     0.050 A 
HETATM    3  C   UNL     1      10.172  29.199  56.743  1.00  0.00     0.030 A 
HETATM    4  C   UNL     1      11.056  30.048  57.414  1.00  0.00     0.002 A 
HETATM    5  C   UNL     1      10.562  31.086  58.193  1.00  0.00     0.001 A 
HETATM    6  C   UNL     1       9.184  31.272  58.301  1.00  0.00     0.019 A 
ENDROOT
BRANCH   2   7
HETATM    7  N   UNL     1       8.010  28.462  56.084  1.00  0.00    -0.326 N 
HETATM    8  C   UNL     1       7.064  27.556  56.514  1.00  0.00     0.228 C 
HETATM    9  O   UNL     1       7.002  27.099  57.652  1.00  0.00    -0.273 OA
HETATM   10  H   UNL     1       8.264  28.422  55.104  1.00  0.00     0.169 HD
BRANCH   8  11
HETATM   11  C   UNL     1       6.061  27.120  55.437  1.00  0.00     0.105 C 
HETATM   12  C   UNL     1       5.733  25.638  55.477  1.00  0.00     0.147 C 
HETATM   13  N   UNL     1       6.770  25.044  54.658  1.00  0.00    -0.315 N 
HETATM   14  C   UNL     1       7.298  25.980  53.756  1.00  0.00     0.225 C 
HETATM   15  O   UNL     1       8.118  25.792  52.872  1.00  0.00    -0.273 OA
HETATM   16  C   UNL     1       6.644  27.312  54.040  1.00  0.00     0.119 C 
BRANCH  13  17
HETATM   17  C   UNL     1       7.279  23.739  54.890  1.00  0.00     0.071 A 
HETATM   18  C   UNL     1       7.852  23.361  56.117  1.00  0.00     0.095 A 
HETATM   19  C   UNL     1       8.487  22.122  56.260  1.00  0.00     0.039 A 
HETATM   20  C   UNL     1       8.535  21.232  55.190  1.00  0.00     0.009 A 
HETATM   21  C   UNL     1       7.929  21.560  53.976  1.00  0.00    -0.060 A 
HETATM   22  C   UNL     1       8.032  20.638  52.796  1.00  0.00     0.048 C 
HETATM   23  C   UNL     1       7.300  22.808  53.839  1.00  0.00     0.039 A 
BRANCH  18  24
HETATM   24  O   UNL     1       7.796  24.209  57.196  1.00  0.00    -0.354 OA
HETATM   25  C   UNL     1       9.113  24.514  57.664  1.00  0.00     0.210 C 
ENDBRANCH  18  24
ENDBRANCH  13  17
ENDBRANCH   8  11
ENDBRANCH   2   7
BRANCH   1  26
HETATM   26  C   UNL     1       6.857  30.794  57.690  1.00  0.00     0.256 C 
HETATM   27  N   UNL     1       6.322  31.294  58.870  1.00  0.00    -0.345 N 
HETATM   28  C   UNL     1       6.946  31.255  60.196  1.00  0.00     0.146 C 
HETATM   29  C   UNL     1       4.954  31.805  58.887  1.00  0.00     0.146 C 
HETATM   30  C   UNL     1       6.967  32.660  60.809  1.00  0.00     0.148 C 
HETATM   31  N   UNL     1       5.658  33.318  60.765  1.00  0.00    -0.325 N 
HETATM   32  C   UNL     1       5.454  34.385  61.627  1.00  0.00     0.362 C 
HETATM   33  C   UNL     1       4.905  33.209  59.504  1.00  0.00     0.148 C 
HETATM   34  O   UNL     1       6.239  34.699  62.515  1.00  0.00    -0.238 OA
HETATM   35  O   UNL     1       6.235  30.747  56.629  1.00  0.00    -0.267 OA
BRANCH  32  36
HETATM   36  O   UNL     1       4.288  35.040  61.379  1.00  0.00    -0.304 OA
BRANCH  36  37
HETATM   37  C   UNL     1       3.397  35.183  62.493  1.00  0.00     0.176 C 
HETATM   38  C   UNL     1       2.767  33.849  62.853  1.00  0.00     0.034 C 
ENDBRANCH  36  37
ENDBRANCH  32  36
ENDBRANCH   1  26
TORSDOF 7
ENDMDL
MODEL 4
REMARK VINA RESULT:      -9.4      1.998      2.507
REMARK  7 active torsions:
REMARK  status: ('A' for Active; 'I' for Inactive)
REMARK    1  A    between atoms: C_2  and  O_3 
REMARK    2  A    between atoms: O_3  and  C_4 
REMARK       I    between atoms: C_4  and  N_5 
REMARK       I    between atoms: N_8  and  C_9 
REMARK    3  A    between atoms: C_9  and  C_10 
REMARK    4  A    between atoms: C_11  and  N_12 
REMARK       I    between atoms: N_12  and  C_13 
REMARK    5  A    between atoms: C_13  and  C_14 
REMARK    6  A    between atoms: N_16  and  C_17 
REMARK    7  A    between atoms: C_18  and  O_19 
ROOT
HETATM    1  C   UNL     1       6.464  31.669  58.962  1.00  0.00     0.059 A 
HETATM    2  C   UNL     1       6.267  30.613  58.058  1.00  0.00     0.050 A 
HETATM    3  C   UNL     1       7.333  29.729  57.814  1.00  0.00     0.030 A 
HETATM    4  C   UNL     1       8.559  29.871  58.469  1.00  0.00     0.002 A 
HETATM    5  C   UNL     1       8.753  30.924  59.355  1.00  0.00     0.001 A 
HETATM    6  C   UNL     1       7.719  31.831  59.583  1.00  0.00     0.019 A 
ENDROOT
BRANCH   2   7
HETATM    7  N   UNL     1       5.112  30.387  57.280  1.00  0.00    -0.326 N 
HETATM    8  C   UNL     1       4.831  30.874  56.021  1.00  0.00     0.228 C 
HETATM    9  O   UNL     1       5.346  31.874  55.529  1.00  0.00    -0.273 OA
HETATM   10  H   UNL     1       4.365  29.891  57.751  1.00  0.00     0.169 HD
BRANCH   8  11
HETATM   11  C   UNL     1       3.779  30.070  55.245  1.00  0.00     0.105 C 
HETATM   12  C   UNL     1       3.846  28.575  55.502  1.00  0.00     0.147 C 
HETATM   13  N   UNL     1       4.819  28.113  54.533  1.00  0.00    -0.315 N 
HETATM   14  C   UNL     1       4.910  28.999  53.448  1.00  0.00     0.225 C 
HETATM   15  O   UNL     1       5.562  28.869  52.425  1.00  0.00    -0.273 OA
HETATM   16  C   UNL     1       4.011  30.178  53.741  1.00  0.00     0.119 C 
BRANCH  13  17
HETATM   17  C   UNL     1       5.674  27.004  54.771  1.00  0.00     0.071 A 
HETATM   18  C   UNL     1       5.511  25.773  54.113  1.00  0.00     0.095 A 
HETATM   19  C   UNL     1       6.265  24.655  54.486  1.00  0.00     0.039 A 
HETATM   20  C   UNL     1       7.214  24.758  55.501  1.00  0.00     0.009 A 
HETATM   21  C   UNL     1       7.434  25.982  56.135  1.00  0.00    -0.060 A 
HETATM   22  C   UNL     1       8.405  26.089  57.275  1.00  0.00     0.048 C 
HETATM   23  C   UNL     1       6.666  27.096  55.759  1.00  0.00     0.039 A 
BRANCH  18  24
HETATM   24  O   UNL     1       4.599  25.651  53.091  1.00  0.00    -0.354 OA
HETATM   25  C   UNL     1       5.267  25.427  51.846  1.00  0.00     0.210 C 
ENDBRANCH  18  24
ENDBRANCH  13  17
ENDBRANCH   8  11
ENDBRANCH   2   7
BRANCH   1  26
HETATM   26  C   UNL     1       5.507  32.789  59.128  1.00  0.00     0.256 C 
HETATM   27  N   UNL     1       4.763  32.867  60.298  1.00  0.00    -0.345 N 
HETATM   28  C   UNL     1       4.628  31.822  61.317  1.00  0.00     0.146 C 
HETATM   29  C   UNL     1       3.903  34.024  60.535  1.00  0.00     0.146 C 
HETATM   30  C   UNL     1       4.961  32.391  62.701  1.00  0.00     0.148 C 
HETATM   31  N   UNL     1       4.238  33.632  62.993  1.00  0.00    -0.325 N 
HETATM   32  C   UNL     1       4.138  34.010  64.324  1.00  0.00     0.362 C 
HETATM   33  C   UNL     1       4.180  34.634  61.916  1.00  0.00     0.148 C 
HETATM   34  O   UNL     1       4.479  33.296  65.260  1.00  0.00    -0.238 OA
HETATM   35  O   UNL     1       5.486  33.653  58.252  1.00  0.00    -0.267 OA
BRANCH  32  36
HETATM   36  O   UNL     1       3.619  35.259  64.474  1.00  0.00    -0.304 OA
BRANCH  36  37
HETATM   37  C   UNL     1       4.378  36.162  65.289  1.00  0.00     0.176 C 
HETATM   38  C   UNL     1       5.028  37.238  64.438  1.00  0.00     0.034 C 
ENDBRANCH  36  37
ENDBRANCH  32  36
ENDBRANCH   1  26
TORSDOF 7
ENDMDL
MODEL 5
REMARK VINA RESULT:      -9.2      3.609      7.495
REMARK  7 active torsions:
REMARK  status: ('A' for Active; 'I' for Inactive)
REMARK    1  A    between atoms: C_2  and  O_3 
REMARK    2  A    between atoms: O_3  and  C_4 
REMARK       I    between atoms: C_4  and  N_5 
REMARK       I    between atoms: N_8  and  C_9 
REMARK    3  A    between atoms: C_9  and  C_10 
REMARK    4  A    between atoms: C_11  and  N_12 
REMARK       I    between atoms: N_12  and  C_13 
REMARK    5  A    between atoms: C_13  and  C_14 
REMARK    6  A    between atoms: N_16  and  C_17 
REMARK    7  A    between atoms: C_18  and  O_19 
ROOT
HETATM    1  C   UNL     1       6.532  25.788  54.656  1.00  0.00     0.059 A 
HETATM    2  C   UNL     1       6.769  26.052  53.297  1.00  0.00     0.050 A 
HETATM    3  C   UNL     1       7.572  25.157  52.568  1.00  0.00     0.030 A 
HETATM    4  C   UNL     1       8.107  24.012  53.163  1.00  0.00     0.002 A 
HETATM    5  C   UNL     1       7.878  23.760  54.510  1.00  0.00     0.001 A 
HETATM    6  C   UNL     1       7.114  24.654  55.258  1.00  0.00     0.019 A 
ENDROOT
BRANCH   2   7
HETATM    7  N   UNL     1       6.351  27.196  52.586  1.00  0.00    -0.326 N 
HETATM    8  C   UNL     1       5.183  27.371  51.873  1.00  0.00     0.228 C 
HETATM    9  O   UNL     1       4.499  26.456  51.421  1.00  0.00    -0.273 OA
HETATM   10  H   UNL     1       7.041  27.934  52.511  1.00  0.00     0.169 HD
BRANCH   8  11
HETATM   11  C   UNL     1       4.781  28.835  51.653  1.00  0.00     0.105 C 
HETATM   12  C   UNL     1       3.388  29.001  51.071  1.00  0.00     0.147 C 
HETATM   13  N   UNL     1       3.612  28.916  49.642  1.00  0.00    -0.315 N 
HETATM   14  C   UNL     1       4.934  29.254  49.318  1.00  0.00     0.225 C 
HETATM   15  O   UNL     1       5.430  29.369  48.208  1.00  0.00    -0.273 OA
HETATM   16  C   UNL     1       5.678  29.496  50.611  1.00  0.00     0.119 C 
BRANCH  13  17
HETATM   17  C   UNL     1       2.648  28.386  48.744  1.00  0.00     0.071 A 
HETATM   18  C   UNL     1       2.739  27.083  48.225  1.00  0.00     0.095 A 
HETATM   19  C   UNL     1       1.866  26.648  47.222  1.00  0.00     0.039 A 
HETATM   20  C   UNL     1       0.871  27.497  46.742  1.00  0.00     0.009 A 
HETATM   21  C   UNL     1       0.725  28.779  47.277  1.00  0.00    -0.060 A 
HETATM   22  C   UNL     1      -0.299  29.726  46.723  1.00  0.00     0.048 C 
HETATM   23  C   UNL     1       1.610  29.209  48.278  1.00  0.00     0.039 A 
BRANCH  18  24
HETATM   24  O   UNL     1       3.695  26.216  48.698  1.00  0.00    -0.354 OA
HETATM   25  C   UNL     1       3.348  24.865  48.381  1.00  0.00     0.210 C 
ENDBRANCH  18  24
ENDBRANCH  13  17
ENDBRANCH   8  11
ENDBRANCH   2   7
BRANCH   1  26
HETATM   26  C   UNL     1       5.903  26.763  55.579  1.00  0.00     0.256 C 
HETATM   27  N   UNL     1       6.685  27.360  56.559  1.00  0.00    -0.345 N 
HETATM   28  C   UNL     1       8.039  26.962  56.957  1.00  0.00     0.146 C 
HETATM   29  C   UNL     1       6.118  28.410  57.400  1.00  0.00     0.146 C 
HETATM   30  C   UNL     1       8.978  28.173  56.912  1.00  0.00     0.148 C 
HETATM   31  N   UNL     1       8.442  29.333  57.630  1.00  0.00    -0.325 N 
HETATM   32  C   UNL     1       9.343  30.320  58.004  1.00  0.00     0.362 C 
HETATM   33  C   UNL     1       7.021  29.650  57.409  1.00  0.00     0.148 C 
HETATM   34  O   UNL     1      10.558  30.201  57.906  1.00  0.00    -0.238 OA
HETATM   35  O   UNL     1       4.728  27.065  55.372  1.00  0.00    -0.267 OA
BRANCH  32  36
HETATM   36  O   UNL     1       8.726  31.430  58.492  1.00  0.00    -0.304 OA
BRANCH  36  37
HETATM   37  C   UNL     1       9.286  31.986  59.690  1.00  0.00     0.176 C 
HETATM   38  C   UNL     1       8.931  31.133  60.895  1.00  0.00     0.034 C 
ENDBRANCH  36  37
ENDBRANCH  32  36
ENDBRANCH   1  26
TORSDOF 7
ENDMDL
MODEL 6
REMARK VINA RESULT:      -9.2      2.407     10.667
REMARK  7 active torsions:
REMARK  status: ('A' for Active; 'I' for Inactive)
REMARK    1  A    between atoms: C_2  and  O_3 
REMARK    2  A    between atoms: O_3  and  C_4 
REMARK       I    between atoms: C_4  and  N_5 
REMARK       I    between atoms: N_8  and  C_9 
REMARK    3  A    between atoms: C_9  and  C_10 
REMARK    4  A    between atoms: C_11  and  N_12 
REMARK       I    between atoms: N_12  and  C_13 
REMARK    5  A    between atoms: C_13  and  C_14 
REMARK    6  A    between atoms: N_16  and  C_17 
REMARK    7  A    between atoms: C_18  and  O_19 
ROOT
HETATM    1  C   UNL     1       6.065  30.657  57.467  1.00  0.00     0.059 A 
HETATM    2  C   UNL     1       5.671  31.557  58.471  1.00  0.00     0.050 A 
HETATM    3  C   UNL     1       5.014  32.742  58.091  1.00  0.00     0.030 A 
HETATM    4  C   UNL     1       4.730  33.017  56.751  1.00  0.00     0.002 A 
HETATM    5  C   UNL     1       5.131  32.129  55.761  1.00  0.00     0.001 A 
HETATM    6  C   UNL     1       5.814  30.966  56.115  1.00  0.00     0.019 A 
ENDROOT
BRANCH   2   7
HETATM    7  N   UNL     1       5.947  31.441  59.849  1.00  0.00    -0.326 N 
HETATM    8  C   UNL     1       6.962  32.043  60.562  1.00  0.00     0.228 C 
HETATM    9  O   UNL     1       8.006  32.465  60.070  1.00  0.00    -0.273 OA
HETATM   10  H   UNL     1       5.392  30.753  60.344  1.00  0.00     0.169 HD
BRANCH   8  11
HETATM   11  C   UNL     1       6.710  32.144  62.073  1.00  0.00     0.105 C 
HETATM   12  C   UNL     1       5.237  32.211  62.438  1.00  0.00     0.147 C 
HETATM   13  N   UNL     1       4.939  33.627  62.360  1.00  0.00    -0.315 N 
HETATM   14  C   UNL     1       6.100  34.397  62.526  1.00  0.00     0.225 C 
HETATM   15  O   UNL     1       6.192  35.612  62.601  1.00  0.00    -0.273 OA
HETATM   16  C   UNL     1       7.270  33.447  62.633  1.00  0.00     0.119 C 
BRANCH  13  17
HETATM   17  C   UNL     1       3.662  34.124  61.987  1.00  0.00     0.071 A 
HETATM   18  C   UNL     1       2.572  34.142  62.873  1.00  0.00     0.095 A 
HETATM   19  C   UNL     1       1.291  34.486  62.428  1.00  0.00     0.039 A 
HETATM   20  C   UNL     1       1.085  34.846  61.098  1.00  0.00     0.009 A 
HETATM   21  C   UNL     1       2.160  34.888  60.207  1.00  0.00    -0.060 A 
HETATM   22  C   UNL     1       1.940  35.208  58.757  1.00  0.00     0.048 C 
HETATM   23  C   UNL     1       3.441  34.533  60.662  1.00  0.00     0.039 A 
BRANCH  18  24
HETATM   24  O   UNL     1       2.751  33.816  64.196  1.00  0.00    -0.354 OA
HETATM   25  C   UNL     1       3.271  34.933  64.923  1.00  0.00     0.210 C 
ENDBRANCH  18  24
ENDBRANCH  13  17
ENDBRANCH   8  11
ENDBRANCH   2   7
BRANCH   1  26
HETATM   26  C   UNL     1       6.957  29.499  57.715  1.00  0.00     0.256 C 
HETATM   27  N   UNL     1       6.533  28.232  57.337  1.00  0.00    -0.345 N 
HETATM   28  C   UNL     1       5.177  27.853  56.927  1.00  0.00     0.146 C 
HETATM   29  C   UNL     1       7.441  27.096  57.461  1.00  0.00     0.146 C 
HETATM   30  C   UNL     1       5.220  27.124  55.579  1.00  0.00     0.148 C 
HETATM   31  N   UNL     1       6.199  26.032  55.556  1.00  0.00    -0.325 N 
HETATM   32  C   UNL     1       6.047  25.065  54.572  1.00  0.00     0.362 C 
HETATM   33  C   UNL     1       7.519  26.313  56.144  1.00  0.00     0.148 C 
HETATM   34  O   UNL     1       5.070  24.993  53.836  1.00  0.00    -0.238 OA
HETATM   35  O   UNL     1       8.079  29.733  58.165  1.00  0.00    -0.267 OA
BRANCH  32  36
HETATM   36  O   UNL     1       7.102  24.208  54.517  1.00  0.00    -0.304 OA
BRANCH  36  37
HETATM   37  C   UNL     1       7.711  24.041  53.229  1.00  0.00     0.176 C 
HETATM   38  C   UNL     1       7.865  22.568  52.894  1.00  0.00     0.034 C 
ENDBRANCH  36  37
ENDBRANCH  32  36
ENDBRANCH   1  26
TORSDOF 7
ENDMDL
MODEL 7
REMARK VINA RESULT:      -9.0      2.356      9.971
REMARK  7 active torsions:
REMARK  status: ('A' for Active; 'I' for Inactive)
REMARK    1  A    between atoms: C_2  and  O_3 
REMARK    2  A    between atoms: O_3  and  C_4 
REMARK       I    between atoms: C_4  and  N_5 
REMARK       I    between atoms: N_8  and  C_9 
REMARK    3  A    between atoms: C_9  and  C_10 
REMARK    4  A    between atoms: C_11  and  N_12 
REMARK       I    between atoms: N_12  and  C_13 
REMARK    5  A    between atoms: C_13  and  C_14 
REMARK    6  A    between atoms: N_16  and  C_17 
REMARK    7  A    between atoms: C_18  and  O_19 
ROOT
HETATM    1  C   UNL     1       4.578  30.570  55.862  1.00  0.00     0.059 A 
HETATM    2  C   UNL     1       3.720  31.605  56.265  1.00  0.00     0.050 A 
HETATM    3  C   UNL     1       2.904  32.219  55.296  1.00  0.00     0.030 A 
HETATM    4  C   UNL     1       2.919  31.798  53.964  1.00  0.00     0.002 A 
HETATM    5  C   UNL     1       3.777  30.780  53.568  1.00  0.00     0.001 A 
HETATM    6  C   UNL     1       4.618  30.184  54.506  1.00  0.00     0.019 A 
ENDROOT
BRANCH   2   7
HETATM    7  N   UNL     1       3.648  32.174  57.554  1.00  0.00    -0.326 N 
HETATM    8  C   UNL     1       4.293  33.300  58.020  1.00  0.00     0.228 C 
HETATM    9  O   UNL     1       5.315  33.773  57.528  1.00  0.00    -0.273 OA
HETATM   10  H   UNL     1       3.142  31.625  58.239  1.00  0.00     0.169 HD
BRANCH   8  11
HETATM   11  C   UNL     1       3.642  33.946  59.251  1.00  0.00     0.105 C 
HETATM   12  C   UNL     1       4.637  34.328  60.333  1.00  0.00     0.147 C 
HETATM   13  N   UNL     1       4.760  33.115  61.116  1.00  0.00    -0.315 N 
HETATM   14  C   UNL     1       3.625  32.303  60.969  1.00  0.00     0.225 C 
HETATM   15  O   UNL     1       3.366  31.262  61.551  1.00  0.00    -0.273 OA
HETATM   16  C   UNL     1       2.717  32.961  59.957  1.00  0.00     0.119 C 
BRANCH  13  17
HETATM   17  C   UNL     1       5.959  32.750  61.785  1.00  0.00     0.071 A 
HETATM   18  C   UNL     1       6.078  32.776  63.185  1.00  0.00     0.095 A 
HETATM   19  C   UNL     1       7.316  32.568  63.803  1.00  0.00     0.039 A 
HETATM   20  C   UNL     1       8.447  32.301  63.035  1.00  0.00     0.009 A 
HETATM   21  C   UNL     1       8.346  32.218  61.644  1.00  0.00    -0.060 A 
HETATM   22  C   UNL     1       9.569  31.998  60.802  1.00  0.00     0.048 C 
HETATM   23  C   UNL     1       7.102  32.436  61.032  1.00  0.00     0.039 A 
BRANCH  18  24
HETATM   24  O   UNL     1       4.973  33.012  63.968  1.00  0.00    -0.354 OA
HETATM   25  C   UNL     1       5.356  33.607  65.211  1.00  0.00     0.210 C 
ENDBRANCH  18  24
ENDBRANCH  13  17
ENDBRANCH   8  11
ENDBRANCH   2   7
BRANCH   1  26
HETATM   26  C   UNL     1       5.641  30.007  56.729  1.00  0.00     0.256 C 
HETATM   27  N   UNL     1       5.745  28.628  56.854  1.00  0.00    -0.345 N 
HETATM   28  C   UNL     1       4.761  27.636  56.410  1.00  0.00     0.146 C 
HETATM   29  C   UNL     1       6.855  28.049  57.605  1.00  0.00     0.146 C 
HETATM   30  C   UNL     1       5.439  26.581  55.528  1.00  0.00     0.148 C 
HETATM   31  N   UNL     1       6.646  26.019  56.142  1.00  0.00    -0.325 N 
HETATM   32  C   UNL     1       7.101  24.805  55.649  1.00  0.00     0.362 C 
HETATM   33  C   UNL     1       7.570  26.972  56.779  1.00  0.00     0.148 C 
HETATM   34  O   UNL     1       6.473  24.116  54.853  1.00  0.00    -0.238 OA
HETATM   35  O   UNL     1       6.443  30.796  57.229  1.00  0.00    -0.267 OA
BRANCH  32  36
HETATM   36  O   UNL     1       8.320  24.464  56.149  1.00  0.00    -0.304 OA
BRANCH  36  37
HETATM   37  C   UNL     1       8.957  23.333  55.539  1.00  0.00     0.176 C 
HETATM   38  C   UNL     1       8.638  22.059  56.301  1.00  0.00     0.034 C 
ENDBRANCH  36  37
ENDBRANCH  32  36
ENDBRANCH   1  26
TORSDOF 7
ENDMDL
MODEL 8
REMARK VINA RESULT:      -8.9      3.284      6.152
REMARK  7 active torsions:
REMARK  status: ('A' for Active; 'I' for Inactive)
REMARK    1  A    between atoms: C_2  and  O_3 
REMARK    2  A    between atoms: O_3  and  C_4 
REMARK       I    between atoms: C_4  and  N_5 
REMARK       I    between atoms: N_8  and  C_9 
REMARK    3  A    between atoms: C_9  and  C_10 
REMARK    4  A    between atoms: C_11  and  N_12 
REMARK       I    between atoms: N_12  and  C_13 
REMARK    5  A    between atoms: C_13  and  C_14 
REMARK    6  A    between atoms: N_16  and  C_17 
REMARK    7  A    between atoms: C_18  and  O_19 
ROOT
HETATM    1  C   UNL     1       5.743  33.236  63.446  1.00  0.00     0.059 A 
HETATM    2  C   UNL     1       5.710  32.498  62.251  1.00  0.00     0.050 A 
HETATM    3  C   UNL     1       6.885  31.850  61.828  1.00  0.00     0.030 A 
HETATM    4  C   UNL     1       8.058  31.909  62.584  1.00  0.00     0.002 A 
HETATM    5  C   UNL     1       8.089  32.649  63.760  1.00  0.00     0.001 A 
HETATM    6  C   UNL     1       6.945  33.326  64.177  1.00  0.00     0.019 A 
ENDROOT
BRANCH   2   7
HETATM    7  N   UNL     1       4.622  32.406  61.359  1.00  0.00    -0.326 N 
HETATM    8  C   UNL     1       4.218  33.329  60.417  1.00  0.00     0.228 C 
HETATM    9  O   UNL     1       4.489  34.526  60.453  1.00  0.00    -0.273 OA
HETATM   10  H   UNL     1       4.011  31.610  61.504  1.00  0.00     0.169 HD
BRANCH   8  11
HETATM   11  C   UNL     1       3.358  32.752  59.284  1.00  0.00     0.105 C 
HETATM   12  C   UNL     1       3.725  31.327  58.909  1.00  0.00     0.147 C 
HETATM   13  N   UNL     1       4.780  31.502  57.931  1.00  0.00    -0.315 N 
HETATM   14  C   UNL     1       4.699  32.763  57.321  1.00  0.00     0.225 C 
HETATM   15  O   UNL     1       5.372  33.198  56.401  1.00  0.00    -0.273 OA
HETATM   16  C   UNL     1       3.577  33.525  57.987  1.00  0.00     0.119 C 
BRANCH  13  17
HETATM   17  C   UNL     1       5.840  30.571  57.769  1.00  0.00     0.071 A 
HETATM   18  C   UNL     1       5.645  29.297  57.210  1.00  0.00     0.095 A 
HETATM   19  C   UNL     1       6.672  28.347  57.213  1.00  0.00     0.039 A 
HETATM   20  C   UNL     1       7.919  28.665  57.748  1.00  0.00     0.009 A 
HETATM   21  C   UNL     1       8.156  29.941  58.263  1.00  0.00    -0.060 A 
HETATM   22  C   UNL     1       9.473  30.274  58.903  1.00  0.00     0.048 C 
HETATM   23  C   UNL     1       7.117  30.885  58.263  1.00  0.00     0.039 A 
BRANCH  18  24
HETATM   24  O   UNL     1       4.433  28.965  56.653  1.00  0.00    -0.354 OA
HETATM   25  C   UNL     1       4.602  28.543  55.296  1.00  0.00     0.210 C 
ENDBRANCH  18  24
ENDBRANCH  13  17
ENDBRANCH   8  11
ENDBRANCH   2   7
BRANCH   1  26
HETATM   26  C   UNL     1       4.651  34.142  63.874  1.00  0.00     0.256 C 
HETATM   27  N   UNL     1       4.809  35.511  63.700  1.00  0.00    -0.345 N 
HETATM   28  C   UNL     1       6.051  36.209  63.353  1.00  0.00     0.146 C 
HETATM   29  C   UNL     1       3.702  36.413  64.004  1.00  0.00     0.146 C 
HETATM   30  C   UNL     1       5.823  37.114  62.137  1.00  0.00     0.148 C 
HETATM   31  N   UNL     1       4.651  37.982  62.287  1.00  0.00    -0.325 N 
HETATM   32  C   UNL     1       4.580  39.099  61.468  1.00  0.00     0.362 C 
HETATM   33  C   UNL     1       3.430  37.359  62.826  1.00  0.00     0.148 C 
HETATM   34  O   UNL     1       5.500  39.475  60.751  1.00  0.00    -0.238 OA
HETATM   35  O   UNL     1       3.612  33.626  64.284  1.00  0.00    -0.267 OA
BRANCH  32  36
HETATM   36  O   UNL     1       3.377  39.730  61.551  1.00  0.00    -0.304 OA
BRANCH  36  37
HETATM   37  C   UNL     1       2.962  40.450  60.382  1.00  0.00     0.176 C 
HETATM   38  C   UNL     1       1.654  39.898  59.845  1.00  0.00     0.034 C 
ENDBRANCH  36  37
ENDBRANCH  32  36
ENDBRANCH   1  26
TORSDOF 7
ENDMDL
MODEL 9
REMARK VINA RESULT:      -8.9      5.127      7.337
REMARK  7 active torsions:
REMARK  status: ('A' for Active; 'I' for Inactive)
REMARK    1  A    between atoms: C_2  and  O_3 
REMARK    2  A    between atoms: O_3  and  C_4 
REMARK       I    between atoms: C_4  and  N_5 
REMARK       I    between atoms: N_8  and  C_9 
REMARK    3  A    between atoms: C_9  and  C_10 
REMARK    4  A    between atoms: C_11  and  N_12 
REMARK       I    between atoms: N_12  and  C_13 
REMARK    5  A    between atoms: C_13  and  C_14 
REMARK    6  A    between atoms: N_16  and  C_17 
REMARK    7  A    between atoms: C_18  and  O_19 
ROOT
HETATM    1  C   UNL     1       5.338  29.046  50.271  1.00  0.00     0.059 A 
HETATM    2  C   UNL     1       5.449  28.077  51.281  1.00  0.00     0.050 A 
HETATM    3  C   UNL     1       5.113  26.745  50.975  1.00  0.00     0.030 A 
HETATM    4  C   UNL     1       4.703  26.377  49.692  1.00  0.00     0.002 A 
HETATM    5  C   UNL     1       4.585  27.341  48.699  1.00  0.00     0.001 A 
HETATM    6  C   UNL     1       4.879  28.671  48.992  1.00  0.00     0.019 A 
ENDROOT
BRANCH   2   7
HETATM    7  N   UNL     1       5.784  28.314  52.630  1.00  0.00    -0.326 N 
HETATM    8  C   UNL     1       5.262  27.706  53.753  1.00  0.00     0.228 C 
HETATM    9  O   UNL     1       4.170  27.145  53.798  1.00  0.00    -0.273 OA
HETATM   10  H   UNL     1       6.408  29.097  52.789  1.00  0.00     0.169 HD
BRANCH   8  11
HETATM   11  C   UNL     1       6.154  27.789  54.999  1.00  0.00     0.105 C 
HETATM   12  C   UNL     1       7.331  26.829  54.968  1.00  0.00     0.147 C 
HETATM   13  N   UNL     1       6.781  25.610  55.524  1.00  0.00    -0.315 N 
HETATM   14  C   UNL     1       5.666  25.881  56.331  1.00  0.00     0.225 C 
HETATM   15  O   UNL     1       5.024  25.099  57.014  1.00  0.00    -0.273 OA
HETATM   16  C   UNL     1       5.388  27.364  56.247  1.00  0.00     0.119 C 
BRANCH  13  17
HETATM   17  C   UNL     1       7.228  24.319  55.136  1.00  0.00     0.071 A 
HETATM   18  C   UNL     1       7.127  23.852  53.814  1.00  0.00     0.095 A 
HETATM   19  C   UNL     1       7.426  22.522  53.498  1.00  0.00     0.039 A 
HETATM   20  C   UNL     1       7.860  21.647  54.492  1.00  0.00     0.009 A 
HETATM   21  C   UNL     1       8.019  22.098  55.803  1.00  0.00    -0.060 A 
HETATM   22  C   UNL     1       8.420  21.148  56.895  1.00  0.00     0.048 C 
HETATM   23  C   UNL     1       7.709  23.432  56.113  1.00  0.00     0.039 A 
BRANCH  18  24
HETATM   24  O   UNL     1       6.726  24.701  52.810  1.00  0.00    -0.354 OA
HETATM   25  C   UNL     1       7.789  24.913  51.877  1.00  0.00     0.210 C 
ENDBRANCH  18  24
ENDBRANCH  13  17
ENDBRANCH   8  11
ENDBRANCH   2   7
BRANCH   1  26
HETATM   26  C   UNL     1       5.438  30.503  50.525  1.00  0.00     0.256 C 
HETATM   27  N   UNL     1       4.462  31.118  51.299  1.00  0.00    -0.345 N 
HETATM   28  C   UNL     1       3.182  30.535  51.712  1.00  0.00     0.146 C 
HETATM   29  C   UNL     1       4.603  32.525  51.661  1.00  0.00     0.146 C 
HETATM   30  C   UNL     1       3.014  30.658  53.231  1.00  0.00     0.148 C 
HETATM   31  N   UNL     1       3.257  32.019  53.720  1.00  0.00    -0.325 N 
HETATM   32  C   UNL     1       2.752  32.344  54.970  1.00  0.00     0.362 C 
HETATM   33  C   UNL     1       4.432  32.719  53.173  1.00  0.00     0.148 C 
HETATM   34  O   UNL     1       1.995  31.619  55.605  1.00  0.00    -0.238 OA
HETATM   35  O   UNL     1       6.440  31.085  50.109  1.00  0.00    -0.267 OA
BRANCH  32  36
HETATM   36  O   UNL     1       3.188  33.555  55.410  1.00  0.00    -0.304 OA
BRANCH  36  37
HETATM   37  C   UNL     1       4.020  33.538  56.578  1.00  0.00     0.176 C 
HETATM   38  C   UNL     1       3.510  34.521  57.617  1.00  0.00     0.034 C 
ENDBRANCH  36  37
ENDBRANCH  32  36
ENDBRANCH   1  26
TORSDOF 7
ENDMDL
MODEL 10
REMARK VINA RESULT:      -8.8      2.355     11.387
REMARK  7 active torsions:
REMARK  status: ('A' for Active; 'I' for Inactive)
REMARK    1  A    between atoms: C_2  and  O_3 
REMARK    2  A    between atoms: O_3  and  C_4 
REMARK       I    between atoms: C_4  and  N_5 
REMARK       I    between atoms: N_8  and  C_9 
REMARK    3  A    between atoms: C_9  and  C_10 
REMARK    4  A    between atoms: C_11  and  N_12 
REMARK       I    between atoms: N_12  and  C_13 
REMARK    5  A    between atoms: C_13  and  C_14 
REMARK    6  A    between atoms: N_16  and  C_17 
REMARK    7  A    between atoms: C_18  and  O_19 
ROOT
HETATM    1  C   UNL     1       5.331  31.149  57.324  1.00  0.00     0.059 A 
HETATM    2  C   UNL     1       4.515  31.813  58.254  1.00  0.00     0.050 A 
HETATM    3  C   UNL     1       3.712  32.877  57.804  1.00  0.00     0.030 A 
HETATM    4  C   UNL     1       3.697  33.257  56.460  1.00  0.00     0.002 A 
HETATM    5  C   UNL     1       4.513  32.604  55.546  1.00  0.00     0.001 A 
HETATM    6  C   UNL     1       5.342  31.570  55.979  1.00  0.00     0.019 A 
ENDROOT
BRANCH   2   7
HETATM    7  N   UNL     1       4.477  31.581  59.644  1.00  0.00    -0.326 N 
HETATM    8  C   UNL     1       4.911  32.415  60.654  1.00  0.00     0.228 C 
HETATM    9  O   UNL     1       5.736  33.313  60.511  1.00  0.00    -0.273 OA
HETATM   10  H   UNL     1       4.191  30.648  59.919  1.00  0.00     0.169 HD
BRANCH   8  11
HETATM   11  C   UNL     1       4.289  32.131  62.028  1.00  0.00     0.105 C 
HETATM   12  C   UNL     1       3.798  33.379  62.741  1.00  0.00     0.147 C 
HETATM   13  N   UNL     1       4.976  33.847  63.443  1.00  0.00    -0.315 N 
HETATM   14  C   UNL     1       5.883  32.798  63.662  1.00  0.00     0.225 C 
HETATM   15  O   UNL     1       6.926  32.827  64.295  1.00  0.00    -0.273 OA
HETATM   16  C   UNL     1       5.328  31.564  62.990  1.00  0.00     0.119 C 
BRANCH  13  17
HETATM   17  C   UNL     1       5.223  35.222  63.699  1.00  0.00     0.071 A 
HETATM   18  C   UNL     1       4.829  35.848  64.894  1.00  0.00     0.095 A 
HETATM   19  C   UNL     1       4.942  37.234  65.047  1.00  0.00     0.039 A 
HETATM   20  C   UNL     1       5.477  38.012  64.022  1.00  0.00     0.009 A 
HETATM   21  C   UNL     1       5.924  37.409  62.845  1.00  0.00    -0.060 A 
HETATM   22  C   UNL     1       6.440  38.242  61.708  1.00  0.00     0.048 C 
HETATM   23  C   UNL     1       5.800  36.018  62.697  1.00  0.00     0.039 A 
BRANCH  18  24
HETATM   24  O   UNL     1       4.322  35.102  65.931  1.00  0.00    -0.354 OA
HETATM   25  C   UNL     1       5.347  34.803  66.883  1.00  0.00     0.210 C 
ENDBRANCH  18  24
ENDBRANCH  13  17
ENDBRANCH   8  11
ENDBRANCH   2   7
BRANCH   1  26
HETATM   26  C   UNL     1       6.382  30.176  57.709  1.00  0.00     0.256 C 
HETATM   27  N   UNL     1       6.217  28.840  57.368  1.00  0.00    -0.345 N 
HETATM   28  C   UNL     1       4.990  28.213  56.868  1.00  0.00     0.146 C 
HETATM   29  C   UNL     1       7.291  27.887  57.631  1.00  0.00     0.146 C 
HETATM   30  C   UNL     1       5.280  27.449  55.571  1.00  0.00     0.148 C 
HETATM   31  N   UNL     1       6.429  26.545  55.690  1.00  0.00    -0.325 N 
HETATM   32  C   UNL     1       6.536  25.528  54.753  1.00  0.00     0.362 C 
HETATM   33  C   UNL     1       7.622  27.077  56.370  1.00  0.00     0.148 C 
HETATM   34  O   UNL     1       5.657  25.256  53.944  1.00  0.00    -0.238 OA
HETATM   35  O   UNL     1       7.401  30.621  58.237  1.00  0.00    -0.267 OA
BRANCH  32  36
HETATM   36  O   UNL     1       7.722  24.868  54.834  1.00  0.00    -0.304 OA
BRANCH  36  37
HETATM   37  C   UNL     1       7.648  23.436  54.820  1.00  0.00     0.176 C 
HETATM   38  C   UNL     1       8.270  22.877  53.553  1.00  0.00     0.034 C 
ENDBRANCH  36  37
ENDBRANCH  32  36
ENDBRANCH   1  26
TORSDOF 7
ENDMDL
