MODEL 1
REMARK VINA RESULT:      -9.4      0.000      0.000
REMARK  5 active torsions:
REMARK  status: ('A' for Active; 'I' for Inactive)
REMARK    1  A    between atoms: C_6  and  C_7 
REMARK    2  A    between atoms: C_7  and  C_8 
REMARK       I    between atoms: C_8  and  N_9 
REMARK    3  A    between atoms: N_9  and  C_10 
REMARK    4  A    between atoms: C_11  and  O_12 
REMARK    5  A    between atoms: O_12  and  C_13 
ROOT
HETATM    1  C   UNL     1       6.573  26.262  54.438  1.00  0.00     0.069 A 
HETATM    2  C   UNL     1       7.007  25.077  53.828  1.00  0.00     0.102 A 
HETATM    3  C   UNL     1       6.198  24.434  52.872  1.00  0.00     0.039 A 
HETATM    4  C   UNL     1       4.975  24.979  52.489  1.00  0.00     0.003 A 
HETATM    5  C   UNL     1       4.538  26.158  53.076  1.00  0.00     0.002 A 
HETATM    6  C   UNL     1       5.327  26.788  54.043  1.00  0.00     0.032 A 
ENDROOT
BRANCH   1   7
HETATM    7  N   UNL     1       7.263  27.054  55.385  1.00  0.00    -0.324 N 
HETATM    8  C   UNL     1       7.692  26.773  56.672  1.00  0.00     0.228 C 
HETATM    9  O   UNL     1       7.349  25.838  57.386  1.00  0.00    -0.273 OA
HETATM   10  H   UNL     1       7.572  27.961  55.039  1.00  0.00     0.169 HD
BRANCH   8  11
HETATM   11  C   UNL     1       8.656  27.821  57.223  1.00  0.00     0.164 C 
BRANCH  11  12
HETATM   12  C   UNL     1       7.927  28.945  57.883  1.00  0.00     0.065 A 
HETATM   13  N   UNL     1       6.643  29.183  57.574  1.00  0.00    -0.179 NA
HETATM   14  N   UNL     1       6.334  30.275  58.295  1.00  0.00    -0.282 N 
HETATM   15  C   UNL     1       7.400  30.803  58.968  1.00  0.00     0.026 A 
HETATM   16  H   UNL     1       5.382  30.626  58.254  1.00  0.00     0.189 HD
HETATM   17  C   UNL     1       7.315  32.067  59.732  1.00  0.00     0.070 C 
HETATM   18  C   UNL     1       8.446  29.936  58.745  1.00  0.00     0.055 A 
ENDBRANCH  11  12
ENDBRANCH   8  11
ENDBRANCH   1   7
BRANCH   2  19
HETATM   19  O   UNL     1       8.173  24.452  54.189  1.00  0.00    -0.308 OA
BRANCH  19  20
HETATM   20  C   UNL     1       8.146  23.080  54.323  1.00  0.00     0.082 A 
HETATM   21  C   UNL     1       8.299  22.194  53.254  1.00  0.00     0.079 A 
HETATM   22  C   UNL     1       8.308  20.824  53.501  1.00  0.00     0.122 A 
HETATM   23  F   UNL     1       8.453  19.972  52.479  1.00  0.00    -0.206 F 
HETATM   24  C   UNL     1       8.177  20.324  54.792  1.00  0.00     0.084 A 
HETATM   25  C   UNL     1       8.047  21.218  55.845  1.00  0.00     0.122 A 
HETATM   26  F   UNL     1       7.931  20.750  57.094  1.00  0.00    -0.206 F 
HETATM   27  C   UNL     1       8.037  22.591  55.625  1.00  0.00     0.079 A 
ENDBRANCH  19  20
ENDBRANCH   2  19
TORSDOF 5
ENDMDL
MODEL 2
REMARK VINA RESULT:      -9.1      2.603      4.580
REMARK  5 active torsions:
REMARK  status: ('A' for Active; 'I' for Inactive)
REMARK    1  A    between atoms: C_6  and  C_7 
REMARK    2  A    between atoms: C_7  and  C_8 
REMARK       I    between atoms: C_8  and  N_9 
REMARK    3  A    between atoms: N_9  and  C_10 
REMARK    4  A    between atoms: C_11  and  O_12 
REMARK    5  A    between atoms: O_12  and  C_13 
ROOT
HETATM    1  C   UNL     1       8.481  22.809  55.286  1.00  0.00     0.069 A 
HETATM    2  C   UNL     1       8.429  22.690  53.890  1.00  0.00     0.102 A 
HETATM    3  C   UNL     1       8.390  21.417  53.288  1.00  0.00     0.039 A 
HETATM    4  C   UNL     1       8.366  20.261  54.065  1.00  0.00     0.003 A 
HETATM    5  C   UNL     1       8.404  20.365  55.448  1.00  0.00     0.002 A 
HETATM    6  C   UNL     1       8.466  21.625  56.049  1.00  0.00     0.032 A 
ENDROOT
BRANCH   1   7
HETATM    7  N   UNL     1       8.490  23.996  56.055  1.00  0.00    -0.324 N 
HETATM    8  C   UNL     1       7.471  24.671  56.706  1.00  0.00     0.228 C 
HETATM    9  O   UNL     1       6.264  24.525  56.557  1.00  0.00    -0.273 OA
HETATM   10  H   UNL     1       9.416  24.382  56.233  1.00  0.00     0.169 HD
BRANCH   8  11
HETATM   11  C   UNL     1       7.982  25.748  57.661  1.00  0.00     0.164 C 
BRANCH  11  12
HETATM   12  C   UNL     1       7.717  27.120  57.136  1.00  0.00     0.065 A 
HETATM   13  N   UNL     1       8.742  27.916  56.795  1.00  0.00    -0.179 NA
HETATM   14  N   UNL     1       8.151  29.066  56.427  1.00  0.00    -0.282 N 
HETATM   15  C   UNL     1       6.798  29.069  56.621  1.00  0.00     0.026 A 
HETATM   16  H   UNL     1       8.737  29.821  56.084  1.00  0.00     0.189 HD
HETATM   17  C   UNL     1       5.961  30.267  56.391  1.00  0.00     0.070 C 
HETATM   18  C   UNL     1       6.481  27.799  57.050  1.00  0.00     0.055 A 
ENDBRANCH  11  12
ENDBRANCH   8  11
ENDBRANCH   1   7
BRANCH   2  19
HETATM   19  O   UNL     1       8.503  23.778  53.059  1.00  0.00    -0.308 OA
BRANCH  19  20
HETATM   20  C   UNL     1       7.513  24.731  53.167  1.00  0.00     0.082 A 
HETATM   21  C   UNL     1       7.764  26.102  53.266  1.00  0.00     0.079 A 
HETATM   22  C   UNL     1       6.693  26.989  53.319  1.00  0.00     0.122 A 
HETATM   23  F   UNL     1       6.930  28.303  53.415  1.00  0.00    -0.206 F 
HETATM   24  C   UNL     1       5.380  26.536  53.268  1.00  0.00     0.084 A 
HETATM   25  C   UNL     1       5.147  25.173  53.150  1.00  0.00     0.122 A 
HETATM   26  F   UNL     1       3.887  24.724  53.088  1.00  0.00    -0.206 F 
HETATM   27  C   UNL     1       6.200  24.266  53.092  1.00  0.00     0.079 A 
ENDBRANCH  19  20
ENDBRANCH   2  19
TORSDOF 5
ENDMDL
MODEL 3
REMARK VINA RESULT:      -8.9      3.751      8.021
REMARK  5 active torsions:
REMARK  status: ('A' for Active; 'I' for Inactive)
REMARK    1  A    between atoms: C_6  and  C_7 
REMARK    2  A    between atoms: C_7  and  C_8 
REMARK       I    between atoms: C_8  and  N_9 
REMARK    3  A    between atoms: N_9  and  C_10 
REMARK    4  A    between atoms: C_11  and  O_12 
REMARK    5  A    between atoms: O_12  and  C_13 
ROOT
HETATM    1  C   UNL     1       6.924  27.514  55.856  1.00  0.00     0.069 A 
HETATM    2  C   UNL     1       6.579  28.550  56.736  1.00  0.00     0.102 A 
HETATM    3  C   UNL     1       5.705  29.573  56.319  1.00  0.00     0.039 A 
HETATM    4  C   UNL     1       5.141  29.555  55.046  1.00  0.00     0.003 A 
HETATM    5  C   UNL     1       5.465  28.528  54.169  1.00  0.00     0.002 A 
HETATM    6  C   UNL     1       6.350  27.524  54.570  1.00  0.00     0.032 A 
ENDROOT
BRANCH   1   7
HETATM    7  N   UNL     1       7.753  26.398  56.114  1.00  0.00    -0.324 N 
HETATM    8  C   UNL     1       7.459  25.134  56.597  1.00  0.00     0.228 C 
HETATM    9  O   UNL     1       6.430  24.767  57.153  1.00  0.00    -0.273 OA
HETATM   10  H   UNL     1       8.722  26.509  55.820  1.00  0.00     0.169 HD
BRANCH   8  11
HETATM   11  C   UNL     1       8.615  24.149  56.438  1.00  0.00     0.164 C 
BRANCH  11  12
HETATM   12  C   UNL     1       8.512  23.381  55.163  1.00  0.00     0.065 A 
HETATM   13  N   UNL     1       8.092  23.993  54.045  1.00  0.00    -0.179 NA
HETATM   14  N   UNL     1       8.067  23.011  53.127  1.00  0.00    -0.282 N 
HETATM   15  C   UNL     1       8.353  21.777  53.642  1.00  0.00     0.026 A 
HETATM   16  H   UNL     1       7.813  23.248  52.173  1.00  0.00     0.189 HD
HETATM   17  C   UNL     1       8.274  20.538  52.838  1.00  0.00     0.070 C 
HETATM   18  C   UNL     1       8.681  21.992  54.962  1.00  0.00     0.055 A 
ENDBRANCH  11  12
ENDBRANCH   8  11
ENDBRANCH   1   7
BRANCH   2  19
HETATM   19  O   UNL     1       7.133  28.665  57.985  1.00  0.00    -0.308 OA
BRANCH  19  20
HETATM   20  C   UNL     1       8.079  29.649  58.175  1.00  0.00     0.082 A 
HETATM   21  C   UNL     1       7.889  30.759  59.002  1.00  0.00     0.079 A 
HETATM   22  C   UNL     1       8.927  31.671  59.166  1.00  0.00     0.122 A 
HETATM   23  F   UNL     1       8.748  32.736  59.957  1.00  0.00    -0.206 F 
HETATM   24  C   UNL     1      10.151  31.493  58.531  1.00  0.00     0.084 A 
HETATM   25  C   UNL     1      10.330  30.375  57.729  1.00  0.00     0.122 A 
HETATM   26  F   UNL     1      11.508  30.185  57.120  1.00  0.00    -0.206 F 
HETATM   27  C   UNL     1       9.310  29.447  57.550  1.00  0.00     0.079 A 
ENDBRANCH  19  20
ENDBRANCH   2  19
TORSDOF 5
ENDMDL
MODEL 4
REMARK VINA RESULT:      -8.8      3.628      6.891
REMARK  5 active torsions:
REMARK  status: ('A' for Active; 'I' for Inactive)
REMARK    1  A    between atoms: C_6  and  C_7 
REMARK    2  A    between atoms: C_7  and  C_8 
REMARK       I    between atoms: C_8  and  N_9 
REMARK    3  A    between atoms: N_9  and  C_10 
REMARK    4  A    between atoms: C_11  and  O_12 
REMARK    5  A    between atoms: O_12  and  C_13 
ROOT
HETATM    1  C   UNL     1       6.497  24.548  53.973  1.00  0.00     0.069 A 
HETATM    2  C   UNL     1       6.803  24.154  55.283  1.00  0.00     0.102 A 
HETATM    3  C   UNL     1       7.703  23.096  55.515  1.00  0.00     0.039 A 
HETATM    4  C   UNL     1       8.331  22.448  54.453  1.00  0.00     0.003 A 
HETATM    5  C   UNL     1       8.047  22.836  53.151  1.00  0.00     0.002 A 
HETATM    6  C   UNL     1       7.137  23.870  52.916  1.00  0.00     0.032 A 
ENDROOT
BRANCH   1   7
HETATM    7  N   UNL     1       5.650  25.601  53.559  1.00  0.00    -0.324 N 
HETATM    8  C   UNL     1       5.914  26.932  53.284  1.00  0.00     0.228 C 
HETATM    9  O   UNL     1       6.918  27.571  53.579  1.00  0.00    -0.273 OA
HETATM   10  H   UNL     1       4.693  25.322  53.346  1.00  0.00     0.169 HD
BRANCH   8  11
HETATM   11  C   UNL     1       4.757  27.640  52.584  1.00  0.00     0.164 C 
BRANCH  11  12
HETATM   12  C   UNL     1       4.823  27.469  51.103  1.00  0.00     0.065 A 
HETATM   13  N   UNL     1       5.043  26.254  50.579  1.00  0.00    -0.179 NA
HETATM   14  N   UNL     1       5.095  26.476  49.254  1.00  0.00    -0.282 N 
HETATM   15  C   UNL     1       5.023  27.800  48.921  1.00  0.00     0.026 A 
HETATM   16  H   UNL     1       5.217  25.680  48.636  1.00  0.00     0.189 HD
HETATM   17  C   UNL     1       5.173  28.284  47.531  1.00  0.00     0.070 C 
HETATM   18  C   UNL     1       4.809  28.470  50.105  1.00  0.00     0.055 A 
ENDBRANCH  11  12
ENDBRANCH   8  11
ENDBRANCH   1   7
BRANCH   2  19
HETATM   19  O   UNL     1       6.187  24.707  56.377  1.00  0.00    -0.308 OA
BRANCH  19  20
HETATM   20  C   UNL     1       6.566  25.980  56.746  1.00  0.00     0.082 A 
HETATM   21  C   UNL     1       7.895  26.398  56.836  1.00  0.00     0.079 A 
HETATM   22  C   UNL     1       8.172  27.721  57.168  1.00  0.00     0.122 A 
HETATM   23  F   UNL     1       9.446  28.125  57.256  1.00  0.00    -0.206 F 
HETATM   24  C   UNL     1       7.151  28.634  57.403  1.00  0.00     0.084 A 
HETATM   25  C   UNL     1       5.835  28.208  57.291  1.00  0.00     0.122 A 
HETATM   26  F   UNL     1       4.841  29.080  57.503  1.00  0.00    -0.206 F 
HETATM   27  C   UNL     1       5.532  26.892  56.957  1.00  0.00     0.079 A 
ENDBRANCH  19  20
ENDBRANCH   2  19
TORSDOF 5
ENDMDL
MODEL 5
REMARK VINA RESULT:      -8.7      3.150      5.886
REMARK  5 active torsions:
REMARK  status: ('A' for Active; 'I' for Inactive)
REMARK    1  A    between atoms: C_6  and  C_7 
REMARK    2  A    between atoms: C_7  and  C_8 
REMARK       I    between atoms: C_8  and  N_9 
REMARK    3  A    between atoms: N_9  and  C_10 
REMARK    4  A    between atoms: C_11  and  O_12 
REMARK    5  A    between atoms: O_12  and  C_13 
ROOT
HETATM    1  C   UNL     1       6.484  25.837  54.399  1.00  0.00     0.069 A 
HETATM    2  C   UNL     1       7.313  25.027  55.187  1.00  0.00     0.102 A 
HETATM    3  C   UNL     1       7.094  24.925  56.574  1.00  0.00     0.039 A 
HETATM    4  C   UNL     1       6.033  25.593  57.180  1.00  0.00     0.003 A 
HETATM    5  C   UNL     1       5.197  26.389  56.410  1.00  0.00     0.002 A 
HETATM    6  C   UNL     1       5.425  26.512  55.037  1.00  0.00     0.032 A 
ENDROOT
BRANCH   1   7
HETATM    7  N   UNL     1       6.536  26.030  52.999  1.00  0.00    -0.324 N 
HETATM    8  C   UNL     1       5.693  25.606  51.986  1.00  0.00     0.228 C 
HETATM    9  O   UNL     1       4.824  24.743  52.049  1.00  0.00    -0.273 OA
HETATM   10  H   UNL     1       7.275  26.656  52.681  1.00  0.00     0.169 HD
BRANCH   8  11
HETATM   11  C   UNL     1       5.970  26.291  50.650  1.00  0.00     0.164 C 
BRANCH  11  12
HETATM   12  C   UNL     1       4.719  26.830  50.039  1.00  0.00     0.065 A 
HETATM   13  N   UNL     1       4.068  27.844  50.630  1.00  0.00    -0.179 NA
HETATM   14  N   UNL     1       2.984  28.028  49.856  1.00  0.00    -0.282 N 
HETATM   15  C   UNL     1       2.864  27.102  48.857  1.00  0.00     0.026 A 
HETATM   16  H   UNL     1       2.348  28.784  50.089  1.00  0.00     0.189 HD
HETATM   17  C   UNL     1       1.692  27.045  47.957  1.00  0.00     0.070 C 
HETATM   18  C   UNL     1       4.001  26.329  48.930  1.00  0.00     0.055 A 
ENDBRANCH  11  12
ENDBRANCH   8  11
ENDBRANCH   1   7
BRANCH   2  19
HETATM   19  O   UNL     1       8.408  24.380  54.672  1.00  0.00    -0.308 OA
BRANCH  19  20
HETATM   20  C   UNL     1       8.355  23.005  54.588  1.00  0.00     0.082 A 
HETATM   21  C   UNL     1       7.780  22.315  53.518  1.00  0.00     0.079 A 
HETATM   22  C   UNL     1       7.823  20.924  53.503  1.00  0.00     0.122 A 
HETATM   23  F   UNL     1       7.272  20.260  52.480  1.00  0.00    -0.206 F 
HETATM   24  C   UNL     1       8.435  20.211  54.527  1.00  0.00     0.084 A 
HETATM   25  C   UNL     1       9.019  20.912  55.573  1.00  0.00     0.122 A 
HETATM   26  F   UNL     1       9.622  20.237  56.561  1.00  0.00    -0.206 F 
HETATM   27  C   UNL     1       8.992  22.302  55.610  1.00  0.00     0.079 A 
ENDBRANCH  19  20
ENDBRANCH   2  19
TORSDOF 5
ENDMDL
MODEL 6
REMARK VINA RESULT:      -8.6      2.064      2.973
REMARK  5 active torsions:
REMARK  status: ('A' for Active; 'I' for Inactive)
REMARK    1  A    between atoms: C_6  and  C_7 
REMARK    2  A    between atoms: C_7  and  C_8 
REMARK       I    between atoms: C_8  and  N_9 
REMARK    3  A    between atoms: N_9  and  C_10 
REMARK    4  A    between atoms: C_11  and  O_12 
REMARK    5  A    between atoms: O_12  and  C_13 
ROOT
HETATM    1  C   UNL     1       5.708  27.129  53.695  1.00  0.00     0.069 A 
HETATM    2  C   UNL     1       5.577  25.793  53.290  1.00  0.00     0.102 A 
HETATM    3  C   UNL     1       5.398  25.479  51.929  1.00  0.00     0.039 A 
HETATM    4  C   UNL     1       5.384  26.481  50.961  1.00  0.00     0.003 A 
HETATM    5  C   UNL     1       5.525  27.807  51.347  1.00  0.00     0.002 A 
HETATM    6  C   UNL     1       5.679  28.125  52.699  1.00  0.00     0.032 A 
ENDROOT
BRANCH   1   7
HETATM    7  N   UNL     1       5.926  27.621  55.003  1.00  0.00    -0.324 N 
HETATM    8  C   UNL     1       5.048  28.125  55.948  1.00  0.00     0.228 C 
HETATM    9  O   UNL     1       3.892  28.494  55.772  1.00  0.00    -0.273 OA
HETATM   10  H   UNL     1       6.879  27.515  55.346  1.00  0.00     0.169 HD
BRANCH   8  11
HETATM   11  C   UNL     1       5.675  28.265  57.333  1.00  0.00     0.164 C 
BRANCH  11  12
HETATM   12  C   UNL     1       7.125  28.611  57.247  1.00  0.00     0.065 A 
HETATM   13  N   UNL     1       8.036  27.640  57.085  1.00  0.00    -0.179 NA
HETATM   14  N   UNL     1       9.212  28.291  57.107  1.00  0.00    -0.282 N 
HETATM   15  C   UNL     1       9.090  29.624  57.383  1.00  0.00     0.026 A 
HETATM   16  H   UNL     1      10.062  27.756  56.960  1.00  0.00     0.189 HD
HETATM   17  C   UNL     1      10.259  30.512  57.567  1.00  0.00     0.070 C 
HETATM   18  C   UNL     1       7.737  29.869  57.445  1.00  0.00     0.055 A 
ENDBRANCH  11  12
ENDBRANCH   8  11
ENDBRANCH   1   7
BRANCH   2  19
HETATM   19  O   UNL     1       5.528  24.757  54.187  1.00  0.00    -0.308 OA
BRANCH  19  20
HETATM   20  C   UNL     1       6.722  24.177  54.558  1.00  0.00     0.082 A 
HETATM   21  C   UNL     1       7.370  24.441  55.767  1.00  0.00     0.079 A 
HETATM   22  C   UNL     1       8.548  23.765  56.071  1.00  0.00     0.122 A 
HETATM   23  F   UNL     1       9.171  24.016  57.229  1.00  0.00    -0.206 F 
HETATM   24  C   UNL     1       9.085  22.827  55.198  1.00  0.00     0.084 A 
HETATM   25  C   UNL     1       8.420  22.561  54.009  1.00  0.00     0.122 A 
HETATM   26  F   UNL     1       8.921  21.651  53.164  1.00  0.00    -0.206 F 
HETATM   27  C   UNL     1       7.240  23.221  53.684  1.00  0.00     0.079 A 
ENDBRANCH  19  20
ENDBRANCH   2  19
TORSDOF 5
ENDMDL
MODEL 7
REMARK VINA RESULT:      -8.5      4.384      9.115
REMARK  5 active torsions:
REMARK  status: ('A' for Active; 'I' for Inactive)
REMARK    1  A    between atoms: C_6  and  C_7 
REMARK    2  A    between atoms: C_7  and  C_8 
REMARK       I    between atoms: C_8  and  N_9 
REMARK    3  A    between atoms: N_9  and  C_10 
REMARK    4  A    between atoms: C_11  and  O_12 
REMARK    5  A    between atoms: O_12  and  C_13 
ROOT
HETATM    1  C   UNL     1       8.434  29.445  57.655  1.00  0.00     0.069 A 
HETATM    2  C   UNL     1       8.607  30.728  58.195  1.00  0.00     0.102 A 
HETATM    3  C   UNL     1       9.871  31.348  58.159  1.00  0.00     0.039 A 
HETATM    4  C   UNL     1      10.958  30.718  57.559  1.00  0.00     0.003 A 
HETATM    5  C   UNL     1      10.798  29.453  57.009  1.00  0.00     0.002 A 
HETATM    6  C   UNL     1       9.552  28.825  57.063  1.00  0.00     0.032 A 
ENDROOT
BRANCH   1   7
HETATM    7  N   UNL     1       7.240  28.692  57.574  1.00  0.00    -0.324 N 
HETATM    8  C   UNL     1       6.286  28.596  56.576  1.00  0.00     0.228 C 
HETATM    9  O   UNL     1       6.130  29.344  55.617  1.00  0.00    -0.273 OA
HETATM   10  H   UNL     1       7.091  28.044  58.347  1.00  0.00     0.169 HD
BRANCH   8  11
HETATM   11  C   UNL     1       5.313  27.438  56.786  1.00  0.00     0.164 C 
BRANCH  11  12
HETATM   12  C   UNL     1       6.003  26.117  56.696  1.00  0.00     0.065 A 
HETATM   13  N   UNL     1       6.867  25.746  57.652  1.00  0.00    -0.179 NA
HETATM   14  N   UNL     1       7.330  24.558  57.228  1.00  0.00    -0.282 N 
HETATM   15  C   UNL     1       6.875  24.207  55.988  1.00  0.00     0.026 A 
HETATM   16  H   UNL     1       7.982  24.054  57.822  1.00  0.00     0.189 HD
HETATM   17  C   UNL     1       7.341  22.996  55.279  1.00  0.00     0.070 C 
HETATM   18  C   UNL     1       5.979  25.190  55.630  1.00  0.00     0.055 A 
ENDBRANCH  11  12
ENDBRANCH   8  11
ENDBRANCH   1   7
BRANCH   2  19
HETATM   19  O   UNL     1       7.599  31.389  58.849  1.00  0.00    -0.308 OA
BRANCH  19  20
HETATM   20  C   UNL     1       7.713  31.534  60.215  1.00  0.00     0.082 A 
HETATM   21  C   UNL     1       8.353  30.609  61.042  1.00  0.00     0.079 A 
HETATM   22  C   UNL     1       8.461  30.873  62.404  1.00  0.00     0.122 A 
HETATM   23  F   UNL     1       9.072  29.987  63.200  1.00  0.00    -0.206 F 
HETATM   24  C   UNL     1       7.952  32.044  62.953  1.00  0.00     0.084 A 
HETATM   25  C   UNL     1       7.336  32.963  62.115  1.00  0.00     0.122 A 
HETATM   26  F   UNL     1       6.852  34.100  62.630  1.00  0.00    -0.206 F 
HETATM   27  C   UNL     1       7.219  32.724  60.750  1.00  0.00     0.079 A 
ENDBRANCH  19  20
ENDBRANCH   2  19
TORSDOF 5
ENDMDL
MODEL 8
REMARK VINA RESULT:      -8.4      2.590      5.698
REMARK  5 active torsions:
REMARK  status: ('A' for Active; 'I' for Inactive)
REMARK    1  A    between atoms: C_6  and  C_7 
REMARK    2  A    between atoms: C_7  and  C_8 
REMARK       I    between atoms: C_8  and  N_9 
REMARK    3  A    between atoms: N_9  and  C_10 
REMARK    4  A    between atoms: C_11  and  O_12 
REMARK    5  A    between atoms: O_12  and  C_13 
ROOT
HETATM    1  C   UNL     1       7.265  26.643  54.898  1.00  0.00     0.069 A 
HETATM    2  C   UNL     1       7.436  25.260  55.054  1.00  0.00     0.102 A 
HETATM    3  C   UNL     1       8.011  24.744  56.231  1.00  0.00     0.039 A 
HETATM    4  C   UNL     1       8.385  25.590  57.273  1.00  0.00     0.003 A 
HETATM    5  C   UNL     1       8.211  26.960  57.137  1.00  0.00     0.002 A 
HETATM    6  C   UNL     1       7.662  27.478  55.961  1.00  0.00     0.032 A 
ENDROOT
BRANCH   1   7
HETATM    7  N   UNL     1       6.681  27.327  53.808  1.00  0.00    -0.324 N 
HETATM    8  C   UNL     1       5.458  27.964  53.678  1.00  0.00     0.228 C 
HETATM    9  O   UNL     1       4.483  27.866  54.415  1.00  0.00    -0.273 OA
HETATM   10  H   UNL     1       7.292  27.446  53.001  1.00  0.00     0.169 HD
BRANCH   8  11
HETATM   11  C   UNL     1       5.362  28.825  52.421  1.00  0.00     0.164 C 
BRANCH  11  12
HETATM   12  C   UNL     1       5.168  27.991  51.198  1.00  0.00     0.065 A 
HETATM   13  N   UNL     1       5.526  26.698  51.205  1.00  0.00    -0.179 NA
HETATM   14  N   UNL     1       5.270  26.283  49.953  1.00  0.00    -0.282 N 
HETATM   15  C   UNL     1       4.863  27.287  49.119  1.00  0.00     0.026 A 
HETATM   16  H   UNL     1       5.427  25.306  49.726  1.00  0.00     0.189 HD
HETATM   17  C   UNL     1       4.635  27.081  47.672  1.00  0.00     0.070 C 
HETATM   18  C   UNL     1       4.754  28.408  49.912  1.00  0.00     0.055 A 
ENDBRANCH  11  12
ENDBRANCH   8  11
ENDBRANCH   1   7
BRANCH   2  19
HETATM   19  O   UNL     1       7.141  24.368  54.054  1.00  0.00    -0.308 OA
BRANCH  19  20
HETATM   20  C   UNL     1       7.495  23.051  54.250  1.00  0.00     0.082 A 
HETATM   21  C   UNL     1       7.444  22.410  55.490  1.00  0.00     0.079 A 
HETATM   22  C   UNL     1       7.774  21.061  55.574  1.00  0.00     0.122 A 
HETATM   23  F   UNL     1       7.727  20.444  56.761  1.00  0.00    -0.206 F 
HETATM   24  C   UNL     1       8.143  20.338  54.445  1.00  0.00     0.084 A 
HETATM   25  C   UNL     1       8.170  20.984  53.218  1.00  0.00     0.122 A 
HETATM   26  F   UNL     1       8.513  20.296  52.120  1.00  0.00    -0.206 F 
HETATM   27  C   UNL     1       7.842  22.331  53.107  1.00  0.00     0.079 A 
ENDBRANCH  19  20
ENDBRANCH   2  19
TORSDOF 5
ENDMDL
MODEL 9
REMARK VINA RESULT:      -8.3      2.929      5.282
REMARK  5 active torsions:
REMARK  status: ('A' for Active; 'I' for Inactive)
REMARK    1  A    between atoms: C_6  and  C_7 
REMARK    2  A    between atoms: C_7  and  C_8 
REMARK       I    between atoms: C_8  and  N_9 
REMARK    3  A    between atoms: N_9  and  C_10 
REMARK    4  A    between atoms: C_11  and  O_12 
REMARK    5  A    between atoms: O_12  and  C_13 
ROOT
HETATM    1  C   UNL     1       6.204  26.258  54.194  1.00  0.00     0.069 A 
HETATM    2  C   UNL     1       7.130  25.471  54.893  1.00  0.00     0.102 A 
HETATM    3  C   UNL     1       7.174  25.508  56.300  1.00  0.00     0.039 A 
HETATM    4  C   UNL     1       6.278  26.294  57.021  1.00  0.00     0.003 A 
HETATM    5  C   UNL     1       5.347  27.068  56.342  1.00  0.00     0.002 A 
HETATM    6  C   UNL     1       5.316  27.053  54.945  1.00  0.00     0.032 A 
ENDROOT
BRANCH   1   7
HETATM    7  N   UNL     1       5.998  26.320  52.796  1.00  0.00    -0.324 N 
HETATM    8  C   UNL     1       5.198  25.566  51.956  1.00  0.00     0.228 C 
HETATM    9  O   UNL     1       4.659  24.492  52.201  1.00  0.00    -0.273 OA
HETATM   10  H   UNL     1       6.454  27.105  52.332  1.00  0.00     0.169 HD
BRANCH   8  11
HETATM   11  C   UNL     1       5.059  26.170  50.560  1.00  0.00     0.164 C 
BRANCH  11  12
HETATM   12  C   UNL     1       5.055  27.662  50.604  1.00  0.00     0.065 A 
HETATM   13  N   UNL     1       4.294  28.303  51.505  1.00  0.00    -0.179 NA
HETATM   14  N   UNL     1       4.488  29.603  51.227  1.00  0.00    -0.282 N 
HETATM   15  C   UNL     1       5.259  29.814  50.118  1.00  0.00     0.026 A 
HETATM   16  H   UNL     1       4.035  30.295  51.816  1.00  0.00     0.189 HD
HETATM   17  C   UNL     1       5.509  31.162  49.563  1.00  0.00     0.070 C 
HETATM   18  C   UNL     1       5.673  28.565  49.711  1.00  0.00     0.055 A 
ENDBRANCH  11  12
ENDBRANCH   8  11
ENDBRANCH   1   7
BRANCH   2  19
HETATM   19  O   UNL     1       8.078  24.713  54.253  1.00  0.00    -0.308 OA
BRANCH  19  20
HETATM   20  C   UNL     1       8.080  23.356  54.496  1.00  0.00     0.082 A 
HETATM   21  C   UNL     1       8.107  22.798  55.776  1.00  0.00     0.079 A 
HETATM   22  C   UNL     1       8.054  21.415  55.917  1.00  0.00     0.122 A 
HETATM   23  F   UNL     1       8.081  20.876  57.143  1.00  0.00    -0.206 F 
HETATM   24  C   UNL     1       7.966  20.580  54.809  1.00  0.00     0.084 A 
HETATM   25  C   UNL     1       7.921  21.151  53.545  1.00  0.00     0.122 A 
HETATM   26  F   UNL     1       7.824  20.359  52.469  1.00  0.00    -0.206 F 
HETATM   27  C   UNL     1       7.969  22.531  53.377  1.00  0.00     0.079 A 
ENDBRANCH  19  20
ENDBRANCH   2  19
TORSDOF 5
ENDMDL
MODEL 10
REMARK VINA RESULT:      -8.3      5.296      8.367
REMARK  5 active torsions:
REMARK  status: ('A' for Active; 'I' for Inactive)
REMARK    1  A    between atoms: C_6  and  C_7 
REMARK    2  A    between atoms: C_7  and  C_8 
REMARK       I    between atoms: C_8  and  N_9 
REMARK    3  A    between atoms: N_9  and  C_10 
REMARK    4  A    between atoms: C_11  and  O_12 
REMARK    5  A    between atoms: O_12  and  C_13 
ROOT
HETATM    1  C   UNL     1       6.662  32.100  60.685  1.00  0.00     0.069 A 
HETATM    2  C   UNL     1       7.983  32.020  60.220  1.00  0.00     0.102 A 
HETATM    3  C   UNL     1       9.059  32.082  61.126  1.00  0.00     0.039 A 
HETATM    4  C   UNL     1       8.833  32.185  62.497  1.00  0.00     0.003 A 
HETATM    5  C   UNL     1       7.530  32.252  62.972  1.00  0.00     0.002 A 
HETATM    6  C   UNL     1       6.460  32.215  62.075  1.00  0.00     0.032 A 
ENDROOT
BRANCH   1   7
HETATM    7  N   UNL     1       5.470  32.022  59.929  1.00  0.00    -0.324 N 
HETATM    8  C   UNL     1       4.666  33.010  59.387  1.00  0.00     0.228 C 
HETATM    9  O   UNL     1       4.671  34.207  59.651  1.00  0.00    -0.273 OA
HETATM   10  H   UNL     1       5.192  31.078  59.666  1.00  0.00     0.169 HD
BRANCH   8  11
HETATM   11  C   UNL     1       3.638  32.468  58.396  1.00  0.00     0.164 C 
BRANCH  11  12
HETATM   12  C   UNL     1       4.265  31.547  57.402  1.00  0.00     0.065 A 
HETATM   13  N   UNL     1       5.244  31.994  56.600  1.00  0.00    -0.179 NA
HETATM   14  N   UNL     1       5.526  30.941  55.814  1.00  0.00    -0.282 N 
HETATM   15  C   UNL     1       4.693  29.875  56.013  1.00  0.00     0.026 A 
HETATM   16  H   UNL     1       6.279  31.030  55.139  1.00  0.00     0.189 HD
HETATM   17  C   UNL     1       4.749  28.652  55.183  1.00  0.00     0.070 C 
HETATM   18  C   UNL     1       3.882  30.229  57.068  1.00  0.00     0.055 A 
ENDBRANCH  11  12
ENDBRANCH   8  11
ENDBRANCH   1   7
BRANCH   2  19
HETATM   19  O   UNL     1       8.286  31.970  58.884  1.00  0.00    -0.308 OA
BRANCH  19  20
HETATM   20  C   UNL     1       8.539  30.732  58.333  1.00  0.00     0.082 A 
HETATM   21  C   UNL     1       7.596  29.704  58.270  1.00  0.00     0.079 A 
HETATM   22  C   UNL     1       7.934  28.506  57.647  1.00  0.00     0.122 A 
HETATM   23  F   UNL     1       7.032  27.518  57.587  1.00  0.00    -0.206 F 
HETATM   24  C   UNL     1       9.188  28.319  57.079  1.00  0.00     0.084 A 
HETATM   25  C   UNL     1      10.107  29.357  57.132  1.00  0.00     0.122 A 
HETATM   26  F   UNL     1      11.316  29.194  56.577  1.00  0.00    -0.206 F 
HETATM   27  C   UNL     1       9.793  30.565  57.746  1.00  0.00     0.079 A 
ENDBRANCH  19  20
ENDBRANCH   2  19
TORSDOF 5
ENDMDL
