MODEL 1
REMARK VINA RESULT:     -11.5      0.000      0.000
REMARK  7 active torsions:
REMARK  status: ('A' for Active; 'I' for Inactive)
REMARK    1  A    between atoms: C_6  and  N_7 
REMARK       I    between atoms: N_7  and  C_8 
REMARK    2  A    between atoms: C_8  and  C_9 
REMARK    3  A    between atoms: C_9  and  N_10 
REMARK    4  A    between atoms: N_13  and  C_14 
REMARK    5  A    between atoms: C_14  and  C_15 
REMARK    6  A    between atoms: C_30  and  C_31 
REMARK       I    between atoms: C_31  and  N_32 
REMARK    7  A    between atoms: N_32  and  C_33 
ROOT
HETATM    1  N   UNL     1       7.198  29.494  57.404  1.00  0.00    -0.290 N 
HETATM    2  C   UNL     1       6.298  30.529  57.182  1.00  0.00     0.332 C 
HETATM    3  O   UNL     1       6.687  31.701  57.179  1.00  0.00    -0.246 OA
HETATM    4  N   UNL     1       4.983  30.179  56.930  1.00  0.00    -0.261 N 
HETATM    5  C   UNL     1       4.542  28.884  56.705  1.00  0.00     0.264 C 
HETATM    6  O   UNL     1       3.386  28.590  56.413  1.00  0.00    -0.267 OA
HETATM    7  C   UNL     1       5.547  27.813  56.807  1.00  0.00     0.059 A 
HETATM    8  C   UNL     1       6.857  28.135  57.166  1.00  0.00     0.056 A 
HETATM    9  C   UNL     1       5.169  26.486  56.556  1.00  0.00     0.020 A 
HETATM   10  C   UNL     1       6.111  25.465  56.639  1.00  0.00     0.018 A 
HETATM   11  C   UNL     1       7.434  25.768  56.967  1.00  0.00     0.034 A 
HETATM   12  C   UNL     1       7.798  27.094  57.250  1.00  0.00     0.048 A 
ENDROOT
BRANCH   1  13
HETATM   13  C   UNL     1       8.555  29.858  57.825  1.00  0.00     0.237 C 
BRANCH  13  14
HETATM   14  C   UNL     1       8.558  30.971  58.875  1.00  0.00     0.240 C 
HETATM   15  N   UNL     1       7.760  30.688  59.969  1.00  0.00    -0.325 N 
HETATM   16  H   UNL     1       7.530  29.702  60.063  1.00  0.00     0.169 HD
HETATM   17  O   UNL     1       9.308  31.935  58.740  1.00  0.00    -0.271 OA
BRANCH  15  18
HETATM   18  C   UNL     1       7.533  31.492  61.114  1.00  0.00     0.046 A 
HETATM   19  C   UNL     1       6.488  32.433  61.232  1.00  0.00    -0.034 A 
HETATM   20  C   UNL     1       6.394  33.218  62.400  1.00  0.00     0.015 A 
HETATM   21  C   UNL     1       5.403  32.649  60.211  1.00  0.00     0.050 C 
HETATM   22  C   UNL     1       7.273  33.054  63.470  1.00  0.00    -0.061 A 
HETATM   23  C   UNL     1       7.119  33.871  64.717  1.00  0.00     0.048 C 
HETATM   24  C   UNL     1       8.248  32.063  63.385  1.00  0.00     0.015 A 
HETATM   25  C   UNL     1       8.392  31.281  62.223  1.00  0.00    -0.034 A 
HETATM   26  C   UNL     1       9.497  30.253  62.208  1.00  0.00     0.050 C 
ENDBRANCH  15  18
ENDBRANCH  13  14
ENDBRANCH   1  13
BRANCH   4  27
HETATM   27  C   UNL     1       3.991  31.245  56.885  1.00  0.00     0.175 C 
BRANCH  27  28
HETATM   28  C   UNL     1       3.956  31.899  55.517  1.00  0.00    -0.037 A 
HETATM   29  C   UNL     1       3.405  31.216  54.420  1.00  0.00     0.048 A 
HETATM   30  C   UNL     1       3.343  31.871  53.208  1.00  0.00     0.105 A 
HETATM   31  C   UNL     1       3.803  33.157  53.055  1.00  0.00     0.105 A 
HETATM   32  O   UNL     1       2.830  31.363  52.055  1.00  0.00    -0.323 OA
HETATM   33  O   UNL     1       3.640  33.619  51.786  1.00  0.00    -0.323 OA
HETATM   34  C   UNL     1       4.352  33.860  54.105  1.00  0.00     0.040 A 
HETATM   35  C   UNL     1       3.013  32.479  51.162  1.00  0.00     0.352 A 
HETATM   36  C   UNL     1       4.424  33.224  55.347  1.00  0.00     0.012 A 
ENDBRANCH  27  28
ENDBRANCH   4  27
BRANCH  11  37
HETATM   37  C   UNL     1       8.424  24.656  57.011  1.00  0.00     0.252 C 
HETATM   38  N   UNL     1       8.434  23.805  55.924  1.00  0.00    -0.352 N 
HETATM   39  H   UNL     1       7.671  23.854  55.262  1.00  0.00     0.163 HD
HETATM   40  O   UNL     1       9.137  24.515  57.997  1.00  0.00    -0.268 OA
BRANCH  38  41
HETATM   41  C   UNL     1       9.229  22.581  55.926  1.00  0.00     0.084 C 
HETATM   42  C   UNL     1       8.442  21.415  56.540  1.00  0.00     0.025 C 
HETATM   43  C   UNL     1       7.297  20.948  55.642  1.00  0.00     0.002 C 
HETATM   44  C   UNL     1       7.791  20.597  54.242  1.00  0.00     0.000 C 
HETATM   45  C   UNL     1       8.569  21.745  53.606  1.00  0.00     0.002 C 
HETATM   46  C   UNL     1       9.702  22.239  54.508  1.00  0.00     0.025 C 
ENDBRANCH  38  41
ENDBRANCH  11  37
TORSDOF 7
ENDMDL
MODEL 2
REMARK VINA RESULT:     -11.5      3.418      8.852
REMARK  7 active torsions:
REMARK  status: ('A' for Active; 'I' for Inactive)
REMARK    1  A    between atoms: C_6  and  N_7 
REMARK       I    between atoms: N_7  and  C_8 
REMARK    2  A    between atoms: C_8  and  C_9 
REMARK    3  A    between atoms: C_9  and  N_10 
REMARK    4  A    between atoms: N_13  and  C_14 
REMARK    5  A    between atoms: C_14  and  C_15 
REMARK    6  A    between atoms: C_30  and  C_31 
REMARK       I    between atoms: C_31  and  N_32 
REMARK    7  A    between atoms: N_32  and  C_33 
ROOT
HETATM    1  N   UNL     1       6.016  28.204  54.048  1.00  0.00    -0.290 N 
HETATM    2  C   UNL     1       6.136  28.314  55.427  1.00  0.00     0.332 C 
HETATM    3  O   UNL     1       7.099  27.806  56.011  1.00  0.00    -0.246 OA
HETATM    4  N   UNL     1       5.162  29.041  56.088  1.00  0.00    -0.261 N 
HETATM    5  C   UNL     1       4.192  29.810  55.463  1.00  0.00     0.264 C 
HETATM    6  O   UNL     1       3.375  30.507  56.058  1.00  0.00    -0.267 OA
HETATM    7  C   UNL     1       4.174  29.788  53.991  1.00  0.00     0.059 A 
HETATM    8  C   UNL     1       5.081  28.976  53.308  1.00  0.00     0.056 A 
HETATM    9  C   UNL     1       3.239  30.571  53.301  1.00  0.00     0.020 A 
HETATM   10  C   UNL     1       3.218  30.568  51.909  1.00  0.00     0.018 A 
HETATM   11  C   UNL     1       4.135  29.786  51.204  1.00  0.00     0.034 A 
HETATM   12  C   UNL     1       5.047  28.978  51.903  1.00  0.00     0.048 A 
ENDROOT
BRANCH   1  13
HETATM   13  C   UNL     1       6.952  27.308  53.359  1.00  0.00     0.237 C 
BRANCH  13  14
HETATM   14  C   UNL     1       6.739  25.841  53.740  1.00  0.00     0.240 C 
HETATM   15  N   UNL     1       7.856  25.262  54.317  1.00  0.00    -0.325 N 
HETATM   16  H   UNL     1       8.530  25.937  54.669  1.00  0.00     0.169 HD
HETATM   17  O   UNL     1       5.627  25.333  53.618  1.00  0.00    -0.271 OA
BRANCH  15  18
HETATM   18  C   UNL     1       8.007  23.932  54.783  1.00  0.00     0.046 A 
HETATM   19  C   UNL     1       7.939  22.788  53.960  1.00  0.00    -0.034 A 
HETATM   20  C   UNL     1       8.047  21.509  54.545  1.00  0.00     0.015 A 
HETATM   21  C   UNL     1       7.801  22.811  52.462  1.00  0.00     0.050 C 
HETATM   22  C   UNL     1       8.276  21.341  55.911  1.00  0.00    -0.061 A 
HETATM   23  C   UNL     1       8.435  19.970  56.496  1.00  0.00     0.048 C 
HETATM   24  C   UNL     1       8.432  22.476  56.704  1.00  0.00     0.015 A 
HETATM   25  C   UNL     1       8.299  23.767  56.162  1.00  0.00    -0.034 A 
HETATM   26  C   UNL     1       8.451  24.937  57.103  1.00  0.00     0.050 C 
ENDBRANCH  15  18
ENDBRANCH  13  14
ENDBRANCH   1  13
BRANCH   4  27
HETATM   27  C   UNL     1       5.160  29.010  57.545  1.00  0.00     0.175 C 
BRANCH  27  28
HETATM   28  C   UNL     1       6.142  30.017  58.113  1.00  0.00    -0.037 A 
HETATM   29  C   UNL     1       7.496  29.676  58.267  1.00  0.00     0.048 A 
HETATM   30  C   UNL     1       8.363  30.641  58.734  1.00  0.00     0.105 A 
HETATM   31  C   UNL     1       7.935  31.908  59.048  1.00  0.00     0.105 A 
HETATM   32  O   UNL     1       9.700  30.482  58.926  1.00  0.00    -0.323 OA
HETATM   33  O   UNL     1       8.948  32.706  59.480  1.00  0.00    -0.323 OA
HETATM   34  C   UNL     1       6.616  32.282  58.914  1.00  0.00     0.040 A 
HETATM   35  C   UNL     1      10.066  31.797  59.390  1.00  0.00     0.352 A 
HETATM   36  C   UNL     1       5.714  31.326  58.438  1.00  0.00     0.012 A 
ENDBRANCH  27  28
ENDBRANCH   4  27
BRANCH  11  37
HETATM   37  C   UNL     1       4.109  29.834  49.716  1.00  0.00     0.252 C 
HETATM   38  N   UNL     1       3.343  28.872  49.088  1.00  0.00    -0.352 N 
HETATM   39  H   UNL     1       3.002  28.090  49.633  1.00  0.00     0.163 HD
HETATM   40  O   UNL     1       4.781  30.668  49.122  1.00  0.00    -0.268 OA
BRANCH  38  41
HETATM   41  C   UNL     1       3.375  28.703  47.639  1.00  0.00     0.084 C 
HETATM   42  C   UNL     1       4.470  27.710  47.226  1.00  0.00     0.025 C 
HETATM   43  C   UNL     1       4.133  26.273  47.621  1.00  0.00     0.002 C 
HETATM   44  C   UNL     1       2.774  25.846  47.075  1.00  0.00     0.000 C 
HETATM   45  C   UNL     1       1.666  26.813  47.480  1.00  0.00     0.002 C 
HETATM   46  C   UNL     1       2.004  28.259  47.113  1.00  0.00     0.025 C 
ENDBRANCH  38  41
ENDBRANCH  11  37
TORSDOF 7
ENDMDL
MODEL 3
REMARK VINA RESULT:     -11.4      2.448      8.313
REMARK  7 active torsions:
REMARK  status: ('A' for Active; 'I' for Inactive)
REMARK    1  A    between atoms: C_6  and  N_7 
REMARK       I    between atoms: N_7  and  C_8 
REMARK    2  A    between atoms: C_8  and  C_9 
REMARK    3  A    between atoms: C_9  and  N_10 
REMARK    4  A    between atoms: N_13  and  C_14 
REMARK    5  A    between atoms: C_14  and  C_15 
REMARK    6  A    between atoms: C_30  and  C_31 
REMARK       I    between atoms: C_31  and  N_32 
REMARK    7  A    between atoms: N_32  and  C_33 
ROOT
HETATM    1  N   UNL     1       6.248  28.439  54.418  1.00  0.00    -0.290 N 
HETATM    2  C   UNL     1       5.162  28.419  53.553  1.00  0.00     0.332 C 
HETATM    3  O   UNL     1       5.051  27.519  52.714  1.00  0.00    -0.246 OA
HETATM    4  N   UNL     1       4.214  29.416  53.706  1.00  0.00    -0.261 N 
HETATM    5  C   UNL     1       4.177  30.312  54.763  1.00  0.00     0.264 C 
HETATM    6  O   UNL     1       3.293  31.148  54.928  1.00  0.00    -0.267 OA
HETATM    7  C   UNL     1       5.267  30.221  55.749  1.00  0.00     0.059 A 
HETATM    8  C   UNL     1       6.291  29.292  55.554  1.00  0.00     0.056 A 
HETATM    9  C   UNL     1       5.266  31.077  56.859  1.00  0.00     0.020 A 
HETATM   10  C   UNL     1       6.285  30.995  57.804  1.00  0.00     0.018 A 
HETATM   11  C   UNL     1       7.304  30.053  57.644  1.00  0.00     0.034 A 
HETATM   12  C   UNL     1       7.316  29.222  56.513  1.00  0.00     0.048 A 
ENDROOT
BRANCH   1  13
HETATM   13  C   UNL     1       7.332  27.484  54.163  1.00  0.00     0.237 C 
BRANCH  13  14
HETATM   14  C   UNL     1       7.063  26.117  54.795  1.00  0.00     0.240 C 
HETATM   15  N   UNL     1       8.066  25.197  54.547  1.00  0.00    -0.325 N 
HETATM   16  H   UNL     1       8.942  25.618  54.251  1.00  0.00     0.169 HD
HETATM   17  O   UNL     1       6.089  25.964  55.528  1.00  0.00    -0.271 OA
BRANCH  15  18
HETATM   18  C   UNL     1       8.138  23.848  54.976  1.00  0.00     0.046 A 
HETATM   19  C   UNL     1       8.471  23.446  56.287  1.00  0.00    -0.034 A 
HETATM   20  C   UNL     1       8.568  22.071  56.584  1.00  0.00     0.015 A 
HETATM   21  C   UNL     1       8.694  24.382  57.445  1.00  0.00     0.050 C 
HETATM   22  C   UNL     1       8.290  21.091  55.632  1.00  0.00    -0.061 A 
HETATM   23  C   UNL     1       8.356  19.637  55.991  1.00  0.00     0.048 C 
HETATM   24  C   UNL     1       7.876  21.492  54.364  1.00  0.00     0.015 A 
HETATM   25  C   UNL     1       7.798  22.854  54.022  1.00  0.00    -0.034 A 
HETATM   26  C   UNL     1       7.371  23.196  52.615  1.00  0.00     0.050 C 
ENDBRANCH  15  18
ENDBRANCH  13  14
ENDBRANCH   1  13
BRANCH   4  27
HETATM   27  C   UNL     1       3.172  29.527  52.693  1.00  0.00     0.175 C 
BRANCH  27  28
HETATM   28  C   UNL     1       3.731  30.072  51.393  1.00  0.00    -0.037 A 
HETATM   29  C   UNL     1       3.458  29.421  50.177  1.00  0.00     0.048 A 
HETATM   30  C   UNL     1       3.940  29.984  49.015  1.00  0.00     0.105 A 
HETATM   31  C   UNL     1       4.669  31.148  49.021  1.00  0.00     0.105 A 
HETATM   32  O   UNL     1       3.756  29.493  47.759  1.00  0.00    -0.323 OA
HETATM   33  O   UNL     1       5.039  31.536  47.771  1.00  0.00    -0.323 OA
HETATM   34  C   UNL     1       4.960  31.815  50.191  1.00  0.00     0.040 A 
HETATM   35  C   UNL     1       4.447  30.487  46.976  1.00  0.00     0.352 A 
HETATM   36  C   UNL     1       4.481  31.272  51.386  1.00  0.00     0.012 A 
ENDBRANCH  27  28
ENDBRANCH   4  27
BRANCH  11  37
HETATM   37  C   UNL     1       8.358  29.968  58.692  1.00  0.00     0.252 C 
HETATM   38  N   UNL     1       7.997  30.389  59.957  1.00  0.00    -0.352 N 
HETATM   39  H   UNL     1       7.129  30.897  60.070  1.00  0.00     0.163 HD
HETATM   40  O   UNL     1       9.482  29.583  58.395  1.00  0.00    -0.268 OA
BRANCH  38  41
HETATM   41  C   UNL     1       8.983  30.521  61.024  1.00  0.00     0.084 C 
HETATM   42  C   UNL     1       9.611  31.921  61.022  1.00  0.00     0.025 C 
HETATM   43  C   UNL     1       8.629  33.000  61.477  1.00  0.00     0.002 C 
HETATM   44  C   UNL     1       8.030  32.672  62.841  1.00  0.00     0.000 C 
HETATM   45  C   UNL     1       7.391  31.287  62.866  1.00  0.00     0.002 C 
HETATM   46  C   UNL     1       8.356  30.202  62.386  1.00  0.00     0.025 C 
ENDBRANCH  38  41
ENDBRANCH  11  37
TORSDOF 7
ENDMDL
MODEL 4
REMARK VINA RESULT:     -11.4      3.552      8.485
REMARK  7 active torsions:
REMARK  status: ('A' for Active; 'I' for Inactive)
REMARK    1  A    between atoms: C_6  and  N_7 
REMARK       I    between atoms: N_7  and  C_8 
REMARK    2  A    between atoms: C_8  and  C_9 
REMARK    3  A    between atoms: C_9  and  N_10 
REMARK    4  A    between atoms: N_13  and  C_14 
REMARK    5  A    between atoms: C_14  and  C_15 
REMARK    6  A    between atoms: C_30  and  C_31 
REMARK       I    between atoms: C_31  and  N_32 
REMARK    7  A    between atoms: N_32  and  C_33 
ROOT
HETATM    1  N   UNL     1       5.678  29.117  55.508  1.00  0.00    -0.290 N 
HETATM    2  C   UNL     1       5.317  29.532  56.783  1.00  0.00     0.332 C 
HETATM    3  O   UNL     1       6.088  29.362  57.734  1.00  0.00    -0.246 OA
HETATM    4  N   UNL     1       4.095  30.166  56.918  1.00  0.00    -0.261 N 
HETATM    5  C   UNL     1       3.299  30.576  55.860  1.00  0.00     0.264 C 
HETATM    6  O   UNL     1       2.249  31.200  55.988  1.00  0.00    -0.267 OA
HETATM    7  C   UNL     1       3.774  30.247  54.506  1.00  0.00     0.059 A 
HETATM    8  C   UNL     1       4.951  29.513  54.353  1.00  0.00     0.056 A 
HETATM    9  C   UNL     1       3.029  30.665  53.394  1.00  0.00     0.020 A 
HETATM   10  C   UNL     1       3.472  30.371  52.107  1.00  0.00     0.018 A 
HETATM   11  C   UNL     1       4.663  29.663  51.930  1.00  0.00     0.034 A 
HETATM   12  C   UNL     1       5.386  29.219  53.049  1.00  0.00     0.048 A 
ENDROOT
BRANCH   1  13
HETATM   13  C   UNL     1       6.894  28.307  55.380  1.00  0.00     0.237 C 
BRANCH  13  14
HETATM   14  C   UNL     1       6.586  26.818  55.208  1.00  0.00     0.240 C 
HETATM   15  N   UNL     1       7.661  26.093  54.725  1.00  0.00    -0.325 N 
HETATM   16  H   UNL     1       8.554  26.567  54.832  1.00  0.00     0.169 HD
HETATM   17  O   UNL     1       5.507  26.370  55.587  1.00  0.00    -0.271 OA
BRANCH  15  18
HETATM   18  C   UNL     1       7.724  24.705  54.449  1.00  0.00     0.046 A 
HETATM   19  C   UNL     1       7.879  23.704  55.431  1.00  0.00    -0.034 A 
HETATM   20  C   UNL     1       7.986  22.355  55.032  1.00  0.00     0.015 A 
HETATM   21  C   UNL     1       7.896  23.949  56.916  1.00  0.00     0.050 C 
HETATM   22  C   UNL     1       7.887  21.973  53.695  1.00  0.00    -0.061 A 
HETATM   23  C   UNL     1       7.956  20.527  53.306  1.00  0.00     0.048 C 
HETATM   24  C   UNL     1       7.644  22.956  52.738  1.00  0.00     0.015 A 
HETATM   25  C   UNL     1       7.563  24.314  53.094  1.00  0.00    -0.034 A 
HETATM   26  C   UNL     1       7.331  25.313  51.986  1.00  0.00     0.050 C 
ENDBRANCH  15  18
ENDBRANCH  13  14
ENDBRANCH   1  13
BRANCH   4  27
HETATM   27  C   UNL     1       3.613  30.437  58.267  1.00  0.00     0.175 C 
BRANCH  27  28
HETATM   28  C   UNL     1       3.773  31.903  58.619  1.00  0.00    -0.037 A 
HETATM   29  C   UNL     1       3.103  32.441  59.731  1.00  0.00     0.048 A 
HETATM   30  C   UNL     1       3.323  33.765  60.046  1.00  0.00     0.105 A 
HETATM   31  C   UNL     1       4.168  34.556  59.306  1.00  0.00     0.105 A 
HETATM   32  O   UNL     1       2.768  34.436  61.092  1.00  0.00    -0.323 OA
HETATM   33  O   UNL     1       4.250  35.824  59.790  1.00  0.00    -0.323 OA
HETATM   34  C   UNL     1       4.841  34.068  58.207  1.00  0.00     0.040 A 
HETATM   35  C   UNL     1       3.368  35.737  60.929  1.00  0.00     0.352 A 
HETATM   36  C   UNL     1       4.643  32.727  57.866  1.00  0.00     0.012 A 
ENDBRANCH  27  28
ENDBRANCH   4  27
BRANCH  11  37
HETATM   37  C   UNL     1       5.127  29.397  50.540  1.00  0.00     0.252 C 
HETATM   38  N   UNL     1       4.426  28.437  49.836  1.00  0.00    -0.352 N 
HETATM   39  H   UNL     1       3.778  27.843  50.338  1.00  0.00     0.163 HD
HETATM   40  O   UNL     1       6.108  29.985  50.102  1.00  0.00    -0.268 OA
BRANCH  38  41
HETATM   41  C   UNL     1       4.887  27.961  48.536  1.00  0.00     0.084 C 
HETATM   42  C   UNL     1       4.651  26.452  48.388  1.00  0.00     0.025 C 
HETATM   43  C   UNL     1       3.168  26.105  48.252  1.00  0.00     0.002 C 
HETATM   44  C   UNL     1       2.516  26.875  47.108  1.00  0.00     0.000 C 
HETATM   45  C   UNL     1       2.730  28.380  47.237  1.00  0.00     0.002 C 
HETATM   46  C   UNL     1       4.208  28.737  47.401  1.00  0.00     0.025 C 
ENDBRANCH  38  41
ENDBRANCH  11  37
TORSDOF 7
ENDMDL
MODEL 5
REMARK VINA RESULT:     -11.4      2.485      8.142
REMARK  7 active torsions:
REMARK  status: ('A' for Active; 'I' for Inactive)
REMARK    1  A    between atoms: C_6  and  N_7 
REMARK       I    between atoms: N_7  and  C_8 
REMARK    2  A    between atoms: C_8  and  C_9 
REMARK    3  A    between atoms: C_9  and  N_10 
REMARK    4  A    between atoms: N_13  and  C_14 
REMARK    5  A    between atoms: C_14  and  C_15 
REMARK    6  A    between atoms: C_30  and  C_31 
REMARK       I    between atoms: C_31  and  N_32 
REMARK    7  A    between atoms: N_32  and  C_33 
ROOT
HETATM    1  N   UNL     1       7.345  29.670  57.391  1.00  0.00    -0.290 N 
HETATM    2  C   UNL     1       7.406  28.304  57.630  1.00  0.00     0.332 C 
HETATM    3  O   UNL     1       8.418  27.805  58.136  1.00  0.00    -0.246 OA
HETATM    4  N   UNL     1       6.284  27.557  57.317  1.00  0.00    -0.261 N 
HETATM    5  C   UNL     1       5.057  28.093  56.959  1.00  0.00     0.264 C 
HETATM    6  O   UNL     1       4.047  27.424  56.751  1.00  0.00    -0.267 OA
HETATM    7  C   UNL     1       4.979  29.558  56.849  1.00  0.00     0.059 A 
HETATM    8  C   UNL     1       6.128  30.323  57.056  1.00  0.00     0.056 A 
HETATM    9  C   UNL     1       3.755  30.161  56.524  1.00  0.00     0.020 A 
HETATM   10  C   UNL     1       3.664  31.547  56.426  1.00  0.00     0.018 A 
HETATM   11  C   UNL     1       4.795  32.333  56.659  1.00  0.00     0.034 A 
HETATM   12  C   UNL     1       6.024  31.720  56.951  1.00  0.00     0.048 A 
ENDROOT
BRANCH   1  13
HETATM   13  C   UNL     1       8.578  30.443  57.572  1.00  0.00     0.237 C 
BRANCH  13  14
HETATM   14  C   UNL     1       8.496  31.399  58.764  1.00  0.00     0.240 C 
HETATM   15  N   UNL     1       7.708  30.917  59.793  1.00  0.00    -0.325 N 
HETATM   16  H   UNL     1       7.545  29.914  59.748  1.00  0.00     0.169 HD
HETATM   17  O   UNL     1       9.180  32.420  58.777  1.00  0.00    -0.271 OA
BRANCH  15  18
HETATM   18  C   UNL     1       7.416  31.538  61.034  1.00  0.00     0.046 A 
HETATM   19  C   UNL     1       6.289  32.354  61.269  1.00  0.00    -0.034 A 
HETATM   20  C   UNL     1       6.132  32.967  62.529  1.00  0.00     0.015 A 
HETATM   21  C   UNL     1       5.181  32.600  60.280  1.00  0.00     0.050 C 
HETATM   22  C   UNL     1       7.030  32.746  63.573  1.00  0.00    -0.061 A 
HETATM   23  C   UNL     1       6.810  33.374  64.916  1.00  0.00     0.048 C 
HETATM   24  C   UNL     1       8.093  31.870  63.363  1.00  0.00     0.015 A 
HETATM   25  C   UNL     1       8.299  31.265  62.109  1.00  0.00    -0.034 A 
HETATM   26  C   UNL     1       9.495  30.354  61.964  1.00  0.00     0.050 C 
ENDBRANCH  15  18
ENDBRANCH  13  14
ENDBRANCH   1  13
BRANCH   4  27
HETATM   27  C   UNL     1       6.393  26.105  57.380  1.00  0.00     0.175 C 
BRANCH  27  28
HETATM   28  C   UNL     1       6.874  25.537  56.058  1.00  0.00    -0.037 A 
HETATM   29  C   UNL     1       6.978  24.146  55.882  1.00  0.00     0.048 A 
HETATM   30  C   UNL     1       7.365  23.674  54.646  1.00  0.00     0.105 A 
HETATM   31  C   UNL     1       7.648  24.520  53.602  1.00  0.00     0.105 A 
HETATM   32  O   UNL     1       7.502  22.364  54.303  1.00  0.00    -0.323 OA
HETATM   33  O   UNL     1       8.000  23.852  52.471  1.00  0.00    -0.323 OA
HETATM   34  C   UNL     1       7.560  25.889  53.734  1.00  0.00     0.040 A 
HETATM   35  C   UNL     1       7.895  22.485  52.921  1.00  0.00     0.352 A 
HETATM   36  C   UNL     1       7.165  26.399  54.975  1.00  0.00     0.012 A 
ENDBRANCH  27  28
ENDBRANCH   4  27
BRANCH  11  37
HETATM   37  C   UNL     1       4.654  33.813  56.582  1.00  0.00     0.252 C 
HETATM   38  N   UNL     1       3.605  34.364  57.290  1.00  0.00    -0.352 N 
HETATM   39  H   UNL     1       2.891  33.748  57.659  1.00  0.00     0.163 HD
HETATM   40  O   UNL     1       5.421  34.463  55.881  1.00  0.00    -0.268 OA
BRANCH  38  41
HETATM   41  C   UNL     1       3.255  35.775  57.156  1.00  0.00     0.084 C 
HETATM   42  C   UNL     1       1.738  35.978  57.272  1.00  0.00     0.025 C 
HETATM   43  C   UNL     1       1.226  35.745  58.693  1.00  0.00     0.002 C 
HETATM   44  C   UNL     1       1.973  36.608  59.705  1.00  0.00     0.000 C 
HETATM   45  C   UNL     1       3.483  36.417  59.616  1.00  0.00     0.002 C 
HETATM   46  C   UNL     1       4.004  36.621  58.192  1.00  0.00     0.025 C 
ENDBRANCH  38  41
ENDBRANCH  11  37
TORSDOF 7
ENDMDL
MODEL 6
REMARK VINA RESULT:     -11.2      2.474      7.890
REMARK  7 active torsions:
REMARK  status: ('A' for Active; 'I' for Inactive)
REMARK    1  A    between atoms: C_6  and  N_7 
REMARK       I    between atoms: N_7  and  C_8 
REMARK    2  A    between atoms: C_8  and  C_9 
REMARK    3  A    between atoms: C_9  and  N_10 
REMARK    4  A    between atoms: N_13  and  C_14 
REMARK    5  A    between atoms: C_14  and  C_15 
REMARK    6  A    between atoms: C_30  and  C_31 
REMARK       I    between atoms: C_31  and  N_32 
REMARK    7  A    between atoms: N_32  and  C_33 
ROOT
HETATM    1  N   UNL     1       5.954  28.725  56.535  1.00  0.00    -0.290 N 
HETATM    2  C   UNL     1       5.521  28.129  55.358  1.00  0.00     0.332 C 
HETATM    3  O   UNL     1       4.317  27.924  55.170  1.00  0.00    -0.246 OA
HETATM    4  N   UNL     1       6.485  27.822  54.414  1.00  0.00    -0.261 N 
HETATM    5  C   UNL     1       7.809  28.227  54.480  1.00  0.00     0.264 C 
HETATM    6  O   UNL     1       8.641  28.010  53.603  1.00  0.00    -0.267 OA
HETATM    7  C   UNL     1       8.213  28.983  55.677  1.00  0.00     0.059 A 
HETATM    8  C   UNL     1       7.280  29.210  56.690  1.00  0.00     0.056 A 
HETATM    9  C   UNL     1       9.531  29.450  55.786  1.00  0.00     0.020 A 
HETATM   10  C   UNL     1       9.924  30.174  56.907  1.00  0.00     0.018 A 
HETATM   11  C   UNL     1       8.999  30.438  57.920  1.00  0.00     0.034 A 
HETATM   12  C   UNL     1       7.691  29.939  57.820  1.00  0.00     0.048 A 
ENDROOT
BRANCH   1  13
HETATM   13  C   UNL     1       4.965  28.909  57.602  1.00  0.00     0.237 C 
BRANCH  13  14
HETATM   14  C   UNL     1       4.229  30.246  57.488  1.00  0.00     0.240 C 
HETATM   15  N   UNL     1       4.754  31.227  58.309  1.00  0.00    -0.325 N 
HETATM   16  H   UNL     1       5.697  31.026  58.634  1.00  0.00     0.169 HD
HETATM   17  O   UNL     1       3.343  30.386  56.648  1.00  0.00    -0.271 OA
BRANCH  15  18
HETATM   18  C   UNL     1       4.320  32.568  58.455  1.00  0.00     0.046 A 
HETATM   19  C   UNL     1       4.500  33.574  57.481  1.00  0.00    -0.034 A 
HETATM   20  C   UNL     1       4.076  34.889  57.761  1.00  0.00     0.015 A 
HETATM   21  C   UNL     1       5.081  33.352  56.111  1.00  0.00     0.050 C 
HETATM   22  C   UNL     1       3.431  35.218  58.953  1.00  0.00    -0.061 A 
HETATM   23  C   UNL     1       2.949  36.615  59.201  1.00  0.00     0.048 C 
HETATM   24  C   UNL     1       3.176  34.203  59.873  1.00  0.00     0.015 A 
HETATM   25  C   UNL     1       3.612  32.886  59.643  1.00  0.00    -0.034 A 
HETATM   26  C   UNL     1       3.320  31.859  60.710  1.00  0.00     0.050 C 
ENDBRANCH  15  18
ENDBRANCH  13  14
ENDBRANCH   1  13
BRANCH   4  27
HETATM   27  C   UNL     1       6.081  27.028  53.260  1.00  0.00     0.175 C 
BRANCH  27  28
HETATM   28  C   UNL     1       6.712  25.649  53.299  1.00  0.00    -0.037 A 
HETATM   29  C   UNL     1       6.613  24.857  54.456  1.00  0.00     0.048 A 
HETATM   30  C   UNL     1       7.153  23.590  54.426  1.00  0.00     0.105 A 
HETATM   31  C   UNL     1       7.777  23.093  53.307  1.00  0.00     0.105 A 
HETATM   32  O   UNL     1       7.132  22.692  55.449  1.00  0.00    -0.323 OA
HETATM   33  O   UNL     1       8.230  21.823  53.484  1.00  0.00    -0.323 OA
HETATM   34  C   UNL     1       7.897  23.838  52.154  1.00  0.00     0.040 A 
HETATM   35  C   UNL     1       7.808  21.573  54.841  1.00  0.00     0.352 A 
HETATM   36  C   UNL     1       7.355  25.126  52.152  1.00  0.00     0.012 A 
ENDBRANCH  27  28
ENDBRANCH   4  27
BRANCH  11  37
HETATM   37  C   UNL     1       9.443  31.247  59.089  1.00  0.00     0.252 C 
HETATM   38  N   UNL     1       8.797  30.998  60.284  1.00  0.00    -0.352 N 
HETATM   39  H   UNL     1       7.955  30.438  60.273  1.00  0.00     0.163 HD
HETATM   40  O   UNL     1      10.303  32.107  58.943  1.00  0.00    -0.268 OA
BRANCH  38  41
HETATM   41  C   UNL     1       9.016  31.841  61.455  1.00  0.00     0.084 C 
HETATM   42  C   UNL     1       8.365  33.219  61.269  1.00  0.00     0.025 C 
HETATM   43  C   UNL     1       6.838  33.152  61.310  1.00  0.00     0.002 C 
HETATM   44  C   UNL     1       6.342  32.480  62.587  1.00  0.00     0.000 C 
HETATM   45  C   UNL     1       6.969  31.105  62.790  1.00  0.00     0.002 C 
HETATM   46  C   UNL     1       8.496  31.155  62.724  1.00  0.00     0.025 C 
ENDBRANCH  38  41
ENDBRANCH  11  37
TORSDOF 7
ENDMDL
MODEL 7
REMARK VINA RESULT:     -11.2      3.184      8.844
REMARK  7 active torsions:
REMARK  status: ('A' for Active; 'I' for Inactive)
REMARK    1  A    between atoms: C_6  and  N_7 
REMARK       I    between atoms: N_7  and  C_8 
REMARK    2  A    between atoms: C_8  and  C_9 
REMARK    3  A    between atoms: C_9  and  N_10 
REMARK    4  A    between atoms: N_13  and  C_14 
REMARK    5  A    between atoms: C_14  and  C_15 
REMARK    6  A    between atoms: C_30  and  C_31 
REMARK       I    between atoms: C_31  and  N_32 
REMARK    7  A    between atoms: N_32  and  C_33 
ROOT
HETATM    1  N   UNL     1       3.889  29.115  54.194  1.00  0.00    -0.290 N 
HETATM    2  C   UNL     1       3.906  29.270  55.574  1.00  0.00     0.332 C 
HETATM    3  O   UNL     1       4.101  28.296  56.308  1.00  0.00    -0.246 OA
HETATM    4  N   UNL     1       3.735  30.552  56.066  1.00  0.00    -0.261 N 
HETATM    5  C   UNL     1       3.734  31.700  55.290  1.00  0.00     0.264 C 
HETATM    6  O   UNL     1       3.652  32.839  55.743  1.00  0.00    -0.267 OA
HETATM    7  C   UNL     1       3.860  31.518  53.835  1.00  0.00     0.059 A 
HETATM    8  C   UNL     1       3.925  30.226  53.310  1.00  0.00     0.056 A 
HETATM    9  C   UNL     1       3.899  32.644  52.999  1.00  0.00     0.020 A 
HETATM   10  C   UNL     1       4.029  32.486  51.623  1.00  0.00     0.018 A 
HETATM   11  C   UNL     1       4.125  31.204  51.078  1.00  0.00     0.034 A 
HETATM   12  C   UNL     1       4.052  30.081  51.917  1.00  0.00     0.048 A 
ENDROOT
BRANCH   1  13
HETATM   13  C   UNL     1       3.911  27.745  53.668  1.00  0.00     0.237 C 
BRANCH  13  14
HETATM   14  C   UNL     1       5.290  27.093  53.801  1.00  0.00     0.240 C 
HETATM   15  N   UNL     1       5.226  25.730  54.026  1.00  0.00    -0.325 N 
HETATM   16  H   UNL     1       4.329  25.317  53.782  1.00  0.00     0.169 HD
HETATM   17  O   UNL     1       6.302  27.760  53.604  1.00  0.00    -0.271 OA
BRANCH  15  18
HETATM   18  C   UNL     1       6.302  24.823  54.197  1.00  0.00     0.046 A 
HETATM   19  C   UNL     1       7.118  24.349  53.148  1.00  0.00    -0.034 A 
HETATM   20  C   UNL     1       8.125  23.402  53.431  1.00  0.00     0.015 A 
HETATM   21  C   UNL     1       7.039  24.811  51.718  1.00  0.00     0.050 C 
HETATM   22  C   UNL     1       8.376  22.960  54.729  1.00  0.00    -0.061 A 
HETATM   23  C   UNL     1       9.484  21.988  55.005  1.00  0.00     0.048 C 
HETATM   24  C   UNL     1       7.626  23.497  55.773  1.00  0.00     0.015 A 
HETATM   25  C   UNL     1       6.592  24.420  55.526  1.00  0.00    -0.034 A 
HETATM   26  C   UNL     1       5.811  24.924  56.715  1.00  0.00     0.050 C 
ENDBRANCH  15  18
ENDBRANCH  13  14
ENDBRANCH   1  13
BRANCH   4  27
HETATM   27  C   UNL     1       3.558  30.711  57.504  1.00  0.00     0.175 C 
BRANCH  27  28
HETATM   28  C   UNL     1       4.844  31.170  58.164  1.00  0.00    -0.037 A 
HETATM   29  C   UNL     1       6.074  30.603  57.789  1.00  0.00     0.048 A 
HETATM   30  C   UNL     1       7.223  31.091  58.375  1.00  0.00     0.105 A 
HETATM   31  C   UNL     1       7.189  32.102  59.304  1.00  0.00     0.105 A 
HETATM   32  O   UNL     1       8.489  30.665  58.117  1.00  0.00    -0.323 OA
HETATM   33  O   UNL     1       8.429  32.441  59.749  1.00  0.00    -0.323 OA
HETATM   34  C   UNL     1       6.004  32.684  59.701  1.00  0.00     0.040 A 
HETATM   35  C   UNL     1       9.248  31.532  58.984  1.00  0.00     0.352 A 
HETATM   36  C   UNL     1       4.823  32.214  59.120  1.00  0.00     0.012 A 
ENDBRANCH  27  28
ENDBRANCH   4  27
BRANCH  11  37
HETATM   37  C   UNL     1       4.300  31.073  49.605  1.00  0.00     0.252 C 
HETATM   38  N   UNL     1       3.771  29.936  49.027  1.00  0.00    -0.352 N 
HETATM   39  H   UNL     1       3.470  29.180  49.628  1.00  0.00     0.163 HD
HETATM   40  O   UNL     1       4.925  31.926  48.987  1.00  0.00    -0.268 OA
BRANCH  38  41
HETATM   41  C   UNL     1       4.028  29.606  47.629  1.00  0.00     0.084 C 
HETATM   42  C   UNL     1       5.095  28.509  47.510  1.00  0.00     0.025 C 
HETATM   43  C   UNL     1       4.586  27.147  47.982  1.00  0.00     0.002 C 
HETATM   44  C   UNL     1       3.306  26.745  47.256  1.00  0.00     0.000 C 
HETATM   45  C   UNL     1       2.226  27.816  47.366  1.00  0.00     0.002 C 
HETATM   46  C   UNL     1       2.732  29.189  46.922  1.00  0.00     0.025 C 
ENDBRANCH  38  41
ENDBRANCH  11  37
TORSDOF 7
ENDMDL
MODEL 8
REMARK VINA RESULT:     -11.0      2.140      7.786
REMARK  7 active torsions:
REMARK  status: ('A' for Active; 'I' for Inactive)
REMARK    1  A    between atoms: C_6  and  N_7 
REMARK       I    between atoms: N_7  and  C_8 
REMARK    2  A    between atoms: C_8  and  C_9 
REMARK    3  A    between atoms: C_9  and  N_10 
REMARK    4  A    between atoms: N_13  and  C_14 
REMARK    5  A    between atoms: C_14  and  C_15 
REMARK    6  A    between atoms: C_30  and  C_31 
REMARK       I    between atoms: C_31  and  N_32 
REMARK    7  A    between atoms: N_32  and  C_33 
ROOT
HETATM    1  N   UNL     1       7.364  29.525  57.310  1.00  0.00    -0.290 N 
HETATM    2  C   UNL     1       7.347  28.161  57.575  1.00  0.00     0.332 C 
HETATM    3  O   UNL     1       8.304  27.626  58.145  1.00  0.00    -0.246 OA
HETATM    4  N   UNL     1       6.211  27.461  57.210  1.00  0.00    -0.261 N 
HETATM    5  C   UNL     1       5.032  28.046  56.774  1.00  0.00     0.264 C 
HETATM    6  O   UNL     1       4.005  27.422  56.519  1.00  0.00    -0.267 OA
HETATM    7  C   UNL     1       5.029  29.512  56.635  1.00  0.00     0.059 A 
HETATM    8  C   UNL     1       6.200  30.226  56.895  1.00  0.00     0.056 A 
HETATM    9  C   UNL     1       3.856  30.164  56.231  1.00  0.00     0.020 A 
HETATM   10  C   UNL     1       3.836  31.550  56.106  1.00  0.00     0.018 A 
HETATM   11  C   UNL     1       4.988  32.288  56.389  1.00  0.00     0.034 A 
HETATM   12  C   UNL     1       6.168  31.625  56.762  1.00  0.00     0.048 A 
ENDROOT
BRANCH   1  13
HETATM   13  C   UNL     1       8.621  30.243  57.547  1.00  0.00     0.237 C 
BRANCH  13  14
HETATM   14  C   UNL     1       8.508  31.246  58.698  1.00  0.00     0.240 C 
HETATM   15  N   UNL     1       7.745  30.778  59.753  1.00  0.00    -0.325 N 
HETATM   16  H   UNL     1       7.621  29.769  59.752  1.00  0.00     0.169 HD
HETATM   17  O   UNL     1       9.151  32.292  58.662  1.00  0.00    -0.271 OA
BRANCH  15  18
HETATM   18  C   UNL     1       7.436  31.441  60.968  1.00  0.00     0.046 A 
HETATM   19  C   UNL     1       6.301  32.257  61.163  1.00  0.00    -0.034 A 
HETATM   20  C   UNL     1       6.127  32.913  62.399  1.00  0.00     0.015 A 
HETATM   21  C   UNL     1       5.203  32.460  60.155  1.00  0.00     0.050 C 
HETATM   22  C   UNL     1       7.017  32.735  63.459  1.00  0.00    -0.061 A 
HETATM   23  C   UNL     1       6.779  33.409  64.777  1.00  0.00     0.048 C 
HETATM   24  C   UNL     1       8.087  31.859  63.290  1.00  0.00     0.015 A 
HETATM   25  C   UNL     1       8.310  31.212  62.061  1.00  0.00    -0.034 A 
HETATM   26  C   UNL     1       9.513  30.305  61.960  1.00  0.00     0.050 C 
ENDBRANCH  15  18
ENDBRANCH  13  14
ENDBRANCH   1  13
BRANCH   4  27
HETATM   27  C   UNL     1       6.247  26.007  57.302  1.00  0.00     0.175 C 
BRANCH  27  28
HETATM   28  C   UNL     1       6.777  25.393  56.021  1.00  0.00    -0.037 A 
HETATM   29  C   UNL     1       6.887  23.997  55.899  1.00  0.00     0.048 A 
HETATM   30  C   UNL     1       7.321  23.481  54.696  1.00  0.00     0.105 A 
HETATM   31  C   UNL     1       7.643  24.290  53.634  1.00  0.00     0.105 A 
HETATM   32  O   UNL     1       7.470  22.160  54.406  1.00  0.00    -0.323 OA
HETATM   33  O   UNL     1       8.037  23.582  52.542  1.00  0.00    -0.323 OA
HETATM   34  C   UNL     1       7.551  25.662  53.714  1.00  0.00     0.040 A 
HETATM   35  C   UNL     1       7.915  22.231  53.036  1.00  0.00     0.352 A 
HETATM   36  C   UNL     1       7.110  26.216  54.919  1.00  0.00     0.012 A 
ENDBRANCH  27  28
ENDBRANCH   4  27
BRANCH  11  37
HETATM   37  C   UNL     1       4.922  33.771  56.281  1.00  0.00     0.252 C 
HETATM   38  N   UNL     1       4.699  34.281  55.016  1.00  0.00    -0.352 N 
HETATM   39  H   UNL     1       4.780  33.661  54.222  1.00  0.00     0.163 HD
HETATM   40  O   UNL     1       5.106  34.464  57.274  1.00  0.00    -0.268 OA
BRANCH  38  41
HETATM   41  C   UNL     1       4.789  35.713  54.749  1.00  0.00     0.084 C 
HETATM   42  C   UNL     1       6.251  36.152  54.594  1.00  0.00     0.025 C 
HETATM   43  C   UNL     1       6.881  35.633  53.301  1.00  0.00     0.002 C 
HETATM   44  C   UNL     1       6.058  36.029  52.079  1.00  0.00     0.000 C 
HETATM   45  C   UNL     1       4.601  35.595  52.206  1.00  0.00     0.002 C 
HETATM   46  C   UNL     1       3.968  36.086  53.509  1.00  0.00     0.025 C 
ENDBRANCH  38  41
ENDBRANCH  11  37
TORSDOF 7
ENDMDL
MODEL 9
REMARK VINA RESULT:     -10.9      2.370      8.802
REMARK  7 active torsions:
REMARK  status: ('A' for Active; 'I' for Inactive)
REMARK    1  A    between atoms: C_6  and  N_7 
REMARK       I    between atoms: N_7  and  C_8 
REMARK    2  A    between atoms: C_8  and  C_9 
REMARK    3  A    between atoms: C_9  and  N_10 
REMARK    4  A    between atoms: N_13  and  C_14 
REMARK    5  A    between atoms: C_14  and  C_15 
REMARK    6  A    between atoms: C_30  and  C_31 
REMARK       I    between atoms: C_31  and  N_32 
REMARK    7  A    between atoms: N_32  and  C_33 
ROOT
HETATM    1  N   UNL     1       5.563  28.323  56.055  1.00  0.00    -0.290 N 
HETATM    2  C   UNL     1       4.700  27.872  55.065  1.00  0.00     0.332 C 
HETATM    3  O   UNL     1       4.561  26.661  54.863  1.00  0.00    -0.246 OA
HETATM    4  N   UNL     1       3.991  28.831  54.362  1.00  0.00    -0.261 N 
HETATM    5  C   UNL     1       3.943  30.176  54.695  1.00  0.00     0.264 C 
HETATM    6  O   UNL     1       3.256  31.007  54.107  1.00  0.00    -0.267 OA
HETATM    7  C   UNL     1       4.761  30.606  55.841  1.00  0.00     0.059 A 
HETATM    8  C   UNL     1       5.566  29.673  56.496  1.00  0.00     0.056 A 
HETATM    9  C   UNL     1       4.728  31.948  56.246  1.00  0.00     0.020 A 
HETATM   10  C   UNL     1       5.488  32.366  57.335  1.00  0.00     0.018 A 
HETATM   11  C   UNL     1       6.279  31.444  58.023  1.00  0.00     0.034 A 
HETATM   12  C   UNL     1       6.332  30.109  57.591  1.00  0.00     0.048 A 
ENDROOT
BRANCH   1  13
HETATM   13  C   UNL     1       6.432  27.329  56.695  1.00  0.00     0.237 C 
BRANCH  13  14
HETATM   14  C   UNL     1       7.156  26.447  55.676  1.00  0.00     0.240 C 
HETATM   15  N   UNL     1       6.776  25.118  55.741  1.00  0.00    -0.325 N 
HETATM   16  H   UNL     1       5.895  24.968  56.225  1.00  0.00     0.169 HD
HETATM   17  O   UNL     1       7.899  26.959  54.843  1.00  0.00    -0.271 OA
BRANCH  15  18
HETATM   18  C   UNL     1       7.243  24.037  54.952  1.00  0.00     0.046 A 
HETATM   19  C   UNL     1       6.972  23.880  53.576  1.00  0.00    -0.034 A 
HETATM   20  C   UNL     1       7.442  22.732  52.906  1.00  0.00     0.015 A 
HETATM   21  C   UNL     1       6.241  24.882  52.723  1.00  0.00     0.050 C 
HETATM   22  C   UNL     1       8.218  21.769  53.551  1.00  0.00    -0.061 A 
HETATM   23  C   UNL     1       8.744  20.583  52.799  1.00  0.00     0.048 C 
HETATM   24  C   UNL     1       8.558  21.973  54.886  1.00  0.00     0.015 A 
HETATM   25  C   UNL     1       8.081  23.090  55.596  1.00  0.00    -0.034 A 
HETATM   26  C   UNL     1       8.473  23.212  57.049  1.00  0.00     0.050 C 
ENDBRANCH  15  18
ENDBRANCH  13  14
ENDBRANCH   1  13
BRANCH   4  27
HETATM   27  C   UNL     1       3.228  28.398  53.198  1.00  0.00     0.175 C 
BRANCH  27  28
HETATM   28  C   UNL     1       3.799  28.986  51.923  1.00  0.00    -0.037 A 
HETATM   29  C   UNL     1       2.954  29.618  50.994  1.00  0.00     0.048 A 
HETATM   30  C   UNL     1       3.524  30.188  49.876  1.00  0.00     0.105 A 
HETATM   31  C   UNL     1       4.880  30.151  49.655  1.00  0.00     0.105 A 
HETATM   32  O   UNL     1       2.855  30.846  48.891  1.00  0.00    -0.323 OA
HETATM   33  O   UNL     1       5.235  30.779  48.502  1.00  0.00    -0.323 OA
HETATM   34  C   UNL     1       5.742  29.540  50.539  1.00  0.00     0.040 A 
HETATM   35  C   UNL     1       3.947  31.226  48.029  1.00  0.00     0.352 A 
HETATM   36  C   UNL     1       5.194  28.957  51.685  1.00  0.00     0.012 A 
ENDBRANCH  27  28
ENDBRANCH   4  27
BRANCH  11  37
HETATM   37  C   UNL     1       7.051  31.918  59.205  1.00  0.00     0.252 C 
HETATM   38  N   UNL     1       6.360  31.983  60.399  1.00  0.00    -0.352 N 
HETATM   39  H   UNL     1       5.352  31.894  60.382  1.00  0.00     0.163 HD
HETATM   40  O   UNL     1       8.218  32.264  59.071  1.00  0.00    -0.268 OA
BRANCH  38  41
HETATM   41  C   UNL     1       6.951  32.594  61.585  1.00  0.00     0.084 C 
HETATM   42  C   UNL     1       6.474  34.044  61.751  1.00  0.00     0.025 C 
HETATM   43  C   UNL     1       5.002  34.131  62.151  1.00  0.00     0.002 C 
HETATM   44  C   UNL     1       4.714  33.314  63.407  1.00  0.00     0.000 C 
HETATM   45  C   UNL     1       5.170  31.866  63.264  1.00  0.00     0.002 C 
HETATM   46  C   UNL     1       6.636  31.766  62.837  1.00  0.00     0.025 C 
ENDBRANCH  38  41
ENDBRANCH  11  37
TORSDOF 7
ENDMDL
MODEL 10
REMARK VINA RESULT:     -10.8      3.400      8.905
REMARK  7 active torsions:
REMARK  status: ('A' for Active; 'I' for Inactive)
REMARK    1  A    between atoms: C_6  and  N_7 
REMARK       I    between atoms: N_7  and  C_8 
REMARK    2  A    between atoms: C_8  and  C_9 
REMARK    3  A    between atoms: C_9  and  N_10 
REMARK    4  A    between atoms: N_13  and  C_14 
REMARK    5  A    between atoms: C_14  and  C_15 
REMARK    6  A    between atoms: C_30  and  C_31 
REMARK       I    between atoms: C_31  and  N_32 
REMARK    7  A    between atoms: N_32  and  C_33 
ROOT
HETATM    1  N   UNL     1       4.873  28.001  54.806  1.00  0.00    -0.290 N 
HETATM    2  C   UNL     1       5.456  27.836  56.056  1.00  0.00     0.332 C 
HETATM    3  O   UNL     1       4.921  28.317  57.060  1.00  0.00    -0.246 OA
HETATM    4  N   UNL     1       6.618  27.087  56.116  1.00  0.00    -0.261 N 
HETATM    5  C   UNL     1       7.134  26.347  55.064  1.00  0.00     0.264 C 
HETATM    6  O   UNL     1       8.127  25.629  55.147  1.00  0.00    -0.267 OA
HETATM    7  C   UNL     1       6.415  26.427  53.781  1.00  0.00     0.059 A 
HETATM    8  C   UNL     1       5.302  27.262  53.671  1.00  0.00     0.056 A 
HETATM    9  C   UNL     1       6.869  25.674  52.689  1.00  0.00     0.020 A 
HETATM   10  C   UNL     1       6.193  25.732  51.473  1.00  0.00     0.018 A 
HETATM   11  C   UNL     1       5.060  26.538  51.349  1.00  0.00     0.034 A 
HETATM   12  C   UNL     1       4.631  27.314  52.437  1.00  0.00     0.048 A 
ENDROOT
BRANCH   1  13
HETATM   13  C   UNL     1       3.734  28.920  54.708  1.00  0.00     0.237 C 
BRANCH  13  14
HETATM   14  C   UNL     1       4.116  30.252  54.060  1.00  0.00     0.240 C 
HETATM   15  N   UNL     1       3.554  30.428  52.808  1.00  0.00    -0.325 N 
HETATM   16  H   UNL     1       2.762  29.816  52.626  1.00  0.00     0.169 HD
HETATM   17  O   UNL     1       4.767  31.077  54.696  1.00  0.00    -0.271 OA
BRANCH  15  18
HETATM   18  C   UNL     1       3.697  31.534  51.934  1.00  0.00     0.046 A 
HETATM   19  C   UNL     1       2.952  32.729  52.033  1.00  0.00    -0.034 A 
HETATM   20  C   UNL     1       3.141  33.742  51.071  1.00  0.00     0.015 A 
HETATM   21  C   UNL     1       1.977  33.047  53.134  1.00  0.00     0.050 C 
HETATM   22  C   UNL     1       4.085  33.622  50.051  1.00  0.00    -0.061 A 
HETATM   23  C   UNL     1       4.296  34.737  49.071  1.00  0.00     0.048 C 
HETATM   24  C   UNL     1       4.880  32.479  50.010  1.00  0.00     0.015 A 
HETATM   25  C   UNL     1       4.699  31.434  50.934  1.00  0.00    -0.034 A 
HETATM   26  C   UNL     1       5.584  30.219  50.794  1.00  0.00     0.050 C 
ENDBRANCH  15  18
ENDBRANCH  13  14
ENDBRANCH   1  13
BRANCH   4  27
HETATM   27  C   UNL     1       7.347  27.061  57.379  1.00  0.00     0.175 C 
BRANCH  27  28
HETATM   28  C   UNL     1       8.212  28.296  57.535  1.00  0.00    -0.037 A 
HETATM   29  C   UNL     1       7.925  29.240  58.536  1.00  0.00     0.048 A 
HETATM   30  C   UNL     1       8.771  30.319  58.677  1.00  0.00     0.105 A 
HETATM   31  C   UNL     1       9.870  30.488  57.871  1.00  0.00     0.105 A 
HETATM   32  O   UNL     1       8.646  31.311  59.600  1.00  0.00    -0.323 OA
HETATM   33  O   UNL     1      10.575  31.608  58.182  1.00  0.00    -0.323 OA
HETATM   34  C   UNL     1      10.185  29.588  56.876  1.00  0.00     0.040 A 
HETATM   35  C   UNL     1       9.798  32.119  59.286  1.00  0.00     0.352 A 
HETATM   36  C   UNL     1       9.348  28.480  56.712  1.00  0.00     0.012 A 
ENDBRANCH  27  28
ENDBRANCH   4  27
BRANCH  11  37
HETATM   37  C   UNL     1       4.340  26.549  50.045  1.00  0.00     0.252 C 
HETATM   38  N   UNL     1       3.617  27.689  49.757  1.00  0.00    -0.352 N 
HETATM   39  H   UNL     1       3.456  28.362  50.495  1.00  0.00     0.163 HD
HETATM   40  O   UNL     1       4.376  25.561  49.321  1.00  0.00    -0.268 OA
BRANCH  38  41
HETATM   41  C   UNL     1       2.730  27.753  48.599  1.00  0.00     0.084 C 
HETATM   42  C   UNL     1       1.420  28.472  48.951  1.00  0.00     0.025 C 
HETATM   43  C   UNL     1       1.620  29.971  49.175  1.00  0.00     0.002 C 
HETATM   44  C   UNL     1       2.302  30.630  47.981  1.00  0.00     0.000 C 
HETATM   45  C   UNL     1       3.612  29.939  47.618  1.00  0.00     0.002 C 
HETATM   46  C   UNL     1       3.430  28.434  47.416  1.00  0.00     0.025 C 
ENDBRANCH  38  41
ENDBRANCH  11  37
TORSDOF 7
ENDMDL
