MODEL 1
REMARK VINA RESULT:      -8.5      0.000      0.000
REMARK  2 active torsions:
REMARK  status: ('A' for Active; 'I' for Inactive)
REMARK    1  A    between atoms: C_2  and  C_3 
REMARK    2  A    between atoms: C_6  and  C_7 
ROOT
HETATM    1  C   UNL     1       5.715  25.830  55.009  1.00  0.00     0.119 C 
HETATM    2  S   UNL     1       6.113  26.554  56.614  1.00  0.00    -0.141 SA
HETATM    3  C   UNL     1       7.522  27.600  56.156  1.00  0.00     0.136 C 
HETATM    4  C   UNL     1       8.452  27.726  57.360  1.00  0.00     0.031 C 
HETATM    5  C   UNL     1       7.008  28.952  55.726  1.00  0.00     0.236 C 
HETATM    6  O   UNL     1       7.287  30.015  56.264  1.00  0.00    -0.272 OA
HETATM    7  N   UNL     1       6.216  29.103  54.549  1.00  0.00    -0.311 N 
HETATM    8  C   UNL     1       5.727  28.131  53.699  1.00  0.00     0.134 A 
HETATM    9  C   UNL     1       5.543  26.764  53.849  1.00  0.00     0.032 A 
HETATM   10  N   UNL     1       5.252  28.443  52.450  1.00  0.00    -0.262 N 
HETATM   11  H   UNL     1       5.208  29.354  52.005  1.00  0.00     0.191 HD
HETATM   12  N   UNL     1       4.836  27.394  51.744  1.00  0.00    -0.178 NA
HETATM   13  C   UNL     1       4.976  26.366  52.582  1.00  0.00     0.062 A 
HETATM   14  C   UNL     1       4.552  25.009  52.133  1.00  0.00     0.073 C 
HETATM   15  H   UNL     1       6.051  30.080  54.324  1.00  0.00     0.170 HD
ENDROOT
BRANCH   1  16
HETATM   16  C   UNL     1       6.658  24.698  54.621  1.00  0.00    -0.040 A 
HETATM   17  C   UNL     1       6.733  23.578  55.473  1.00  0.00     0.009 A 
HETATM   18  C   UNL     1       7.556  22.490  55.173  1.00  0.00     0.007 A 
HETATM   19  C   UNL     1       8.344  22.495  54.020  1.00  0.00    -0.059 A 
HETATM   20  C   UNL     1       8.294  23.609  53.175  1.00  0.00     0.007 A 
HETATM   21  C   UNL     1       7.464  24.696  53.471  1.00  0.00     0.009 A 
BRANCH  19  22
HETATM   22  C   UNL     1       9.216  21.312  53.683  1.00  0.00     0.034 C 
HETATM   23  C   UNL     1       8.480  20.281  52.838  1.00  0.00     0.010 C 
ENDBRANCH  19  22
ENDBRANCH   1  16
TORSDOF 2
ENDMDL
MODEL 2
REMARK VINA RESULT:      -8.4      2.747      5.444
REMARK  2 active torsions:
REMARK  status: ('A' for Active; 'I' for Inactive)
REMARK    1  A    between atoms: C_2  and  C_3 
REMARK    2  A    between atoms: C_6  and  C_7 
ROOT
HETATM    1  C   UNL     1       5.539  27.322  55.908  1.00  0.00     0.119 C 
HETATM    2  S   UNL     1       4.192  28.518  55.791  1.00  0.00    -0.141 SA
HETATM    3  C   UNL     1       4.416  29.089  54.084  1.00  0.00     0.136 C 
HETATM    4  C   UNL     1       3.929  30.532  53.982  1.00  0.00     0.031 C 
HETATM    5  C   UNL     1       3.634  28.188  53.160  1.00  0.00     0.236 C 
HETATM    6  O   UNL     1       2.725  28.551  52.425  1.00  0.00    -0.272 OA
HETATM    7  N   UNL     1       3.985  26.816  52.992  1.00  0.00    -0.311 N 
HETATM    8  C   UNL     1       4.955  26.080  53.644  1.00  0.00     0.134 A 
HETATM    9  C   UNL     1       5.642  26.283  54.832  1.00  0.00     0.032 A 
HETATM   10  N   UNL     1       5.383  24.869  53.161  1.00  0.00    -0.262 N 
HETATM   11  H   UNL     1       5.082  24.388  52.319  1.00  0.00     0.191 HD
HETATM   12  N   UNL     1       6.336  24.294  53.889  1.00  0.00    -0.178 NA
HETATM   13  C   UNL     1       6.492  25.119  54.926  1.00  0.00     0.062 A 
HETATM   14  C   UNL     1       7.467  24.757  55.993  1.00  0.00     0.073 C 
HETATM   15  H   UNL     1       3.449  26.373  52.251  1.00  0.00     0.170 HD
ENDROOT
BRANCH   1  16
HETATM   16  C   UNL     1       6.897  27.980  56.118  1.00  0.00    -0.040 A 
HETATM   17  C   UNL     1       7.347  28.161  57.441  1.00  0.00     0.009 A 
HETATM   18  C   UNL     1       8.591  28.735  57.714  1.00  0.00     0.007 A 
HETATM   19  C   UNL     1       9.417  29.162  56.672  1.00  0.00    -0.059 A 
HETATM   20  C   UNL     1       8.975  29.005  55.354  1.00  0.00     0.007 A 
HETATM   21  C   UNL     1       7.732  28.423  55.080  1.00  0.00     0.009 A 
BRANCH  19  22
HETATM   22  C   UNL     1      10.771  29.760  56.964  1.00  0.00     0.034 C 
HETATM   23  C   UNL     1      10.668  31.030  57.797  1.00  0.00     0.010 C 
ENDBRANCH  19  22
ENDBRANCH   1  16
TORSDOF 2
ENDMDL
MODEL 3
REMARK VINA RESULT:      -8.3      2.813      5.560
REMARK  2 active torsions:
REMARK  status: ('A' for Active; 'I' for Inactive)
REMARK    1  A    between atoms: C_2  and  C_3 
REMARK    2  A    between atoms: C_6  and  C_7 
ROOT
HETATM    1  C   UNL     1       5.991  26.566  54.369  1.00  0.00     0.119 C 
HETATM    2  S   UNL     1       4.678  27.505  53.560  1.00  0.00    -0.141 SA
HETATM    3  C   UNL     1       5.596  28.205  52.161  1.00  0.00     0.136 C 
HETATM    4  C   UNL     1       4.964  29.540  51.778  1.00  0.00     0.031 C 
HETATM    5  C   UNL     1       5.545  27.232  51.008  1.00  0.00     0.236 C 
HETATM    6  O   UNL     1       5.061  27.467  49.909  1.00  0.00    -0.272 OA
HETATM    7  N   UNL     1       6.180  25.957  51.087  1.00  0.00    -0.311 N 
HETATM    8  C   UNL     1       6.825  25.371  52.158  1.00  0.00     0.134 A 
HETATM    9  C   UNL     1       6.794  25.625  53.522  1.00  0.00     0.032 A 
HETATM   10  N   UNL     1       7.649  24.286  51.993  1.00  0.00    -0.262 N 
HETATM   11  H   UNL     1       7.892  23.808  51.132  1.00  0.00     0.191 HD
HETATM   12  N   UNL     1       8.213  23.851  53.117  1.00  0.00    -0.178 NA
HETATM   13  C   UNL     1       7.689  24.630  54.064  1.00  0.00     0.062 A 
HETATM   14  C   UNL     1       8.067  24.388  55.485  1.00  0.00     0.073 C 
HETATM   15  H   UNL     1       6.165  25.469  50.196  1.00  0.00     0.170 HD
ENDROOT
BRANCH   1  16
HETATM   16  C   UNL     1       6.926  27.444  55.191  1.00  0.00    -0.040 A 
HETATM   17  C   UNL     1       6.753  27.466  56.589  1.00  0.00     0.009 A 
HETATM   18  C   UNL     1       7.586  28.228  57.412  1.00  0.00     0.007 A 
HETATM   19  C   UNL     1       8.607  29.005  56.861  1.00  0.00    -0.059 A 
HETATM   20  C   UNL     1       8.778  29.007  55.472  1.00  0.00     0.007 A 
HETATM   21  C   UNL     1       7.949  28.238  54.648  1.00  0.00     0.009 A 
BRANCH  19  22
HETATM   22  C   UNL     1       9.522  29.809  57.751  1.00  0.00     0.034 C 
HETATM   23  C   UNL     1      10.921  29.937  57.166  1.00  0.00     0.010 C 
ENDBRANCH  19  22
ENDBRANCH   1  16
TORSDOF 2
ENDMDL
MODEL 4
REMARK VINA RESULT:      -7.9     10.426     13.770
REMARK  2 active torsions:
REMARK  status: ('A' for Active; 'I' for Inactive)
REMARK    1  A    between atoms: C_2  and  C_3 
REMARK    2  A    between atoms: C_6  and  C_7 
ROOT
HETATM    1  C   UNL     1       4.461  34.137  63.506  1.00  0.00     0.119 C 
HETATM    2  S   UNL     1       2.802  33.992  62.808  1.00  0.00    -0.141 SA
HETATM    3  C   UNL     1       3.196  33.994  61.037  1.00  0.00     0.136 C 
HETATM    4  C   UNL     1       2.021  34.601  60.274  1.00  0.00     0.031 C 
HETATM    5  C   UNL     1       3.455  32.576  60.593  1.00  0.00     0.236 C 
HETATM    6  O   UNL     1       2.814  31.977  59.740  1.00  0.00    -0.272 OA
HETATM    7  N   UNL     1       4.577  31.841  61.078  1.00  0.00    -0.311 N 
HETATM    8  C   UNL     1       5.510  32.205  62.029  1.00  0.00     0.134 A 
HETATM    9  C   UNL     1       5.504  33.174  63.022  1.00  0.00     0.032 A 
HETATM   10  N   UNL     1       6.699  31.532  62.163  1.00  0.00    -0.262 N 
HETATM   11  H   UNL     1       7.038  30.745  61.619  1.00  0.00     0.191 HD
HETATM   12  N   UNL     1       7.499  32.017  63.108  1.00  0.00    -0.178 NA
HETATM   13  C   UNL     1       6.786  32.997  63.664  1.00  0.00     0.062 A 
HETATM   14  C   UNL     1       7.365  33.745  64.816  1.00  0.00     0.073 C 
HETATM   15  H   UNL     1       4.687  30.953  60.598  1.00  0.00     0.170 HD
ENDROOT
BRANCH   1  16
HETATM   16  C   UNL     1       5.007  35.558  63.446  1.00  0.00    -0.040 A 
HETATM   17  C   UNL     1       4.825  36.383  64.574  1.00  0.00     0.009 A 
HETATM   18  C   UNL     1       5.317  37.690  64.604  1.00  0.00     0.007 A 
HETATM   19  C   UNL     1       5.991  38.219  63.501  1.00  0.00    -0.059 A 
HETATM   20  C   UNL     1       6.161  37.417  62.368  1.00  0.00     0.007 A 
HETATM   21  C   UNL     1       5.676  36.105  62.340  1.00  0.00     0.009 A 
BRANCH  19  22
HETATM   22  C   UNL     1       6.543  39.622  63.541  1.00  0.00     0.034 C 
HETATM   23  C   UNL     1       7.366  39.949  62.303  1.00  0.00     0.010 C 
ENDBRANCH  19  22
ENDBRANCH   1  16
TORSDOF 2
ENDMDL
MODEL 5
REMARK VINA RESULT:      -7.9      2.288      3.768
REMARK  2 active torsions:
REMARK  status: ('A' for Active; 'I' for Inactive)
REMARK    1  A    between atoms: C_2  and  C_3 
REMARK    2  A    between atoms: C_6  and  C_7 
ROOT
HETATM    1  C   UNL     1       7.074  26.359  54.243  1.00  0.00     0.119 C 
HETATM    2  S   UNL     1       6.793  27.218  52.680  1.00  0.00    -0.141 SA
HETATM    3  C   UNL     1       5.072  26.744  52.356  1.00  0.00     0.136 C 
HETATM    4  C   UNL     1       4.848  26.711  50.847  1.00  0.00     0.031 C 
HETATM    5  C   UNL     1       4.157  27.746  53.017  1.00  0.00     0.236 C 
HETATM    6  O   UNL     1       3.343  28.448  52.433  1.00  0.00    -0.272 OA
HETATM    7  N   UNL     1       4.099  27.872  54.436  1.00  0.00    -0.311 N 
HETATM    8  C   UNL     1       4.858  27.235  55.398  1.00  0.00     0.134 A 
HETATM    9  C   UNL     1       6.074  26.569  55.341  1.00  0.00     0.032 A 
HETATM   10  N   UNL     1       4.480  27.221  56.718  1.00  0.00    -0.262 N 
HETATM   11  H   UNL     1       3.652  27.631  57.137  1.00  0.00     0.191 HD
HETATM   12  N   UNL     1       5.305  26.549  57.517  1.00  0.00    -0.178 NA
HETATM   13  C   UNL     1       6.296  26.167  56.709  1.00  0.00     0.062 A 
HETATM   14  C   UNL     1       7.446  25.416  57.288  1.00  0.00     0.073 C 
HETATM   15  H   UNL     1       3.353  28.495  54.733  1.00  0.00     0.170 HD
ENDROOT
BRANCH   1  16
HETATM   16  C   UNL     1       7.331  24.869  54.062  1.00  0.00    -0.040 A 
HETATM   17  C   UNL     1       7.875  24.436  52.836  1.00  0.00     0.009 A 
HETATM   18  C   UNL     1       8.161  23.089  52.603  1.00  0.00     0.007 A 
HETATM   19  C   UNL     1       7.895  22.129  53.582  1.00  0.00    -0.059 A 
HETATM   20  C   UNL     1       7.337  22.543  54.796  1.00  0.00     0.007 A 
HETATM   21  C   UNL     1       7.058  23.893  55.034  1.00  0.00     0.009 A 
BRANCH  19  22
HETATM   22  C   UNL     1       8.225  20.677  53.340  1.00  0.00     0.034 C 
HETATM   23  C   UNL     1       8.749  19.993  54.595  1.00  0.00     0.010 C 
ENDBRANCH  19  22
ENDBRANCH   1  16
TORSDOF 2
ENDMDL
MODEL 6
REMARK VINA RESULT:      -7.6      3.493      5.443
REMARK  2 active torsions:
REMARK  status: ('A' for Active; 'I' for Inactive)
REMARK    1  A    between atoms: C_2  and  C_3 
REMARK    2  A    between atoms: C_6  and  C_7 
ROOT
HETATM    1  C   UNL     1       6.758  29.908  56.142  1.00  0.00     0.119 C 
HETATM    2  S   UNL     1       5.243  30.788  55.706  1.00  0.00    -0.141 SA
HETATM    3  C   UNL     1       4.143  30.210  57.028  1.00  0.00     0.136 C 
HETATM    4  C   UNL     1       2.709  30.201  56.505  1.00  0.00     0.031 C 
HETATM    5  C   UNL     1       4.280  31.131  58.215  1.00  0.00     0.236 C 
HETATM    6  O   UNL     1       3.373  31.793  58.701  1.00  0.00    -0.272 OA
HETATM    7  N   UNL     1       5.499  31.216  58.950  1.00  0.00    -0.311 N 
HETATM    8  C   UNL     1       6.712  30.606  58.696  1.00  0.00     0.134 A 
HETATM    9  C   UNL     1       7.246  30.024  57.556  1.00  0.00     0.032 A 
HETATM   10  N   UNL     1       7.693  30.533  59.654  1.00  0.00    -0.262 N 
HETATM   11  H   UNL     1       7.664  30.877  60.608  1.00  0.00     0.191 HD
HETATM   12  N   UNL     1       8.794  29.896  59.263  1.00  0.00    -0.178 NA
HETATM   13  C   UNL     1       8.558  29.601  57.983  1.00  0.00     0.062 A 
HETATM   14  C   UNL     1       9.621  28.912  57.197  1.00  0.00     0.073 C 
HETATM   15  H   UNL     1       5.400  31.781  59.788  1.00  0.00     0.170 HD
ENDROOT
BRANCH   1  16
HETATM   16  C   UNL     1       6.734  28.444  55.725  1.00  0.00    -0.040 A 
HETATM   17  C   UNL     1       7.318  28.097  54.491  1.00  0.00     0.009 A 
HETATM   18  C   UNL     1       7.356  26.772  54.051  1.00  0.00     0.007 A 
HETATM   19  C   UNL     1       6.794  25.753  54.823  1.00  0.00    -0.059 A 
HETATM   20  C   UNL     1       6.193  26.086  56.042  1.00  0.00     0.007 A 
HETATM   21  C   UNL     1       6.162  27.412  56.487  1.00  0.00     0.009 A 
BRANCH  19  22
HETATM   22  C   UNL     1       6.854  24.319  54.360  1.00  0.00     0.034 C 
HETATM   23  C   UNL     1       7.518  24.185  52.997  1.00  0.00     0.010 C 
ENDBRANCH  19  22
ENDBRANCH   1  16
TORSDOF 2
ENDMDL
MODEL 7
REMARK VINA RESULT:      -7.6      1.918      2.688
REMARK  2 active torsions:
REMARK  status: ('A' for Active; 'I' for Inactive)
REMARK    1  A    between atoms: C_2  and  C_3 
REMARK    2  A    between atoms: C_6  and  C_7 
ROOT
HETATM    1  C   UNL     1       4.961  27.940  55.586  1.00  0.00     0.119 C 
HETATM    2  S   UNL     1       5.547  28.122  57.284  1.00  0.00    -0.141 SA
HETATM    3  C   UNL     1       6.958  29.232  57.022  1.00  0.00     0.136 C 
HETATM    4  C   UNL     1       8.003  28.959  58.100  1.00  0.00     0.031 C 
HETATM    5  C   UNL     1       6.474  30.660  57.086  1.00  0.00     0.236 C 
HETATM    6  O   UNL     1       6.856  31.497  57.891  1.00  0.00    -0.272 OA
HETATM    7  N   UNL     1       5.582  31.184  56.104  1.00  0.00    -0.311 N 
HETATM    8  C   UNL     1       4.965  30.534  55.053  1.00  0.00     0.134 A 
HETATM    9  C   UNL     1       4.726  29.192  54.795  1.00  0.00     0.032 A 
HETATM   10  N   UNL     1       4.389  31.228  54.019  1.00  0.00    -0.262 N 
HETATM   11  H   UNL     1       4.349  32.232  53.883  1.00  0.00     0.191 HD
HETATM   12  N   UNL     1       3.855  30.459  53.074  1.00  0.00    -0.178 NA
HETATM   13  C   UNL     1       4.022  29.218  53.534  1.00  0.00     0.062 A 
HETATM   14  C   UNL     1       3.488  28.077  52.738  1.00  0.00     0.073 C 
HETATM   15  H   UNL     1       5.446  32.185  56.209  1.00  0.00     0.170 HD
ENDROOT
BRANCH   1  16
HETATM   16  C   UNL     1       5.803  26.967  54.770  1.00  0.00    -0.040 A 
HETATM   17  C   UNL     1       5.427  25.610  54.766  1.00  0.00     0.009 A 
HETATM   18  C   UNL     1       6.135  24.661  54.024  1.00  0.00     0.007 A 
HETATM   19  C   UNL     1       7.253  25.038  53.277  1.00  0.00    -0.059 A 
HETATM   20  C   UNL     1       7.650  26.380  53.288  1.00  0.00     0.007 A 
HETATM   21  C   UNL     1       6.936  27.332  54.024  1.00  0.00     0.009 A 
BRANCH  19  22
HETATM   22  C   UNL     1       8.005  24.020  52.456  1.00  0.00     0.034 C 
HETATM   23  C   UNL     1       7.887  22.618  53.036  1.00  0.00     0.010 C 
ENDBRANCH  19  22
ENDBRANCH   1  16
TORSDOF 2
ENDMDL
MODEL 8
REMARK VINA RESULT:      -7.3     15.233     18.216
REMARK  2 active torsions:
REMARK  status: ('A' for Active; 'I' for Inactive)
REMARK    1  A    between atoms: C_2  and  C_3 
REMARK    2  A    between atoms: C_6  and  C_7 
ROOT
HETATM    1  C   UNL     1      14.584   9.450  52.488  1.00  0.00     0.119 C 
HETATM    2  S   UNL     1      12.878  10.037  52.437  1.00  0.00    -0.141 SA
HETATM    3  C   UNL     1      13.153  11.796  52.086  1.00  0.00     0.136 C 
HETATM    4  C   UNL     1      12.009  12.602  52.696  1.00  0.00     0.031 C 
HETATM    5  C   UNL     1      13.215  11.992  50.591  1.00  0.00     0.236 C 
HETATM    6  O   UNL     1      12.454  12.696  49.941  1.00  0.00    -0.272 OA
HETATM    7  N   UNL     1      14.273  11.434  49.815  1.00  0.00    -0.311 N 
HETATM    8  C   UNL     1      15.302  10.604  50.215  1.00  0.00     0.134 A 
HETATM    9  C   UNL     1      15.474   9.800  51.333  1.00  0.00     0.032 A 
HETATM   10  N   UNL     1      16.410  10.405  49.430  1.00  0.00    -0.262 N 
HETATM   11  H   UNL     1      16.619  10.814  48.526  1.00  0.00     0.191 HD
HETATM   12  N   UNL     1      17.321   9.596  49.964  1.00  0.00    -0.178 NA
HETATM   13  C   UNL     1      16.765   9.193  51.108  1.00  0.00     0.062 A 
HETATM   14  C   UNL     1      17.501   8.219  51.962  1.00  0.00     0.073 C 
HETATM   15  H   UNL     1      14.247  11.752  48.850  1.00  0.00     0.170 HD
ENDROOT
BRANCH   1  16
HETATM   16  C   UNL     1      15.287   9.785  53.797  1.00  0.00    -0.040 A 
HETATM   17  C   UNL     1      15.167   8.873  54.864  1.00  0.00     0.009 A 
HETATM   18  C   UNL     1      15.801   9.098  56.088  1.00  0.00     0.007 A 
HETATM   19  C   UNL     1      16.561  10.252  56.290  1.00  0.00    -0.059 A 
HETATM   20  C   UNL     1      16.672  11.176  55.245  1.00  0.00     0.007 A 
HETATM   21  C   UNL     1      16.044  10.947  54.016  1.00  0.00     0.009 A 
BRANCH  19  22
HETATM   22  C   UNL     1      17.265  10.485  57.603  1.00  0.00     0.034 C 
HETATM   23  C   UNL     1      17.189   9.271  58.517  1.00  0.00     0.010 C 
ENDBRANCH  19  22
ENDBRANCH   1  16
TORSDOF 2
ENDMDL
MODEL 9
REMARK VINA RESULT:      -7.0      4.053      7.104
REMARK  2 active torsions:
REMARK  status: ('A' for Active; 'I' for Inactive)
REMARK    1  A    between atoms: C_2  and  C_3 
REMARK    2  A    between atoms: C_6  and  C_7 
ROOT
HETATM    1  C   UNL     1       7.111  29.211  56.246  1.00  0.00     0.119 C 
HETATM    2  S   UNL     1       7.770  27.561  55.924  1.00  0.00    -0.141 SA
HETATM    3  C   UNL     1       7.044  26.647  57.312  1.00  0.00     0.136 C 
HETATM    4  C   UNL     1       7.975  25.496  57.683  1.00  0.00     0.031 C 
HETATM    5  C   UNL     1       5.686  26.133  56.902  1.00  0.00     0.236 C 
HETATM    6  O   UNL     1       5.361  24.954  56.861  1.00  0.00    -0.272 OA
HETATM    7  N   UNL     1       4.609  27.027  56.625  1.00  0.00    -0.311 N 
HETATM    8  C   UNL     1       4.611  28.407  56.587  1.00  0.00     0.134 A 
HETATM    9  C   UNL     1       5.634  29.338  56.468  1.00  0.00     0.032 A 
HETATM   10  N   UNL     1       3.444  29.128  56.616  1.00  0.00    -0.262 N 
HETATM   11  H   UNL     1       2.493  28.779  56.677  1.00  0.00     0.191 HD
HETATM   12  N   UNL     1       3.614  30.448  56.595  1.00  0.00    -0.178 NA
HETATM   13  C   UNL     1       4.934  30.601  56.477  1.00  0.00     0.062 A 
HETATM   14  C   UNL     1       5.492  31.979  56.373  1.00  0.00     0.073 C 
HETATM   15  H   UNL     1       3.732  26.534  56.483  1.00  0.00     0.170 HD
ENDROOT
BRANCH   1  16
HETATM   16  C   UNL     1       7.861  29.942  57.352  1.00  0.00    -0.040 A 
HETATM   17  C   UNL     1       7.174  30.207  58.554  1.00  0.00     0.009 A 
HETATM   18  C   UNL     1       7.801  30.852  59.623  1.00  0.00     0.007 A 
HETATM   19  C   UNL     1       9.129  31.269  59.517  1.00  0.00    -0.059 A 
HETATM   20  C   UNL     1       9.817  31.030  58.322  1.00  0.00     0.007 A 
HETATM   21  C   UNL     1       9.193  30.377  57.254  1.00  0.00     0.009 A 
BRANCH  19  22
HETATM   22  C   UNL     1       9.815  31.945  60.678  1.00  0.00     0.034 C 
HETATM   23  C   UNL     1       8.966  31.912  61.941  1.00  0.00     0.010 C 
ENDBRANCH  19  22
ENDBRANCH   1  16
TORSDOF 2
ENDMDL
MODEL 10
REMARK VINA RESULT:      -7.0      3.097      5.801
REMARK  2 active torsions:
REMARK  status: ('A' for Active; 'I' for Inactive)
REMARK    1  A    between atoms: C_2  and  C_3 
REMARK    2  A    between atoms: C_6  and  C_7 
ROOT
HETATM    1  C   UNL     1       5.558  27.323  56.030  1.00  0.00     0.119 C 
HETATM    2  S   UNL     1       5.504  25.526  56.195  1.00  0.00    -0.141 SA
HETATM    3  C   UNL     1       7.150  25.095  55.565  1.00  0.00     0.136 C 
HETATM    4  C   UNL     1       7.086  23.707  54.934  1.00  0.00     0.031 C 
HETATM    5  C   UNL     1       8.134  25.123  56.709  1.00  0.00     0.236 C 
HETATM    6  O   UNL     1       8.795  24.168  57.094  1.00  0.00    -0.272 OA
HETATM    7  N   UNL     1       8.455  26.341  57.380  1.00  0.00    -0.311 N 
HETATM    8  C   UNL     1       7.917  27.600  57.202  1.00  0.00     0.134 A 
HETATM    9  C   UNL     1       6.739  28.039  56.615  1.00  0.00     0.032 A 
HETATM   10  N   UNL     1       8.537  28.722  57.692  1.00  0.00    -0.262 N 
HETATM   11  H   UNL     1       9.413  28.781  58.202  1.00  0.00     0.191 HD
HETATM   12  N   UNL     1       7.906  29.860  57.420  1.00  0.00    -0.178 NA
HETATM   13  C   UNL     1       6.796  29.471  56.790  1.00  0.00     0.062 A 
HETATM   14  C   UNL     1       5.806  30.505  56.372  1.00  0.00     0.073 C 
HETATM   15  H   UNL     1       9.218  26.222  58.040  1.00  0.00     0.170 HD
ENDROOT
BRANCH   1  16
HETATM   16  C   UNL     1       5.330  27.793  54.599  1.00  0.00    -0.040 A 
HETATM   17  C   UNL     1       4.024  28.168  54.227  1.00  0.00     0.009 A 
HETATM   18  C   UNL     1       3.739  28.632  52.940  1.00  0.00     0.007 A 
HETATM   19  C   UNL     1       4.749  28.718  51.980  1.00  0.00    -0.059 A 
HETATM   20  C   UNL     1       6.047  28.330  52.330  1.00  0.00     0.007 A 
HETATM   21  C   UNL     1       6.334  27.874  53.621  1.00  0.00     0.009 A 
BRANCH  19  22
HETATM   22  C   UNL     1       4.449  29.241  50.597  1.00  0.00     0.034 C 
HETATM   23  C   UNL     1       5.570  30.119  50.061  1.00  0.00     0.010 C 
ENDBRANCH  19  22
ENDBRANCH   1  16
TORSDOF 2
ENDMDL
