MODEL 1
REMARK VINA RESULT:      -9.6      0.000      0.000
REMARK  6 active torsions:
REMARK  status: ('A' for Active; 'I' for Inactive)
REMARK    1  A    between atoms: C_7  and  C_8 
REMARK    2  A    between atoms: N_9  and  N_10 
REMARK       I    between atoms: N_10  and  C_11 
REMARK    3  A    between atoms: C_11  and  C_12 
REMARK    4  A    between atoms: C_12  and  N_13 
REMARK       I    between atoms: N_13  and  C_14 
REMARK    5  A    between atoms: C_14  and  C_15 
REMARK    6  A    between atoms: C_15  and  C_16 
ROOT
HETATM    1  N   UNL     1       6.468  26.738  56.487  1.00  0.00    -0.246 N 
HETATM    2  C   UNL     1       5.627  27.794  56.192  1.00  0.00     0.255 C 
HETATM    3  O   UNL     1       4.871  27.850  55.221  1.00  0.00    -0.270 OA
HETATM    4  H   UNL     1       6.917  26.714  57.407  1.00  0.00     0.192 HD
ENDROOT
BRANCH   1   5
HETATM    5  N   UNL     1       6.445  25.599  55.729  1.00  0.00    -0.184 NA
HETATM    6  C   UNL     1       7.592  25.262  55.234  1.00  0.00     0.153 C 
BRANCH   6   7
HETATM    7  C   UNL     1       7.738  24.036  54.472  1.00  0.00     0.018 A 
HETATM    8  C   UNL     1       7.724  23.984  53.084  1.00  0.00     0.018 A 
HETATM    9  C   UNL     1       7.540  25.055  52.070  1.00  0.00     0.069 C 
HETATM   10  N   UNL     1       7.922  22.677  52.713  1.00  0.00    -0.358 N 
HETATM   11  H   UNL     1       7.962  22.340  51.761  1.00  0.00     0.166 HD
HETATM   12  C   UNL     1       8.069  21.875  53.818  1.00  0.00     0.043 A 
HETATM   13  C   UNL     1       7.945  22.695  54.940  1.00  0.00     0.004 A 
HETATM   14  C   UNL     1       8.304  20.497  53.902  1.00  0.00     0.030 A 
HETATM   15  C   UNL     1       8.059  22.096  56.215  1.00  0.00     0.014 A 
HETATM   16  C   UNL     1       8.293  20.719  56.317  1.00  0.00     0.001 A 
HETATM   17  C   UNL     1       8.416  19.933  55.175  1.00  0.00     0.002 A 
ENDBRANCH   6   7
ENDBRANCH   1   5
BRANCH   2  18
HETATM   18  C   UNL     1       5.554  28.852  57.300  1.00  0.00     0.227 C 
BRANCH  18  19
HETATM   19  N   UNL     1       6.647  29.814  57.404  1.00  0.00    -0.352 N 
HETATM   20  C   UNL     1       7.784  29.565  58.139  1.00  0.00     0.222 C 
HETATM   21  O   UNL     1       8.092  28.427  58.489  1.00  0.00    -0.273 OA
HETATM   22  H   UNL     1       6.450  30.764  57.119  1.00  0.00     0.162 HD
BRANCH  20  23
HETATM   23  C   UNL     1       8.627  30.785  58.455  1.00  0.00     0.141 C 
BRANCH  23  24
HETATM   24  C   UNL     1       8.476  31.267  59.873  1.00  0.00    -0.050 A 
HETATM   25  C   UNL     1       7.619  32.334  60.177  1.00  0.00     0.007 A 
HETATM   26  C   UNL     1       7.462  32.761  61.496  1.00  0.00     0.001 A 
HETATM   27  C   UNL     1       8.163  32.132  62.523  1.00  0.00     0.000 A 
HETATM   28  C   UNL     1       9.028  31.079  62.231  1.00  0.00     0.001 A 
HETATM   29  C   UNL     1       9.188  30.650  60.912  1.00  0.00     0.007 A 
ENDBRANCH  23  24
ENDBRANCH  20  23
ENDBRANCH  18  19
ENDBRANCH   2  18
TORSDOF 6
ENDMDL
MODEL 2
REMARK VINA RESULT:      -9.5      1.439      1.817
REMARK  6 active torsions:
REMARK  status: ('A' for Active; 'I' for Inactive)
REMARK    1  A    between atoms: C_7  and  C_8 
REMARK    2  A    between atoms: N_9  and  N_10 
REMARK       I    between atoms: N_10  and  C_11 
REMARK    3  A    between atoms: C_11  and  C_12 
REMARK    4  A    between atoms: C_12  and  N_13 
REMARK       I    between atoms: N_13  and  C_14 
REMARK    5  A    between atoms: C_14  and  C_15 
REMARK    6  A    between atoms: C_15  and  C_16 
ROOT
HETATM    1  N   UNL     1       7.428  26.790  57.236  1.00  0.00    -0.246 N 
HETATM    2  C   UNL     1       8.169  27.949  57.364  1.00  0.00     0.255 C 
HETATM    3  O   UNL     1       9.325  28.099  56.968  1.00  0.00    -0.270 OA
HETATM    4  H   UNL     1       6.425  26.828  57.436  1.00  0.00     0.192 HD
ENDROOT
BRANCH   1   5
HETATM    5  N   UNL     1       7.928  25.718  56.548  1.00  0.00    -0.184 NA
HETATM    6  C   UNL     1       7.156  25.275  55.610  1.00  0.00     0.153 C 
BRANCH   6   7
HETATM    7  C   UNL     1       7.586  24.191  54.746  1.00  0.00     0.018 A 
HETATM    8  C   UNL     1       7.828  24.339  53.385  1.00  0.00     0.018 A 
HETATM    9  C   UNL     1       7.700  25.522  52.495  1.00  0.00     0.069 C 
HETATM   10  N   UNL     1       8.248  23.125  52.903  1.00  0.00    -0.358 N 
HETATM   11  H   UNL     1       8.500  22.933  51.943  1.00  0.00     0.166 HD
HETATM   12  C   UNL     1       8.291  22.190  53.908  1.00  0.00     0.043 A 
HETATM   13  C   UNL     1       7.868  22.824  55.077  1.00  0.00     0.004 A 
HETATM   14  C   UNL     1       8.674  20.843  53.866  1.00  0.00     0.030 A 
HETATM   15  C   UNL     1       7.823  22.061  56.265  1.00  0.00     0.014 A 
HETATM   16  C   UNL     1       8.202  20.713  56.241  1.00  0.00     0.001 A 
HETATM   17  C   UNL     1       8.623  20.115  55.057  1.00  0.00     0.002 A 
ENDBRANCH   6   7
ENDBRANCH   1   5
BRANCH   2  18
HETATM   18  C   UNL     1       7.360  29.144  57.885  1.00  0.00     0.227 C 
BRANCH  18  19
HETATM   19  N   UNL     1       7.708  29.691  59.193  1.00  0.00    -0.352 N 
HETATM   20  C   UNL     1       8.706  30.623  59.362  1.00  0.00     0.222 C 
HETATM   21  O   UNL     1       9.148  31.278  58.420  1.00  0.00    -0.273 OA
HETATM   22  H   UNL     1       7.360  29.196  60.003  1.00  0.00     0.162 HD
BRANCH  20  23
HETATM   23  C   UNL     1       9.192  30.795  60.789  1.00  0.00     0.141 C 
BRANCH  23  24
HETATM   24  C   UNL     1       8.370  31.770  61.589  1.00  0.00    -0.050 A 
HETATM   25  C   UNL     1       7.462  32.629  60.954  1.00  0.00     0.007 A 
HETATM   26  C   UNL     1       6.684  33.513  61.702  1.00  0.00     0.001 A 
HETATM   27  C   UNL     1       6.810  33.553  63.089  1.00  0.00     0.000 A 
HETATM   28  C   UNL     1       7.718  32.714  63.730  1.00  0.00     0.001 A 
HETATM   29  C   UNL     1       8.499  31.829  62.984  1.00  0.00     0.007 A 
ENDBRANCH  23  24
ENDBRANCH  20  23
ENDBRANCH  18  19
ENDBRANCH   2  18
TORSDOF 6
ENDMDL
MODEL 3
REMARK VINA RESULT:      -9.1      5.536      9.674
REMARK  6 active torsions:
REMARK  status: ('A' for Active; 'I' for Inactive)
REMARK    1  A    between atoms: C_7  and  C_8 
REMARK    2  A    between atoms: N_9  and  N_10 
REMARK       I    between atoms: N_10  and  C_11 
REMARK    3  A    between atoms: C_11  and  C_12 
REMARK    4  A    between atoms: C_12  and  N_13 
REMARK       I    between atoms: N_13  and  C_14 
REMARK    5  A    between atoms: C_14  and  C_15 
REMARK    6  A    between atoms: C_15  and  C_16 
ROOT
HETATM    1  N   UNL     1       6.173  25.798  51.136  1.00  0.00    -0.246 N 
HETATM    2  C   UNL     1       5.349  26.899  51.283  1.00  0.00     0.255 C 
HETATM    3  O   UNL     1       5.108  27.467  52.348  1.00  0.00    -0.270 OA
HETATM    4  H   UNL     1       6.445  25.517  50.191  1.00  0.00     0.192 HD
ENDROOT
BRANCH   1   5
HETATM    5  N   UNL     1       6.872  25.307  52.204  1.00  0.00    -0.184 NA
HETATM    6  C   UNL     1       6.251  24.393  52.876  1.00  0.00     0.153 C 
BRANCH   6   7
HETATM    7  C   UNL     1       6.898  23.724  53.990  1.00  0.00     0.018 A 
HETATM    8  C   UNL     1       6.926  24.231  55.283  1.00  0.00     0.018 A 
HETATM    9  C   UNL     1       6.387  25.496  55.846  1.00  0.00     0.069 C 
HETATM   10  N   UNL     1       7.587  23.323  56.073  1.00  0.00    -0.358 N 
HETATM   11  H   UNL     1       7.757  23.426  57.063  1.00  0.00     0.166 HD
HETATM   12  C   UNL     1       7.988  22.237  55.334  1.00  0.00     0.043 A 
HETATM   13  C   UNL     1       7.582  22.463  54.018  1.00  0.00     0.004 A 
HETATM   14  C   UNL     1       8.670  21.081  55.735  1.00  0.00     0.030 A 
HETATM   15  C   UNL     1       7.883  21.476  53.054  1.00  0.00     0.014 A 
HETATM   16  C   UNL     1       8.565  20.314  53.437  1.00  0.00     0.001 A 
HETATM   17  C   UNL     1       8.950  20.121  54.760  1.00  0.00     0.002 A 
ENDBRANCH   6   7
ENDBRANCH   1   5
BRANCH   2  18
HETATM   18  C   UNL     1       4.886  27.504  49.951  1.00  0.00     0.227 C 
BRANCH  18  19
HETATM   19  N   UNL     1       3.782  26.856  49.249  1.00  0.00    -0.352 N 
HETATM   20  C   UNL     1       3.847  26.526  47.915  1.00  0.00     0.222 C 
HETATM   21  O   UNL     1       4.918  26.465  47.314  1.00  0.00    -0.273 OA
HETATM   22  H   UNL     1       2.879  26.869  49.705  1.00  0.00     0.162 HD
BRANCH  20  23
HETATM   23  C   UNL     1       2.512  26.224  47.260  1.00  0.00     0.141 C 
BRANCH  23  24
HETATM   24  C   UNL     1       1.735  27.457  46.885  1.00  0.00    -0.050 A 
HETATM   25  C   UNL     1       2.321  28.727  46.979  1.00  0.00     0.007 A 
HETATM   26  C   UNL     1       1.605  29.864  46.605  1.00  0.00     0.001 A 
HETATM   27  C   UNL     1       0.297  29.746  46.140  1.00  0.00     0.000 A 
HETATM   28  C   UNL     1      -0.300  28.490  46.055  1.00  0.00     0.001 A 
HETATM   29  C   UNL     1       0.413  27.350  46.429  1.00  0.00     0.007 A 
ENDBRANCH  23  24
ENDBRANCH  20  23
ENDBRANCH  18  19
ENDBRANCH   2  18
TORSDOF 6
ENDMDL
MODEL 4
REMARK VINA RESULT:      -9.0      4.879      8.664
REMARK  6 active torsions:
REMARK  status: ('A' for Active; 'I' for Inactive)
REMARK    1  A    between atoms: C_7  and  C_8 
REMARK    2  A    between atoms: N_9  and  N_10 
REMARK       I    between atoms: N_10  and  C_11 
REMARK    3  A    between atoms: C_11  and  C_12 
REMARK    4  A    between atoms: C_12  and  N_13 
REMARK       I    between atoms: N_13  and  C_14 
REMARK    5  A    between atoms: C_14  and  C_15 
REMARK    6  A    between atoms: C_15  and  C_16 
ROOT
HETATM    1  N   UNL     1       4.747  25.956  52.559  1.00  0.00    -0.246 N 
HETATM    2  C   UNL     1       4.533  27.237  53.032  1.00  0.00     0.255 C 
HETATM    3  O   UNL     1       4.590  27.575  54.214  1.00  0.00    -0.270 OA
HETATM    4  H   UNL     1       4.853  25.820  51.550  1.00  0.00     0.192 HD
ENDROOT
BRANCH   1   5
HETATM    5  N   UNL     1       5.140  24.959  53.409  1.00  0.00    -0.184 NA
HETATM    6  C   UNL     1       6.422  24.816  53.513  1.00  0.00     0.153 C 
BRANCH   6   7
HETATM    7  C   UNL     1       6.988  23.850  54.435  1.00  0.00     0.018 A 
HETATM    8  C   UNL     1       7.022  24.027  55.813  1.00  0.00     0.018 A 
HETATM    9  C   UNL     1       6.564  25.157  56.662  1.00  0.00     0.069 C 
HETATM   10  N   UNL     1       7.593  22.906  56.363  1.00  0.00    -0.358 N 
HETATM   11  H   UNL     1       7.745  22.753  57.350  1.00  0.00     0.166 HD
HETATM   12  C   UNL     1       7.930  22.002  55.386  1.00  0.00     0.043 A 
HETATM   13  C   UNL     1       7.575  22.570  54.161  1.00  0.00     0.004 A 
HETATM   14  C   UNL     1       8.513  20.733  55.499  1.00  0.00     0.030 A 
HETATM   15  C   UNL     1       7.826  21.823  52.988  1.00  0.00     0.014 A 
HETATM   16  C   UNL     1       8.409  20.554  53.083  1.00  0.00     0.001 A 
HETATM   17  C   UNL     1       8.745  20.018  54.322  1.00  0.00     0.002 A 
ENDBRANCH   6   7
ENDBRANCH   1   5
BRANCH   2  18
HETATM   18  C   UNL     1       4.402  28.289  51.923  1.00  0.00     0.227 C 
BRANCH  18  19
HETATM   19  N   UNL     1       4.812  27.918  50.572  1.00  0.00    -0.352 N 
HETATM   20  C   UNL     1       5.441  28.799  49.723  1.00  0.00     0.222 C 
HETATM   21  O   UNL     1       5.972  29.829  50.134  1.00  0.00    -0.273 OA
HETATM   22  H   UNL     1       4.412  27.072  50.188  1.00  0.00     0.162 HD
BRANCH  20  23
HETATM   23  C   UNL     1       5.450  28.391  48.262  1.00  0.00     0.141 C 
BRANCH  23  24
HETATM   24  C   UNL     1       4.136  27.830  47.788  1.00  0.00    -0.050 A 
HETATM   25  C   UNL     1       3.977  26.451  47.592  1.00  0.00     0.007 A 
HETATM   26  C   UNL     1       2.750  25.933  47.178  1.00  0.00     0.001 A 
HETATM   27  C   UNL     1       1.672  26.786  46.949  1.00  0.00     0.000 A 
HETATM   28  C   UNL     1       1.822  28.159  47.128  1.00  0.00     0.001 A 
HETATM   29  C   UNL     1       3.049  28.681  47.541  1.00  0.00     0.007 A 
ENDBRANCH  23  24
ENDBRANCH  20  23
ENDBRANCH  18  19
ENDBRANCH   2  18
TORSDOF 6
ENDMDL
MODEL 5
REMARK VINA RESULT:      -8.9      1.775      9.744
REMARK  6 active torsions:
REMARK  status: ('A' for Active; 'I' for Inactive)
REMARK    1  A    between atoms: C_7  and  C_8 
REMARK    2  A    between atoms: N_9  and  N_10 
REMARK       I    between atoms: N_10  and  C_11 
REMARK    3  A    between atoms: C_11  and  C_12 
REMARK    4  A    between atoms: C_12  and  N_13 
REMARK       I    between atoms: N_13  and  C_14 
REMARK    5  A    between atoms: C_14  and  C_15 
REMARK    6  A    between atoms: C_15  and  C_16 
ROOT
HETATM    1  N   UNL     1       6.011  28.716  56.139  1.00  0.00    -0.246 N 
HETATM    2  C   UNL     1       5.497  27.438  56.028  1.00  0.00     0.255 C 
HETATM    3  O   UNL     1       5.024  26.781  56.956  1.00  0.00    -0.270 OA
HETATM    4  H   UNL     1       6.212  29.237  55.280  1.00  0.00     0.192 HD
ENDROOT
BRANCH   1   5
HETATM    5  N   UNL     1       5.941  29.393  57.326  1.00  0.00    -0.184 NA
HETATM    6  C   UNL     1       6.748  30.400  57.417  1.00  0.00     0.153 C 
BRANCH   6   7
HETATM    7  C   UNL     1       6.733  31.258  58.587  1.00  0.00     0.018 A 
HETATM    8  C   UNL     1       5.796  32.263  58.794  1.00  0.00     0.018 A 
HETATM    9  C   UNL     1       4.666  32.731  57.950  1.00  0.00     0.069 C 
HETATM   10  N   UNL     1       6.065  32.840  60.010  1.00  0.00    -0.358 N 
HETATM   11  H   UNL     1       5.543  33.599  60.425  1.00  0.00     0.166 HD
HETATM   12  C   UNL     1       7.148  32.240  60.604  1.00  0.00     0.043 A 
HETATM   13  C   UNL     1       7.600  31.250  59.730  1.00  0.00     0.004 A 
HETATM   14  C   UNL     1       7.750  32.497  61.842  1.00  0.00     0.030 A 
HETATM   15  C   UNL     1       8.720  30.482  60.121  1.00  0.00     0.014 A 
HETATM   16  C   UNL     1       9.335  30.728  61.355  1.00  0.00     0.001 A 
HETATM   17  C   UNL     1       8.854  31.720  62.203  1.00  0.00     0.002 A 
ENDBRANCH   6   7
ENDBRANCH   1   5
BRANCH   2  18
HETATM   18  C   UNL     1       5.376  26.945  54.580  1.00  0.00     0.227 C 
BRANCH  18  19
HETATM   19  N   UNL     1       6.532  26.285  53.981  1.00  0.00    -0.352 N 
HETATM   20  C   UNL     1       6.446  25.054  53.372  1.00  0.00     0.222 C 
HETATM   21  O   UNL     1       5.367  24.581  53.018  1.00  0.00    -0.273 OA
HETATM   22  H   UNL     1       7.444  26.642  54.231  1.00  0.00     0.162 HD
BRANCH  20  23
HETATM   23  C   UNL     1       7.771  24.350  53.151  1.00  0.00     0.141 C 
BRANCH  23  24
HETATM   24  C   UNL     1       7.821  22.968  53.745  1.00  0.00    -0.050 A 
HETATM   25  C   UNL     1       7.939  21.840  52.922  1.00  0.00     0.007 A 
HETATM   26  C   UNL     1       8.011  20.563  53.479  1.00  0.00     0.001 A 
HETATM   27  C   UNL     1       7.961  20.399  54.861  1.00  0.00     0.000 A 
HETATM   28  C   UNL     1       7.831  21.512  55.689  1.00  0.00     0.001 A 
HETATM   29  C   UNL     1       7.757  22.791  55.135  1.00  0.00     0.007 A 
ENDBRANCH  23  24
ENDBRANCH  20  23
ENDBRANCH  18  19
ENDBRANCH   2  18
TORSDOF 6
ENDMDL
MODEL 6
REMARK VINA RESULT:      -8.8      1.856      9.400
REMARK  6 active torsions:
REMARK  status: ('A' for Active; 'I' for Inactive)
REMARK    1  A    between atoms: C_7  and  C_8 
REMARK    2  A    between atoms: N_9  and  N_10 
REMARK       I    between atoms: N_10  and  C_11 
REMARK    3  A    between atoms: C_11  and  C_12 
REMARK    4  A    between atoms: C_12  and  N_13 
REMARK       I    between atoms: N_13  and  C_14 
REMARK    5  A    between atoms: C_14  and  C_15 
REMARK    6  A    between atoms: C_15  and  C_16 
ROOT
HETATM    1  N   UNL     1       7.163  28.234  55.092  1.00  0.00    -0.246 N 
HETATM    2  C   UNL     1       5.810  27.965  55.008  1.00  0.00     0.255 C 
HETATM    3  O   UNL     1       4.929  28.559  55.629  1.00  0.00    -0.270 OA
HETATM    4  H   UNL     1       7.789  27.806  54.404  1.00  0.00     0.192 HD
ENDROOT
BRANCH   1   5
HETATM    5  N   UNL     1       7.617  29.286  55.840  1.00  0.00    -0.184 NA
HETATM    6  C   UNL     1       8.211  28.947  56.938  1.00  0.00     0.153 C 
BRANCH   6   7
HETATM    7  C   UNL     1       8.812  29.950  57.796  1.00  0.00     0.018 A 
HETATM    8  C   UNL     1      10.167  30.258  57.792  1.00  0.00     0.018 A 
HETATM    9  C   UNL     1      11.294  29.685  57.011  1.00  0.00     0.069 C 
HETATM   10  N   UNL     1      10.368  31.269  58.699  1.00  0.00    -0.358 N 
HETATM   11  H   UNL     1      11.258  31.698  58.906  1.00  0.00     0.166 HD
HETATM   12  C   UNL     1       9.183  31.633  59.291  1.00  0.00     0.043 A 
HETATM   13  C   UNL     1       8.187  30.815  58.756  1.00  0.00     0.004 A 
HETATM   14  C   UNL     1       8.926  32.621  60.250  1.00  0.00     0.030 A 
HETATM   15  C   UNL     1       6.863  30.998  59.214  1.00  0.00     0.014 A 
HETATM   16  C   UNL     1       6.588  31.981  60.173  1.00  0.00     0.001 A 
HETATM   17  C   UNL     1       7.607  32.781  60.680  1.00  0.00     0.002 A 
ENDBRANCH   6   7
ENDBRANCH   1   5
BRANCH   2  18
HETATM   18  C   UNL     1       5.448  26.963  53.904  1.00  0.00     0.227 C 
BRANCH  18  19
HETATM   19  N   UNL     1       6.527  26.183  53.303  1.00  0.00    -0.352 N 
HETATM   20  C   UNL     1       6.331  24.921  52.794  1.00  0.00     0.222 C 
HETATM   21  O   UNL     1       5.208  24.497  52.528  1.00  0.00    -0.273 OA
HETATM   22  H   UNL     1       7.472  26.496  53.483  1.00  0.00     0.162 HD
BRANCH  20  23
HETATM   23  C   UNL     1       7.595  24.114  52.566  1.00  0.00     0.141 C 
BRANCH  23  24
HETATM   24  C   UNL     1       7.694  22.894  53.443  1.00  0.00    -0.050 A 
HETATM   25  C   UNL     1       7.926  21.630  52.884  1.00  0.00     0.007 A 
HETATM   26  C   UNL     1       8.043  20.506  53.703  1.00  0.00     0.001 A 
HETATM   27  C   UNL     1       7.922  20.632  55.085  1.00  0.00     0.000 A 
HETATM   28  C   UNL     1       7.678  21.882  55.651  1.00  0.00     0.001 A 
HETATM   29  C   UNL     1       7.560  23.008  54.834  1.00  0.00     0.007 A 
ENDBRANCH  23  24
ENDBRANCH  20  23
ENDBRANCH  18  19
ENDBRANCH   2  18
TORSDOF 6
ENDMDL
MODEL 7
REMARK VINA RESULT:      -8.7      1.937     10.279
REMARK  6 active torsions:
REMARK  status: ('A' for Active; 'I' for Inactive)
REMARK    1  A    between atoms: C_7  and  C_8 
REMARK    2  A    between atoms: N_9  and  N_10 
REMARK       I    between atoms: N_10  and  C_11 
REMARK    3  A    between atoms: C_11  and  C_12 
REMARK    4  A    between atoms: C_12  and  N_13 
REMARK       I    between atoms: N_13  and  C_14 
REMARK    5  A    between atoms: C_14  and  C_15 
REMARK    6  A    between atoms: C_15  and  C_16 
ROOT
HETATM    1  N   UNL     1       6.971  29.307  57.231  1.00  0.00    -0.246 N 
HETATM    2  C   UNL     1       7.449  28.010  57.231  1.00  0.00     0.255 C 
HETATM    3  O   UNL     1       7.886  27.415  58.216  1.00  0.00    -0.270 OA
HETATM    4  H   UNL     1       6.468  29.641  56.404  1.00  0.00     0.192 HD
ENDROOT
BRANCH   1   5
HETATM    5  N   UNL     1       6.870  30.009  58.400  1.00  0.00    -0.184 NA
HETATM    6  C   UNL     1       6.534  31.250  58.253  1.00  0.00     0.153 C 
BRANCH   6   7
HETATM    7  C   UNL     1       6.313  32.100  59.408  1.00  0.00     0.018 A 
HETATM    8  C   UNL     1       5.287  33.033  59.495  1.00  0.00     0.018 A 
HETATM    9  C   UNL     1       4.237  33.420  58.517  1.00  0.00     0.069 C 
HETATM   10  N   UNL     1       5.363  33.623  60.731  1.00  0.00    -0.358 N 
HETATM   11  H   UNL     1       4.740  34.340  61.075  1.00  0.00     0.166 HD
HETATM   12  C   UNL     1       6.406  33.101  61.456  1.00  0.00     0.043 A 
HETATM   13  C   UNL     1       7.032  32.150  60.648  1.00  0.00     0.004 A 
HETATM   14  C   UNL     1       6.832  33.397  62.757  1.00  0.00     0.030 A 
HETATM   15  C   UNL     1       8.149  31.466  61.176  1.00  0.00     0.014 A 
HETATM   16  C   UNL     1       8.590  31.750  62.475  1.00  0.00     0.001 A 
HETATM   17  C   UNL     1       7.937  32.701  63.253  1.00  0.00     0.002 A 
ENDBRANCH   6   7
ENDBRANCH   1   5
BRANCH   2  18
HETATM   18  C   UNL     1       7.213  27.266  55.909  1.00  0.00     0.227 C 
BRANCH  18  19
HETATM   19  N   UNL     1       7.954  26.031  55.675  1.00  0.00    -0.352 N 
HETATM   20  C   UNL     1       7.554  24.819  56.190  1.00  0.00     0.222 C 
HETATM   21  O   UNL     1       6.411  24.638  56.605  1.00  0.00    -0.273 OA
HETATM   22  H   UNL     1       8.898  26.123  55.323  1.00  0.00     0.162 HD
BRANCH  20  23
HETATM   23  C   UNL     1       8.613  23.733  56.181  1.00  0.00     0.141 C 
BRANCH  23  24
HETATM   24  C   UNL     1       8.362  22.659  55.157  1.00  0.00    -0.050 A 
HETATM   25  C   UNL     1       8.079  22.994  53.826  1.00  0.00     0.007 A 
HETATM   26  C   UNL     1       7.872  21.994  52.875  1.00  0.00     0.001 A 
HETATM   27  C   UNL     1       7.939  20.652  53.245  1.00  0.00     0.000 A 
HETATM   28  C   UNL     1       8.206  20.308  54.568  1.00  0.00     0.001 A 
HETATM   29  C   UNL     1       8.413  21.306  55.522  1.00  0.00     0.007 A 
ENDBRANCH  23  24
ENDBRANCH  20  23
ENDBRANCH  18  19
ENDBRANCH   2  18
TORSDOF 6
ENDMDL
MODEL 8
REMARK VINA RESULT:      -8.5      4.301      8.481
REMARK  6 active torsions:
REMARK  status: ('A' for Active; 'I' for Inactive)
REMARK    1  A    between atoms: C_7  and  C_8 
REMARK    2  A    between atoms: N_9  and  N_10 
REMARK       I    between atoms: N_10  and  C_11 
REMARK    3  A    between atoms: C_11  and  C_12 
REMARK    4  A    between atoms: C_12  and  N_13 
REMARK       I    between atoms: N_13  and  C_14 
REMARK    5  A    between atoms: C_14  and  C_15 
REMARK    6  A    between atoms: C_15  and  C_16 
ROOT
HETATM    1  N   UNL     1       4.526  26.964  53.796  1.00  0.00    -0.246 N 
HETATM    2  C   UNL     1       4.582  28.339  53.923  1.00  0.00     0.255 C 
HETATM    3  O   UNL     1       5.582  28.982  54.242  1.00  0.00    -0.270 OA
HETATM    4  H   UNL     1       3.701  26.548  53.355  1.00  0.00     0.192 HD
ENDROOT
BRANCH   1   5
HETATM    5  N   UNL     1       5.656  26.207  53.939  1.00  0.00    -0.184 NA
HETATM    6  C   UNL     1       5.855  25.762  55.137  1.00  0.00     0.153 C 
BRANCH   6   7
HETATM    7  C   UNL     1       6.972  24.881  55.425  1.00  0.00     0.018 A 
HETATM    8  C   UNL     1       7.725  24.945  56.591  1.00  0.00     0.018 A 
HETATM    9  C   UNL     1       7.639  25.862  57.757  1.00  0.00     0.069 C 
HETATM   10  N   UNL     1       8.666  23.948  56.535  1.00  0.00    -0.358 N 
HETATM   11  H   UNL     1       9.353  23.753  57.250  1.00  0.00     0.166 HD
HETATM   12  C   UNL     1       8.548  23.232  55.369  1.00  0.00     0.043 A 
HETATM   13  C   UNL     1       7.501  23.801  54.642  1.00  0.00     0.004 A 
HETATM   14  C   UNL     1       9.283  22.130  54.913  1.00  0.00     0.030 A 
HETATM   15  C   UNL     1       7.181  23.235  53.388  1.00  0.00     0.014 A 
HETATM   16  C   UNL     1       7.907  22.134  52.917  1.00  0.00     0.001 A 
HETATM   17  C   UNL     1       8.941  21.589  53.671  1.00  0.00     0.002 A 
ENDBRANCH   6   7
ENDBRANCH   1   5
BRANCH   2  18
HETATM   18  C   UNL     1       3.315  29.055  53.437  1.00  0.00     0.227 C 
BRANCH  18  19
HETATM   19  N   UNL     1       2.688  28.583  52.206  1.00  0.00    -0.352 N 
HETATM   20  C   UNL     1       2.670  29.331  51.051  1.00  0.00     0.222 C 
HETATM   21  O   UNL     1       3.430  30.283  50.885  1.00  0.00    -0.273 OA
HETATM   22  H   UNL     1       2.061  27.794  52.285  1.00  0.00     0.162 HD
BRANCH  20  23
HETATM   23  C   UNL     1       1.670  28.878  50.005  1.00  0.00     0.141 C 
BRANCH  23  24
HETATM   24  C   UNL     1       2.234  27.882  49.027  1.00  0.00    -0.050 A 
HETATM   25  C   UNL     1       3.574  27.477  49.113  1.00  0.00     0.007 A 
HETATM   26  C   UNL     1       4.085  26.535  48.220  1.00  0.00     0.001 A 
HETATM   27  C   UNL     1       3.268  25.993  47.231  1.00  0.00     0.000 A 
HETATM   28  C   UNL     1       1.938  26.398  47.128  1.00  0.00     0.001 A 
HETATM   29  C   UNL     1       1.424  27.341  48.019  1.00  0.00     0.007 A 
ENDBRANCH  23  24
ENDBRANCH  20  23
ENDBRANCH  18  19
ENDBRANCH   2  18
TORSDOF 6
ENDMDL
MODEL 9
REMARK VINA RESULT:      -8.4      4.550      5.974
REMARK  6 active torsions:
REMARK  status: ('A' for Active; 'I' for Inactive)
REMARK    1  A    between atoms: C_7  and  C_8 
REMARK    2  A    between atoms: N_9  and  N_10 
REMARK       I    between atoms: N_10  and  C_11 
REMARK    3  A    between atoms: C_11  and  C_12 
REMARK    4  A    between atoms: C_12  and  N_13 
REMARK       I    between atoms: N_13  and  C_14 
REMARK    5  A    between atoms: C_14  and  C_15 
REMARK    6  A    between atoms: C_15  and  C_16 
ROOT
HETATM    1  N   UNL     1       5.972  26.391  51.167  1.00  0.00    -0.246 N 
HETATM    2  C   UNL     1       5.034  26.355  50.152  1.00  0.00     0.255 C 
HETATM    3  O   UNL     1       4.242  25.434  49.951  1.00  0.00    -0.270 OA
HETATM    4  H   UNL     1       6.454  27.274  51.354  1.00  0.00     0.192 HD
ENDROOT
BRANCH   1   5
HETATM    5  N   UNL     1       6.017  25.397  52.106  1.00  0.00    -0.184 NA
HETATM    6  C   UNL     1       7.106  25.369  52.805  1.00  0.00     0.153 C 
BRANCH   6   7
HETATM    7  C   UNL     1       7.266  24.419  53.889  1.00  0.00     0.018 A 
HETATM    8  C   UNL     1       7.071  24.735  55.228  1.00  0.00     0.018 A 
HETATM    9  C   UNL     1       6.710  26.020  55.883  1.00  0.00     0.069 C 
HETATM   10  N   UNL     1       7.275  23.593  55.961  1.00  0.00    -0.358 N 
HETATM   11  H   UNL     1       7.199  23.523  56.966  1.00  0.00     0.166 HD
HETATM   12  C   UNL     1       7.593  22.539  55.140  1.00  0.00     0.043 A 
HETATM   13  C   UNL     1       7.609  23.027  53.833  1.00  0.00     0.004 A 
HETATM   14  C   UNL     1       7.860  21.201  55.459  1.00  0.00     0.030 A 
HETATM   15  C   UNL     1       7.915  22.122  52.792  1.00  0.00     0.014 A 
HETATM   16  C   UNL     1       8.186  20.781  53.093  1.00  0.00     0.001 A 
HETATM   17  C   UNL     1       8.156  20.329  54.409  1.00  0.00     0.002 A 
ENDBRANCH   6   7
ENDBRANCH   1   5
BRANCH   2  18
HETATM   18  C   UNL     1       4.913  27.674  49.378  1.00  0.00     0.227 C 
BRANCH  18  19
HETATM   19  N   UNL     1       4.182  28.772  50.002  1.00  0.00    -0.352 N 
HETATM   20  C   UNL     1       4.768  29.633  50.902  1.00  0.00     0.222 C 
HETATM   21  O   UNL     1       5.989  29.733  51.002  1.00  0.00    -0.273 OA
HETATM   22  H   UNL     1       3.173  28.744  49.941  1.00  0.00     0.162 HD
BRANCH  20  23
HETATM   23  C   UNL     1       3.800  30.455  51.731  1.00  0.00     0.141 C 
BRANCH  23  24
HETATM   24  C   UNL     1       3.841  30.127  53.200  1.00  0.00    -0.050 A 
HETATM   25  C   UNL     1       4.052  28.811  53.633  1.00  0.00     0.007 A 
HETATM   26  C   UNL     1       4.114  28.516  54.995  1.00  0.00     0.001 A 
HETATM   27  C   UNL     1       3.960  29.531  55.938  1.00  0.00     0.000 A 
HETATM   28  C   UNL     1       3.736  30.841  55.519  1.00  0.00     0.001 A 
HETATM   29  C   UNL     1       3.673  31.139  54.157  1.00  0.00     0.007 A 
ENDBRANCH  23  24
ENDBRANCH  20  23
ENDBRANCH  18  19
ENDBRANCH   2  18
TORSDOF 6
ENDMDL
MODEL 10
REMARK VINA RESULT:      -8.2      2.426      3.627
REMARK  6 active torsions:
REMARK  status: ('A' for Active; 'I' for Inactive)
REMARK    1  A    between atoms: C_7  and  C_8 
REMARK    2  A    between atoms: N_9  and  N_10 
REMARK       I    between atoms: N_10  and  C_11 
REMARK    3  A    between atoms: C_11  and  C_12 
REMARK    4  A    between atoms: C_12  and  N_13 
REMARK       I    between atoms: N_13  and  C_14 
REMARK    5  A    between atoms: C_14  and  C_15 
REMARK    6  A    between atoms: C_15  and  C_16 
ROOT
HETATM    1  N   UNL     1       4.898  29.578  58.001  1.00  0.00    -0.246 N 
HETATM    2  C   UNL     1       3.843  30.443  57.785  1.00  0.00     0.255 C 
HETATM    3  O   UNL     1       3.008  30.333  56.886  1.00  0.00    -0.270 OA
HETATM    4  H   UNL     1       5.423  29.659  58.876  1.00  0.00     0.192 HD
ENDROOT
BRANCH   1   5
HETATM    5  N   UNL     1       5.033  28.445  57.247  1.00  0.00    -0.184 NA
HETATM    6  C   UNL     1       6.165  28.343  56.629  1.00  0.00     0.153 C 
BRANCH   6   7
HETATM    7  C   UNL     1       6.482  27.159  55.853  1.00  0.00     0.018 A 
HETATM    8  C   UNL     1       5.993  26.921  54.574  1.00  0.00     0.018 A 
HETATM    9  C   UNL     1       5.068  27.713  53.721  1.00  0.00     0.069 C 
HETATM   10  N   UNL     1       6.524  25.734  54.138  1.00  0.00    -0.358 N 
HETATM   11  H   UNL     1       6.346  25.309  53.239  1.00  0.00     0.166 HD
HETATM   12  C   UNL     1       7.348  25.190  55.093  1.00  0.00     0.043 A 
HETATM   13  C   UNL     1       7.333  26.054  56.189  1.00  0.00     0.004 A 
HETATM   14  C   UNL     1       8.101  24.009  55.063  1.00  0.00     0.030 A 
HETATM   15  C   UNL     1       8.113  25.709  57.315  1.00  0.00     0.014 A 
HETATM   16  C   UNL     1       8.871  24.532  57.302  1.00  0.00     0.001 A 
HETATM   17  C   UNL     1       8.865  23.696  56.190  1.00  0.00     0.002 A 
ENDBRANCH   6   7
ENDBRANCH   1   5
BRANCH   2  18
HETATM   18  C   UNL     1       3.662  31.486  58.896  1.00  0.00     0.227 C 
BRANCH  18  19
HETATM   19  N   UNL     1       4.853  31.954  59.599  1.00  0.00    -0.352 N 
HETATM   20  C   UNL     1       4.808  32.445  60.884  1.00  0.00     0.222 C 
HETATM   21  O   UNL     1       3.848  32.237  61.623  1.00  0.00    -0.273 OA
HETATM   22  H   UNL     1       5.675  32.131  59.038  1.00  0.00     0.162 HD
BRANCH  20  23
HETATM   23  C   UNL     1       6.031  33.230  61.317  1.00  0.00     0.141 C 
BRANCH  23  24
HETATM   24  C   UNL     1       7.276  32.390  61.423  1.00  0.00    -0.050 A 
HETATM   25  C   UNL     1       8.350  32.591  60.545  1.00  0.00     0.007 A 
HETATM   26  C   UNL     1       9.512  31.827  60.665  1.00  0.00     0.001 A 
HETATM   27  C   UNL     1       9.610  30.853  61.656  1.00  0.00     0.000 A 
HETATM   28  C   UNL     1       8.543  30.636  62.526  1.00  0.00     0.001 A 
HETATM   29  C   UNL     1       7.379  31.398  62.408  1.00  0.00     0.007 A 
ENDBRANCH  23  24
ENDBRANCH  20  23
ENDBRANCH  18  19
ENDBRANCH   2  18
TORSDOF 6
ENDMDL
