MODEL 1
REMARK VINA RESULT:      -9.3      0.000      0.000
REMARK  5 active torsions:
REMARK  status: ('A' for Active; 'I' for Inactive)
REMARK    1  A    between atoms: C_5  and  C_6 
REMARK    2  A    between atoms: C_6  and  C_7 
REMARK       I    between atoms: C_7  and  N_8 
REMARK    3  A    between atoms: N_8  and  C_9 
REMARK    4  A    between atoms: C_12  and  O_13 
REMARK    5  A    between atoms: O_13  and  C_14 
ROOT
HETATM    1  C   UNL     1       6.826  24.782  54.276  1.00  0.00     0.076 A 
HETATM    2  C   UNL     1       6.941  23.834  55.293  1.00  0.00     0.039 A 
HETATM    3  C   UNL     1       7.473  22.574  55.013  1.00  0.00     0.025 A 
HETATM    4  C   UNL     1       7.876  22.258  53.710  1.00  0.00     0.044 A 
HETATM    5  C   UNL     1       8.421  20.963  53.421  1.00  0.00     0.099 C 
HETATM    6  N   UNL     1       8.864  19.916  53.190  1.00  0.00    -0.191 NA
HETATM    7  C   UNL     1       7.738  23.206  52.688  1.00  0.00     0.025 A 
HETATM    8  C   UNL     1       7.202  24.466  52.970  1.00  0.00     0.039 A 
ENDROOT
BRANCH   1   9
HETATM    9  O   UNL     1       6.240  25.982  54.593  1.00  0.00    -0.311 OA
BRANCH   9  10
HETATM   10  C   UNL     1       6.880  26.817  55.481  1.00  0.00     0.076 A 
HETATM   11  C   UNL     1       7.683  27.802  54.907  1.00  0.00     0.039 A 
HETATM   12  C   UNL     1       8.336  28.746  55.708  1.00  0.00     0.032 A 
HETATM   13  C   UNL     1       8.190  28.719  57.094  1.00  0.00     0.034 A 
HETATM   14  C   UNL     1       7.382  27.727  57.667  1.00  0.00     0.032 A 
HETATM   15  C   UNL     1       6.719  26.788  56.866  1.00  0.00     0.039 A 
BRANCH  13  16
HETATM   16  N   UNL     1       8.794  29.646  57.972  1.00  0.00    -0.327 N 
HETATM   17  C   UNL     1       8.242  30.814  58.474  1.00  0.00     0.227 C 
HETATM   18  O   UNL     1       7.122  31.253  58.218  1.00  0.00    -0.273 OA
HETATM   19  H   UNL     1       9.734  29.417  58.271  1.00  0.00     0.169 HD
BRANCH  17  20
HETATM   20  C   UNL     1       9.167  31.542  59.453  1.00  0.00     0.159 C 
BRANCH  20  21
HETATM   21  C   UNL     1       8.575  31.648  60.825  1.00  0.00     0.017 A 
HETATM   22  N   UNL     1       7.328  31.146  61.130  1.00  0.00    -0.369 N 
HETATM   23  C   UNL     1       7.054  31.364  62.453  1.00  0.00     0.088 A 
HETATM   24  H   UNL     1       6.705  30.706  60.458  1.00  0.00     0.165 HD
HETATM   25  C   UNL     1       8.138  32.000  63.013  1.00  0.00     0.019 A 
HETATM   26  C   UNL     1       9.097  32.179  61.989  1.00  0.00     0.027 A 
ENDBRANCH  20  21
ENDBRANCH  17  20
ENDBRANCH  13  16
ENDBRANCH   9  10
ENDBRANCH   1   9
TORSDOF 5
ENDMDL
MODEL 2
REMARK VINA RESULT:      -8.7      2.047      9.791
REMARK  5 active torsions:
REMARK  status: ('A' for Active; 'I' for Inactive)
REMARK    1  A    between atoms: C_5  and  C_6 
REMARK    2  A    between atoms: C_6  and  C_7 
REMARK       I    between atoms: C_7  and  N_8 
REMARK    3  A    between atoms: N_8  and  C_9 
REMARK    4  A    between atoms: C_12  and  O_13 
REMARK    5  A    between atoms: O_13  and  C_14 
ROOT
HETATM    1  C   UNL     1       8.641  32.032  59.930  1.00  0.00     0.076 A 
HETATM    2  C   UNL     1       7.468  32.744  60.181  1.00  0.00     0.039 A 
HETATM    3  C   UNL     1       7.101  33.038  61.496  1.00  0.00     0.025 A 
HETATM    4  C   UNL     1       7.902  32.605  62.560  1.00  0.00     0.044 A 
HETATM    5  C   UNL     1       7.525  32.905  63.911  1.00  0.00     0.099 C 
HETATM    6  N   UNL     1       7.220  33.151  65.004  1.00  0.00    -0.191 NA
HETATM    7  C   UNL     1       9.067  31.871  62.302  1.00  0.00     0.025 A 
HETATM    8  C   UNL     1       9.431  31.575  60.985  1.00  0.00     0.039 A 
ENDROOT
BRANCH   1   9
HETATM    9  O   UNL     1       8.922  31.717  58.624  1.00  0.00    -0.311 OA
BRANCH   9  10
HETATM   10  C   UNL     1       8.420  30.546  58.103  1.00  0.00     0.076 A 
HETATM   11  C   UNL     1       9.368  29.665  57.584  1.00  0.00     0.039 A 
HETATM   12  C   UNL     1       8.983  28.417  57.082  1.00  0.00     0.032 A 
HETATM   13  C   UNL     1       7.642  28.032  57.096  1.00  0.00     0.034 A 
HETATM   14  C   UNL     1       6.693  28.920  57.619  1.00  0.00     0.032 A 
HETATM   15  C   UNL     1       7.078  30.166  58.132  1.00  0.00     0.039 A 
BRANCH  13  16
HETATM   16  N   UNL     1       7.172  26.784  56.632  1.00  0.00    -0.327 N 
HETATM   17  C   UNL     1       7.528  25.525  57.089  1.00  0.00     0.227 C 
HETATM   18  O   UNL     1       8.343  25.283  57.979  1.00  0.00    -0.273 OA
HETATM   19  H   UNL     1       6.489  26.825  55.886  1.00  0.00     0.169 HD
BRANCH  17  20
HETATM   20  C   UNL     1       6.767  24.396  56.391  1.00  0.00     0.159 C 
BRANCH  20  21
HETATM   21  C   UNL     1       7.646  23.590  55.486  1.00  0.00     0.017 A 
HETATM   22  N   UNL     1       8.706  22.846  55.959  1.00  0.00    -0.369 N 
HETATM   23  C   UNL     1       9.316  22.199  54.918  1.00  0.00     0.088 A 
HETATM   24  H   UNL     1       8.996  22.812  56.932  1.00  0.00     0.165 HD
HETATM   25  C   UNL     1       8.639  22.515  53.764  1.00  0.00     0.019 A 
HETATM   26  C   UNL     1       7.585  23.390  54.120  1.00  0.00     0.027 A 
ENDBRANCH  20  21
ENDBRANCH  17  20
ENDBRANCH  13  16
ENDBRANCH   9  10
ENDBRANCH   1   9
TORSDOF 5
ENDMDL
MODEL 3
REMARK VINA RESULT:      -8.5      2.008      9.993
REMARK  5 active torsions:
REMARK  status: ('A' for Active; 'I' for Inactive)
REMARK    1  A    between atoms: C_5  and  C_6 
REMARK    2  A    between atoms: C_6  and  C_7 
REMARK       I    between atoms: C_7  and  N_8 
REMARK    3  A    between atoms: N_8  and  C_9 
REMARK    4  A    between atoms: C_12  and  O_13 
REMARK    5  A    between atoms: O_13  and  C_14 
ROOT
HETATM    1  C   UNL     1       7.637  32.129  60.151  1.00  0.00     0.076 A 
HETATM    2  C   UNL     1       8.693  31.893  61.031  1.00  0.00     0.039 A 
HETATM    3  C   UNL     1       8.562  32.229  62.380  1.00  0.00     0.025 A 
HETATM    4  C   UNL     1       7.379  32.817  62.844  1.00  0.00     0.044 A 
HETATM    5  C   UNL     1       7.245  33.164  64.229  1.00  0.00     0.099 C 
HETATM    6  N   UNL     1       7.138  33.442  65.351  1.00  0.00    -0.191 NA
HETATM    7  C   UNL     1       6.331  33.072  61.951  1.00  0.00     0.025 A 
HETATM    8  C   UNL     1       6.464  32.738  60.600  1.00  0.00     0.039 A 
ENDROOT
BRANCH   1   9
HETATM    9  O   UNL     1       7.840  31.836  58.825  1.00  0.00    -0.311 OA
BRANCH   9  10
HETATM   10  C   UNL     1       7.448  30.605  58.352  1.00  0.00     0.076 A 
HETATM   11  C   UNL     1       6.180  30.560  57.772  1.00  0.00     0.039 A 
HETATM   12  C   UNL     1       5.697  29.377  57.203  1.00  0.00     0.032 A 
HETATM   13  C   UNL     1       6.479  28.222  57.202  1.00  0.00     0.034 A 
HETATM   14  C   UNL     1       7.752  28.272  57.785  1.00  0.00     0.032 A 
HETATM   15  C   UNL     1       8.242  29.459  58.346  1.00  0.00     0.039 A 
BRANCH  13  16
HETATM   16  N   UNL     1       6.078  26.996  56.629  1.00  0.00    -0.327 N 
HETATM   17  C   UNL     1       6.579  26.395  55.485  1.00  0.00     0.227 C 
HETATM   18  O   UNL     1       7.459  26.850  54.755  1.00  0.00    -0.273 OA
HETATM   19  H   UNL     1       5.347  26.500  57.125  1.00  0.00     0.169 HD
BRANCH  17  20
HETATM   20  C   UNL     1       5.947  25.031  55.197  1.00  0.00     0.159 C 
BRANCH  20  21
HETATM   21  C   UNL     1       6.889  24.104  54.493  1.00  0.00     0.017 A 
HETATM   22  N   UNL     1       7.997  23.569  55.113  1.00  0.00    -0.369 N 
HETATM   23  C   UNL     1       8.660  22.745  54.245  1.00  0.00     0.088 A 
HETATM   24  H   UNL     1       8.283  23.782  56.066  1.00  0.00     0.165 HD
HETATM   25  C   UNL     1       7.969  22.735  53.055  1.00  0.00     0.019 A 
HETATM   26  C   UNL     1       6.852  23.590  53.210  1.00  0.00     0.027 A 
ENDBRANCH  20  21
ENDBRANCH  17  20
ENDBRANCH  13  16
ENDBRANCH   9  10
ENDBRANCH   1   9
TORSDOF 5
ENDMDL
MODEL 4
REMARK VINA RESULT:      -8.1      2.582      9.888
REMARK  5 active torsions:
REMARK  status: ('A' for Active; 'I' for Inactive)
REMARK    1  A    between atoms: C_5  and  C_6 
REMARK    2  A    between atoms: C_6  and  C_7 
REMARK       I    between atoms: C_7  and  N_8 
REMARK    3  A    between atoms: N_8  and  C_9 
REMARK    4  A    between atoms: C_12  and  O_13 
REMARK    5  A    between atoms: O_13  and  C_14 
ROOT
HETATM    1  C   UNL     1       8.499  32.268  60.549  1.00  0.00     0.076 A 
HETATM    2  C   UNL     1       7.190  32.693  60.320  1.00  0.00     0.039 A 
HETATM    3  C   UNL     1       6.317  32.865  61.396  1.00  0.00     0.025 A 
HETATM    4  C   UNL     1       6.750  32.596  62.700  1.00  0.00     0.044 A 
HETATM    5  C   UNL     1       5.853  32.770  63.805  1.00  0.00     0.099 C 
HETATM    6  N   UNL     1       5.126  32.914  64.698  1.00  0.00    -0.191 NA
HETATM    7  C   UNL     1       8.059  32.147  62.921  1.00  0.00     0.025 A 
HETATM    8  C   UNL     1       8.931  31.973  61.843  1.00  0.00     0.039 A 
ENDROOT
BRANCH   1   9
HETATM    9  O   UNL     1       9.296  32.057  59.452  1.00  0.00    -0.311 OA
BRANCH   9  10
HETATM   10  C   UNL     1       9.153  30.883  58.746  1.00  0.00     0.076 A 
HETATM   11  C   UNL     1       7.972  30.180  58.984  1.00  0.00     0.039 A 
HETATM   12  C   UNL     1       7.688  29.004  58.281  1.00  0.00     0.032 A 
HETATM   13  C   UNL     1       8.581  28.518  57.326  1.00  0.00     0.034 A 
HETATM   14  C   UNL     1       9.765  29.228  57.089  1.00  0.00     0.032 A 
HETATM   15  C   UNL     1      10.047  30.412  57.785  1.00  0.00     0.039 A 
BRANCH  13  16
HETATM   16  N   UNL     1       8.361  27.355  56.557  1.00  0.00    -0.327 N 
HETATM   17  C   UNL     1       7.460  27.189  55.517  1.00  0.00     0.227 C 
HETATM   18  O   UNL     1       6.675  28.039  55.097  1.00  0.00    -0.273 OA
HETATM   19  H   UNL     1       8.940  26.558  56.794  1.00  0.00     0.169 HD
BRANCH  17  20
HETATM   20  C   UNL     1       7.540  25.805  54.868  1.00  0.00     0.159 C 
BRANCH  20  21
HETATM   21  C   UNL     1       6.591  25.658  53.719  1.00  0.00     0.017 A 
HETATM   22  N   UNL     1       6.583  26.533  52.654  1.00  0.00    -0.369 N 
HETATM   23  C   UNL     1       5.634  26.146  51.746  1.00  0.00     0.088 A 
HETATM   24  H   UNL     1       7.180  27.352  52.578  1.00  0.00     0.165 HD
HETATM   25  C   UNL     1       5.031  25.005  52.221  1.00  0.00     0.019 A 
HETATM   26  C   UNL     1       5.633  24.695  53.463  1.00  0.00     0.027 A 
ENDBRANCH  20  21
ENDBRANCH  17  20
ENDBRANCH  13  16
ENDBRANCH   9  10
ENDBRANCH   1   9
TORSDOF 5
ENDMDL
MODEL 5
REMARK VINA RESULT:      -7.9      4.773      9.953
REMARK  5 active torsions:
REMARK  status: ('A' for Active; 'I' for Inactive)
REMARK    1  A    between atoms: C_5  and  C_6 
REMARK    2  A    between atoms: C_6  and  C_7 
REMARK       I    between atoms: C_7  and  N_8 
REMARK    3  A    between atoms: N_8  and  C_9 
REMARK    4  A    between atoms: C_12  and  O_13 
REMARK    5  A    between atoms: O_13  and  C_14 
ROOT
HETATM    1  C   UNL     1       7.041  27.093  56.680  1.00  0.00     0.076 A 
HETATM    2  C   UNL     1       8.298  27.532  57.096  1.00  0.00     0.039 A 
HETATM    3  C   UNL     1       8.433  28.786  57.694  1.00  0.00     0.025 A 
HETATM    4  C   UNL     1       7.311  29.608  57.861  1.00  0.00     0.044 A 
HETATM    5  C   UNL     1       7.449  30.897  58.474  1.00  0.00     0.099 C 
HETATM    6  N   UNL     1       7.563  31.939  58.971  1.00  0.00    -0.191 NA
HETATM    7  C   UNL     1       6.055  29.170  57.420  1.00  0.00     0.025 A 
HETATM    8  C   UNL     1       5.922  27.915  56.819  1.00  0.00     0.039 A 
ENDROOT
BRANCH   1   9
HETATM    9  O   UNL     1       6.974  25.879  56.043  1.00  0.00    -0.311 OA
BRANCH   9  10
HETATM   10  C   UNL     1       6.670  25.852  54.700  1.00  0.00     0.076 A 
HETATM   11  C   UNL     1       5.459  25.245  54.371  1.00  0.00     0.039 A 
HETATM   12  C   UNL     1       5.016  25.211  53.044  1.00  0.00     0.032 A 
HETATM   13  C   UNL     1       5.778  25.788  52.029  1.00  0.00     0.034 A 
HETATM   14  C   UNL     1       6.995  26.397  52.365  1.00  0.00     0.032 A 
HETATM   15  C   UNL     1       7.435  26.442  53.695  1.00  0.00     0.039 A 
BRANCH  13  16
HETATM   16  N   UNL     1       5.394  25.818  50.671  1.00  0.00    -0.327 N 
HETATM   17  C   UNL     1       4.755  26.847  49.998  1.00  0.00     0.227 C 
HETATM   18  O   UNL     1       4.392  27.916  50.487  1.00  0.00    -0.273 OA
HETATM   19  H   UNL     1       5.627  24.992  50.132  1.00  0.00     0.169 HD
BRANCH  17  20
HETATM   20  C   UNL     1       4.551  26.555  48.509  1.00  0.00     0.159 C 
BRANCH  20  21
HETATM   21  C   UNL     1       3.235  27.062  48.003  1.00  0.00     0.017 A 
HETATM   22  N   UNL     1       2.044  26.427  48.284  1.00  0.00    -0.369 N 
HETATM   23  C   UNL     1       1.008  27.118  47.716  1.00  0.00     0.088 A 
HETATM   24  H   UNL     1       1.964  25.562  48.812  1.00  0.00     0.165 HD
HETATM   25  C   UNL     1       1.530  28.216  47.073  1.00  0.00     0.019 A 
HETATM   26  C   UNL     1       2.933  28.183  47.255  1.00  0.00     0.027 A 
ENDBRANCH  20  21
ENDBRANCH  17  20
ENDBRANCH  13  16
ENDBRANCH   9  10
ENDBRANCH   1   9
TORSDOF 5
ENDMDL
MODEL 6
REMARK VINA RESULT:      -7.7      2.794      3.311
REMARK  5 active torsions:
REMARK  status: ('A' for Active; 'I' for Inactive)
REMARK    1  A    between atoms: C_5  and  C_6 
REMARK    2  A    between atoms: C_6  and  C_7 
REMARK       I    between atoms: C_7  and  N_8 
REMARK    3  A    between atoms: N_8  and  C_9 
REMARK    4  A    between atoms: C_12  and  O_13 
REMARK    5  A    between atoms: O_13  and  C_14 
ROOT
HETATM    1  C   UNL     1       6.414  25.941  54.447  1.00  0.00     0.076 A 
HETATM    2  C   UNL     1       6.944  26.851  53.533  1.00  0.00     0.039 A 
HETATM    3  C   UNL     1       6.442  26.901  52.232  1.00  0.00     0.025 A 
HETATM    4  C   UNL     1       5.419  26.029  51.840  1.00  0.00     0.044 A 
HETATM    5  C   UNL     1       4.905  26.079  50.503  1.00  0.00     0.099 C 
HETATM    6  N   UNL     1       4.488  26.122  49.420  1.00  0.00    -0.191 NA
HETATM    7  C   UNL     1       4.906  25.102  52.757  1.00  0.00     0.025 A 
HETATM    8  C   UNL     1       5.412  25.050  54.059  1.00  0.00     0.039 A 
ENDROOT
BRANCH   1   9
HETATM    9  O   UNL     1       6.985  25.891  55.695  1.00  0.00    -0.311 OA
BRANCH   9  10
HETATM   10  C   UNL     1       6.986  27.030  56.468  1.00  0.00     0.076 A 
HETATM   11  C   UNL     1       8.241  27.463  56.896  1.00  0.00     0.039 A 
HETATM   12  C   UNL     1       8.374  28.643  57.637  1.00  0.00     0.032 A 
HETATM   13  C   UNL     1       7.252  29.407  57.956  1.00  0.00     0.034 A 
HETATM   14  C   UNL     1       5.994  28.969  57.523  1.00  0.00     0.032 A 
HETATM   15  C   UNL     1       5.860  27.793  56.772  1.00  0.00     0.039 A 
BRANCH  13  16
HETATM   16  N   UNL     1       7.300  30.619  58.679  1.00  0.00    -0.327 N 
HETATM   17  C   UNL     1       8.034  30.891  59.823  1.00  0.00     0.227 C 
HETATM   18  O   UNL     1       8.763  30.100  60.419  1.00  0.00    -0.273 OA
HETATM   19  H   UNL     1       6.738  31.374  58.304  1.00  0.00     0.169 HD
BRANCH  17  20
HETATM   20  C   UNL     1       7.890  32.339  60.298  1.00  0.00     0.159 C 
BRANCH  20  21
HETATM   21  C   UNL     1       6.877  32.482  61.391  1.00  0.00     0.017 A 
HETATM   22  N   UNL     1       6.335  31.394  62.041  1.00  0.00    -0.369 N 
HETATM   23  C   UNL     1       5.458  31.820  63.002  1.00  0.00     0.088 A 
HETATM   24  H   UNL     1       6.544  30.425  61.814  1.00  0.00     0.165 HD
HETATM   25  C   UNL     1       5.442  33.195  62.984  1.00  0.00     0.019 A 
HETATM   26  C   UNL     1       6.336  33.614  61.971  1.00  0.00     0.027 A 
ENDBRANCH  20  21
ENDBRANCH  17  20
ENDBRANCH  13  16
ENDBRANCH   9  10
ENDBRANCH   1   9
TORSDOF 5
ENDMDL
MODEL 7
REMARK VINA RESULT:      -7.6      3.661      5.175
REMARK  5 active torsions:
REMARK  status: ('A' for Active; 'I' for Inactive)
REMARK    1  A    between atoms: C_5  and  C_6 
REMARK    2  A    between atoms: C_6  and  C_7 
REMARK       I    between atoms: C_7  and  N_8 
REMARK    3  A    between atoms: N_8  and  C_9 
REMARK    4  A    between atoms: C_12  and  O_13 
REMARK    5  A    between atoms: O_13  and  C_14 
ROOT
HETATM    1  C   UNL     1       8.189  23.509  56.576  1.00  0.00     0.076 A 
HETATM    2  C   UNL     1       8.226  23.933  55.248  1.00  0.00     0.039 A 
HETATM    3  C   UNL     1       8.317  22.993  54.220  1.00  0.00     0.025 A 
HETATM    4  C   UNL     1       8.386  21.627  54.524  1.00  0.00     0.044 A 
HETATM    5  C   UNL     1       8.481  20.661  53.469  1.00  0.00     0.099 C 
HETATM    6  N   UNL     1       8.556  19.880  52.614  1.00  0.00    -0.191 NA
HETATM    7  C   UNL     1       8.372  21.210  55.861  1.00  0.00     0.025 A 
HETATM    8  C   UNL     1       8.284  22.153  56.889  1.00  0.00     0.039 A 
ENDROOT
BRANCH   1   9
HETATM    9  O   UNL     1       8.162  24.478  57.549  1.00  0.00    -0.311 OA
BRANCH   9  10
HETATM   10  C   UNL     1       7.368  25.586  57.357  1.00  0.00     0.076 A 
HETATM   11  C   UNL     1       6.022  25.323  57.102  1.00  0.00     0.039 A 
HETATM   12  C   UNL     1       5.107  26.371  56.950  1.00  0.00     0.032 A 
HETATM   13  C   UNL     1       5.526  27.696  57.054  1.00  0.00     0.034 A 
HETATM   14  C   UNL     1       6.879  27.956  57.311  1.00  0.00     0.032 A 
HETATM   15  C   UNL     1       7.795  26.908  57.474  1.00  0.00     0.039 A 
BRANCH  13  16
HETATM   16  N   UNL     1       4.666  28.810  56.937  1.00  0.00    -0.327 N 
HETATM   17  C   UNL     1       4.267  29.449  55.774  1.00  0.00     0.227 C 
HETATM   18  O   UNL     1       4.618  29.158  54.631  1.00  0.00    -0.273 OA
HETATM   19  H   UNL     1       4.296  29.169  57.809  1.00  0.00     0.169 HD
BRANCH  17  20
HETATM   20  C   UNL     1       3.274  30.587  56.024  1.00  0.00     0.159 C 
BRANCH  20  21
HETATM   21  C   UNL     1       3.422  31.701  55.034  1.00  0.00     0.017 A 
HETATM   22  N   UNL     1       4.651  32.209  54.674  1.00  0.00    -0.369 N 
HETATM   23  C   UNL     1       4.487  33.197  53.742  1.00  0.00     0.088 A 
HETATM   24  H   UNL     1       5.537  31.904  55.069  1.00  0.00     0.165 HD
HETATM   25  C   UNL     1       3.142  33.322  53.485  1.00  0.00     0.019 A 
HETATM   26  C   UNL     1       2.469  32.379  54.297  1.00  0.00     0.027 A 
ENDBRANCH  20  21
ENDBRANCH  17  20
ENDBRANCH  13  16
ENDBRANCH   9  10
ENDBRANCH   1   9
TORSDOF 5
ENDMDL
MODEL 8
REMARK VINA RESULT:      -7.4      3.000      3.874
REMARK  5 active torsions:
REMARK  status: ('A' for Active; 'I' for Inactive)
REMARK    1  A    between atoms: C_5  and  C_6 
REMARK    2  A    between atoms: C_6  and  C_7 
REMARK       I    between atoms: C_7  and  N_8 
REMARK    3  A    between atoms: N_8  and  C_9 
REMARK    4  A    between atoms: C_12  and  O_13 
REMARK    5  A    between atoms: O_13  and  C_14 
ROOT
HETATM    1  C   UNL     1       6.461  26.585  53.163  1.00  0.00     0.076 A 
HETATM    2  C   UNL     1       6.228  27.864  52.659  1.00  0.00     0.039 A 
HETATM    3  C   UNL     1       5.485  28.026  51.488  1.00  0.00     0.025 A 
HETATM    4  C   UNL     1       4.988  26.904  50.813  1.00  0.00     0.044 A 
HETATM    5  C   UNL     1       4.225  27.069  49.610  1.00  0.00     0.099 C 
HETATM    6  N   UNL     1       3.607  27.204  48.637  1.00  0.00    -0.191 NA
HETATM    7  C   UNL     1       5.245  25.620  51.313  1.00  0.00     0.025 A 
HETATM    8  C   UNL     1       5.992  25.460  52.483  1.00  0.00     0.039 A 
ENDROOT
BRANCH   1   9
HETATM    9  O   UNL     1       7.250  26.480  54.282  1.00  0.00    -0.311 OA
BRANCH   9  10
HETATM   10  C   UNL     1       7.147  27.446  55.257  1.00  0.00     0.076 A 
HETATM   11  C   UNL     1       6.001  27.379  56.050  1.00  0.00     0.039 A 
HETATM   12  C   UNL     1       5.815  28.272  57.111  1.00  0.00     0.032 A 
HETATM   13  C   UNL     1       6.776  29.241  57.396  1.00  0.00     0.034 A 
HETATM   14  C   UNL     1       7.926  29.305  56.597  1.00  0.00     0.032 A 
HETATM   15  C   UNL     1       8.118  28.405  55.540  1.00  0.00     0.039 A 
BRANCH  13  16
HETATM   16  N   UNL     1       6.678  30.164  58.461  1.00  0.00    -0.327 N 
HETATM   17  C   UNL     1       6.289  31.492  58.393  1.00  0.00     0.227 C 
HETATM   18  O   UNL     1       5.977  32.103  57.371  1.00  0.00    -0.273 OA
HETATM   19  H   UNL     1       6.911  29.800  59.377  1.00  0.00     0.169 HD
BRANCH  17  20
HETATM   20  C   UNL     1       6.238  32.174  59.763  1.00  0.00     0.159 C 
BRANCH  20  21
HETATM   21  C   UNL     1       7.462  31.899  60.581  1.00  0.00     0.017 A 
HETATM   22  N   UNL     1       7.465  30.997  61.623  1.00  0.00    -0.369 N 
HETATM   23  C   UNL     1       8.716  30.933  62.174  1.00  0.00     0.088 A 
HETATM   24  H   UNL     1       6.648  30.482  61.941  1.00  0.00     0.165 HD
HETATM   25  C   UNL     1       9.534  31.790  61.476  1.00  0.00     0.019 A 
HETATM   26  C   UNL     1       8.746  32.399  60.471  1.00  0.00     0.027 A 
ENDBRANCH  20  21
ENDBRANCH  17  20
ENDBRANCH  13  16
ENDBRANCH   9  10
ENDBRANCH   1   9
TORSDOF 5
ENDMDL
MODEL 9
REMARK VINA RESULT:      -7.4      2.505      2.857
REMARK  5 active torsions:
REMARK  status: ('A' for Active; 'I' for Inactive)
REMARK    1  A    between atoms: C_5  and  C_6 
REMARK    2  A    between atoms: C_6  and  C_7 
REMARK       I    between atoms: C_7  and  N_8 
REMARK    3  A    between atoms: N_8  and  C_9 
REMARK    4  A    between atoms: C_12  and  O_13 
REMARK    5  A    between atoms: O_13  and  C_14 
ROOT
HETATM    1  C   UNL     1       6.879  24.576  53.529  1.00  0.00     0.076 A 
HETATM    2  C   UNL     1       6.680  24.309  54.884  1.00  0.00     0.039 A 
HETATM    3  C   UNL     1       7.306  23.209  55.474  1.00  0.00     0.025 A 
HETATM    4  C   UNL     1       8.118  22.368  54.704  1.00  0.00     0.044 A 
HETATM    5  C   UNL     1       8.759  21.237  55.310  1.00  0.00     0.099 C 
HETATM    6  N   UNL     1       9.278  20.323  55.802  1.00  0.00    -0.191 NA
HETATM    7  C   UNL     1       8.295  22.629  53.339  1.00  0.00     0.025 A 
HETATM    8  C   UNL     1       7.666  23.728  52.748  1.00  0.00     0.039 A 
ENDROOT
BRANCH   1   9
HETATM    9  O   UNL     1       6.193  25.633  52.986  1.00  0.00    -0.311 OA
BRANCH   9  10
HETATM   10  C   UNL     1       6.191  26.836  53.656  1.00  0.00     0.076 A 
HETATM   11  C   UNL     1       4.937  27.416  53.845  1.00  0.00     0.039 A 
HETATM   12  C   UNL     1       4.803  28.609  54.564  1.00  0.00     0.032 A 
HETATM   13  C   UNL     1       5.924  29.235  55.109  1.00  0.00     0.034 A 
HETATM   14  C   UNL     1       7.182  28.648  54.917  1.00  0.00     0.032 A 
HETATM   15  C   UNL     1       7.317  27.448  54.206  1.00  0.00     0.039 A 
BRANCH  13  16
HETATM   16  N   UNL     1       5.876  30.425  55.866  1.00  0.00    -0.327 N 
HETATM   17  C   UNL     1       5.467  30.571  57.183  1.00  0.00     0.227 C 
HETATM   18  O   UNL     1       5.054  29.673  57.916  1.00  0.00    -0.273 OA
HETATM   19  H   UNL     1       6.187  31.262  55.387  1.00  0.00     0.169 HD
BRANCH  17  20
HETATM   20  C   UNL     1       5.608  32.005  57.700  1.00  0.00     0.159 C 
BRANCH  20  21
HETATM   21  C   UNL     1       5.033  32.175  59.072  1.00  0.00     0.017 A 
HETATM   22  N   UNL     1       3.730  31.842  59.371  1.00  0.00    -0.369 N 
HETATM   23  C   UNL     1       3.485  32.080  60.697  1.00  0.00     0.088 A 
HETATM   24  H   UNL     1       3.054  31.497  58.694  1.00  0.00     0.165 HD
HETATM   25  C   UNL     1       4.643  32.559  61.264  1.00  0.00     0.019 A 
HETATM   26  C   UNL     1       5.620  32.618  60.242  1.00  0.00     0.027 A 
ENDBRANCH  20  21
ENDBRANCH  17  20
ENDBRANCH  13  16
ENDBRANCH   9  10
ENDBRANCH   1   9
TORSDOF 5
ENDMDL
MODEL 10
REMARK VINA RESULT:      -7.3      2.570      9.533
REMARK  5 active torsions:
REMARK  status: ('A' for Active; 'I' for Inactive)
REMARK    1  A    between atoms: C_5  and  C_6 
REMARK    2  A    between atoms: C_6  and  C_7 
REMARK       I    between atoms: C_7  and  N_8 
REMARK    3  A    between atoms: N_8  and  C_9 
REMARK    4  A    between atoms: C_12  and  O_13 
REMARK    5  A    between atoms: O_13  and  C_14 
ROOT
HETATM    1  C   UNL     1       6.802  30.727  58.313  1.00  0.00     0.076 A 
HETATM    2  C   UNL     1       6.949  31.711  59.291  1.00  0.00     0.039 A 
HETATM    3  C   UNL     1       5.833  32.426  59.730  1.00  0.00     0.025 A 
HETATM    4  C   UNL     1       4.573  32.166  59.179  1.00  0.00     0.044 A 
HETATM    5  C   UNL     1       3.427  32.902  59.629  1.00  0.00     0.099 C 
HETATM    6  N   UNL     1       2.500  33.497  59.995  1.00  0.00    -0.191 NA
HETATM    7  C   UNL     1       4.436  31.193  58.181  1.00  0.00     0.025 A 
HETATM    8  C   UNL     1       5.554  30.480  57.739  1.00  0.00     0.039 A 
ENDROOT
BRANCH   1   9
HETATM    9  O   UNL     1       7.940  30.098  57.873  1.00  0.00    -0.311 OA
BRANCH   9  10
HETATM   10  C   UNL     1       7.813  28.991  57.064  1.00  0.00     0.076 A 
HETATM   11  C   UNL     1       7.718  29.254  55.698  1.00  0.00     0.039 A 
HETATM   12  C   UNL     1       7.646  28.206  54.773  1.00  0.00     0.032 A 
HETATM   13  C   UNL     1       7.671  26.880  55.204  1.00  0.00     0.034 A 
HETATM   14  C   UNL     1       7.768  26.621  56.577  1.00  0.00     0.032 A 
HETATM   15  C   UNL     1       7.851  27.668  57.504  1.00  0.00     0.039 A 
BRANCH  13  16
HETATM   16  N   UNL     1       7.626  25.766  54.338  1.00  0.00    -0.327 N 
HETATM   17  C   UNL     1       6.856  24.622  54.474  1.00  0.00     0.227 C 
HETATM   18  O   UNL     1       6.083  24.376  55.400  1.00  0.00    -0.273 OA
HETATM   19  H   UNL     1       8.222  25.823  53.520  1.00  0.00     0.169 HD
BRANCH  17  20
HETATM   20  C   UNL     1       7.018  23.646  53.306  1.00  0.00     0.159 C 
BRANCH  20  21
HETATM   21  C   UNL     1       7.719  22.386  53.709  1.00  0.00     0.017 A 
HETATM   22  N   UNL     1       8.239  22.204  54.972  1.00  0.00    -0.369 N 
HETATM   23  C   UNL     1       8.800  20.959  55.066  1.00  0.00     0.088 A 
HETATM   24  H   UNL     1       8.224  22.906  55.707  1.00  0.00     0.165 HD
HETATM   25  C   UNL     1       8.630  20.324  53.858  1.00  0.00     0.019 A 
HETATM   26  C   UNL     1       7.948  21.221  53.002  1.00  0.00     0.027 A 
ENDBRANCH  20  21
ENDBRANCH  17  20
ENDBRANCH  13  16
ENDBRANCH   9  10
ENDBRANCH   1   9
TORSDOF 5
ENDMDL
