MODEL 1
REMARK VINA RESULT:      -9.2      0.000      0.000
REMARK  5 active torsions:
REMARK  status: ('A' for Active; 'I' for Inactive)
REMARK    1  A    between atoms: C_2  and  C_3 
REMARK    2  A    between atoms: C_2  and  C_18 
REMARK       I    between atoms: C_3  and  N_4 
REMARK    3  A    between atoms: N_4  and  C_5 
REMARK    4  A    between atoms: C_7  and  C_8 
REMARK    5  A    between atoms: C_18  and  C_19 
ROOT
HETATM    1  C   UNL     1       7.789  25.926  57.183  1.00  0.00     0.226 C 
HETATM    2  N   UNL     1       7.908  27.187  56.633  1.00  0.00    -0.327 N 
HETATM    3  O   UNL     1       8.321  25.553  58.229  1.00  0.00    -0.273 OA
HETATM    4  H   UNL     1       7.651  27.293  55.661  1.00  0.00     0.169 HD
ENDROOT
BRANCH   2   5
HETATM    5  C   UNL     1       8.485  28.326  57.234  1.00  0.00     0.035 A 
HETATM    6  C   UNL     1       7.838  29.105  58.200  1.00  0.00     0.042 A 
HETATM    7  C   UNL     1       8.440  30.267  58.715  1.00  0.00    -0.021 A 
HETATM    8  C   UNL     1       9.711  30.633  58.255  1.00  0.00     0.012 A 
HETATM    9  C   UNL     1      10.365  29.860  57.297  1.00  0.00     0.003 A 
HETATM   10  C   UNL     1       9.751  28.718  56.782  1.00  0.00     0.029 A 
BRANCH   7  11
HETATM   11  C   UNL     1       7.752  31.101  59.686  1.00  0.00     0.010 A 
HETATM   12  C   UNL     1       7.938  31.244  61.081  1.00  0.00     0.152 A 
HETATM   13  N   UNL     1       7.092  32.119  61.632  1.00  0.00    -0.187 NA
HETATM   14  N   UNL     1       6.361  32.543  60.588  1.00  0.00    -0.289 N 
HETATM   15  H   UNL     1       5.634  33.229  60.759  1.00  0.00     0.188 HD
HETATM   16  C   UNL     1       6.713  31.963  59.405  1.00  0.00     0.123 A 
ENDBRANCH   7  11
ENDBRANCH   2   5
BRANCH   1  17
HETATM   17  C   UNL     1       6.822  24.984  56.459  1.00  0.00     0.078 C 
HETATM   18  C   UNL     1       5.416  25.580  56.559  1.00  0.00     0.020 C 
BRANCH  17  19
HETATM   19  C   UNL     1       7.153  24.666  54.992  1.00  0.00     0.052 C 
BRANCH  19  20
HETATM   20  C   UNL     1       7.432  23.230  54.613  1.00  0.00    -0.057 A 
HETATM   21  C   UNL     1       7.670  22.813  53.299  1.00  0.00     0.007 A 
HETATM   22  C   UNL     1       7.977  21.478  53.019  1.00  0.00     0.001 A 
HETATM   23  C   UNL     1       8.064  20.546  54.050  1.00  0.00     0.000 A 
HETATM   24  C   UNL     1       7.844  20.946  55.364  1.00  0.00     0.001 A 
HETATM   25  C   UNL     1       7.534  22.278  55.644  1.00  0.00     0.007 A 
ENDBRANCH  19  20
ENDBRANCH  17  19
ENDBRANCH   1  17
TORSDOF 5
ENDMDL
MODEL 2
REMARK VINA RESULT:      -9.2      2.581      3.677
REMARK  5 active torsions:
REMARK  status: ('A' for Active; 'I' for Inactive)
REMARK    1  A    between atoms: C_2  and  C_3 
REMARK    2  A    between atoms: C_2  and  C_18 
REMARK       I    between atoms: C_3  and  N_4 
REMARK    3  A    between atoms: N_4  and  C_5 
REMARK    4  A    between atoms: C_7  and  C_8 
REMARK    5  A    between atoms: C_18  and  C_19 
ROOT
HETATM    1  C   UNL     1       5.565  26.092  54.115  1.00  0.00     0.226 C 
HETATM    2  N   UNL     1       6.089  26.200  55.388  1.00  0.00    -0.327 N 
HETATM    3  O   UNL     1       5.088  27.020  53.462  1.00  0.00    -0.273 OA
HETATM    4  H   UNL     1       6.205  25.345  55.915  1.00  0.00     0.169 HD
ENDROOT
BRANCH   2   5
HETATM    5  C   UNL     1       6.356  27.390  56.100  1.00  0.00     0.035 A 
HETATM    6  C   UNL     1       7.634  27.939  56.244  1.00  0.00     0.042 A 
HETATM    7  C   UNL     1       7.844  29.092  57.020  1.00  0.00    -0.021 A 
HETATM    8  C   UNL     1       6.747  29.698  57.644  1.00  0.00     0.012 A 
HETATM    9  C   UNL     1       5.468  29.161  57.503  1.00  0.00     0.003 A 
HETATM   10  C   UNL     1       5.275  28.007  56.742  1.00  0.00     0.029 A 
BRANCH   7  11
HETATM   11  C   UNL     1       9.178  29.638  57.207  1.00  0.00     0.010 A 
HETATM   12  C   UNL     1      10.409  29.307  56.591  1.00  0.00     0.152 A 
HETATM   13  N   UNL     1      11.430  30.043  57.040  1.00  0.00    -0.187 NA
HETATM   14  N   UNL     1      10.855  30.851  57.946  1.00  0.00    -0.289 N 
HETATM   15  H   UNL     1      11.442  31.518  58.435  1.00  0.00     0.188 HD
HETATM   16  C   UNL     1       9.513  30.647  58.084  1.00  0.00     0.123 A 
ENDBRANCH   7  11
ENDBRANCH   2   5
BRANCH   1  17
HETATM   17  C   UNL     1       5.708  24.713  53.464  1.00  0.00     0.078 C 
HETATM   18  C   UNL     1       4.944  24.735  52.137  1.00  0.00     0.020 C 
BRANCH  17  19
HETATM   19  C   UNL     1       7.143  24.214  53.233  1.00  0.00     0.052 C 
BRANCH  19  20
HETATM   20  C   UNL     1       7.542  22.879  53.819  1.00  0.00    -0.057 A 
HETATM   21  C   UNL     1       7.511  22.601  55.191  1.00  0.00     0.007 A 
HETATM   22  C   UNL     1       7.840  21.329  55.668  1.00  0.00     0.001 A 
HETATM   23  C   UNL     1       8.191  20.315  54.780  1.00  0.00     0.000 A 
HETATM   24  C   UNL     1       8.213  20.570  53.413  1.00  0.00     0.001 A 
HETATM   25  C   UNL     1       7.888  21.841  52.936  1.00  0.00     0.007 A 
ENDBRANCH  19  20
ENDBRANCH  17  19
ENDBRANCH   1  17
TORSDOF 5
ENDMDL
MODEL 3
REMARK VINA RESULT:      -8.9      2.952      8.667
REMARK  5 active torsions:
REMARK  status: ('A' for Active; 'I' for Inactive)
REMARK    1  A    between atoms: C_2  and  C_3 
REMARK    2  A    between atoms: C_2  and  C_18 
REMARK       I    between atoms: C_3  and  N_4 
REMARK    3  A    between atoms: N_4  and  C_5 
REMARK    4  A    between atoms: C_7  and  C_8 
REMARK    5  A    between atoms: C_18  and  C_19 
ROOT
HETATM    1  C   UNL     1       6.268  27.394  55.470  1.00  0.00     0.226 C 
HETATM    2  N   UNL     1       7.439  26.829  55.005  1.00  0.00    -0.327 N 
HETATM    3  O   UNL     1       5.133  27.054  55.137  1.00  0.00    -0.273 OA
HETATM    4  H   UNL     1       8.292  27.354  55.143  1.00  0.00     0.169 HD
ENDROOT
BRANCH   2   5
HETATM    5  C   UNL     1       7.568  25.657  54.229  1.00  0.00     0.035 A 
HETATM    6  C   UNL     1       7.840  24.395  54.769  1.00  0.00     0.042 A 
HETATM    7  C   UNL     1       8.022  23.276  53.937  1.00  0.00    -0.021 A 
HETATM    8  C   UNL     1       7.915  23.437  52.550  1.00  0.00     0.012 A 
HETATM    9  C   UNL     1       7.640  24.690  52.004  1.00  0.00     0.003 A 
HETATM   10  C   UNL     1       7.476  25.796  52.839  1.00  0.00     0.029 A 
BRANCH   7  11
HETATM   11  C   UNL     1       8.347  21.973  54.493  1.00  0.00     0.010 A 
HETATM   12  C   UNL     1       8.403  20.696  53.886  1.00  0.00     0.152 A 
HETATM   13  N   UNL     1       8.741  19.727  54.743  1.00  0.00    -0.187 NA
HETATM   14  N   UNL     1       8.905  20.384  55.904  1.00  0.00    -0.289 N 
HETATM   15  H   UNL     1       9.170  19.849  56.724  1.00  0.00     0.188 HD
HETATM   16  C   UNL     1       8.679  21.725  55.808  1.00  0.00     0.123 A 
ENDBRANCH   7  11
ENDBRANCH   2   5
BRANCH   1  17
HETATM   17  C   UNL     1       6.440  28.450  56.565  1.00  0.00     0.078 C 
HETATM   18  C   UNL     1       5.120  28.558  57.332  1.00  0.00     0.020 C 
BRANCH  17  19
HETATM   19  C   UNL     1       7.601  28.228  57.550  1.00  0.00     0.052 C 
BRANCH  19  20
HETATM   20  C   UNL     1       8.530  29.384  57.838  1.00  0.00    -0.057 A 
HETATM   21  C   UNL     1       8.281  30.345  58.825  1.00  0.00     0.007 A 
HETATM   22  C   UNL     1       9.207  31.360  59.081  1.00  0.00     0.001 A 
HETATM   23  C   UNL     1      10.399  31.422  58.364  1.00  0.00     0.000 A 
HETATM   24  C   UNL     1      10.669  30.466  57.389  1.00  0.00     0.001 A 
HETATM   25  C   UNL     1       9.744  29.454  57.130  1.00  0.00     0.007 A 
ENDBRANCH  19  20
ENDBRANCH  17  19
ENDBRANCH   1  17
TORSDOF 5
ENDMDL
MODEL 4
REMARK VINA RESULT:      -8.8      1.773      2.602
REMARK  5 active torsions:
REMARK  status: ('A' for Active; 'I' for Inactive)
REMARK    1  A    between atoms: C_2  and  C_3 
REMARK    2  A    between atoms: C_2  and  C_18 
REMARK       I    between atoms: C_3  and  N_4 
REMARK    3  A    between atoms: N_4  and  C_5 
REMARK    4  A    between atoms: C_7  and  C_8 
REMARK    5  A    between atoms: C_18  and  C_19 
ROOT
HETATM    1  C   UNL     1       7.450  26.236  55.804  1.00  0.00     0.226 C 
HETATM    2  N   UNL     1       6.940  26.722  56.991  1.00  0.00    -0.327 N 
HETATM    3  O   UNL     1       7.549  26.876  54.757  1.00  0.00    -0.273 OA
HETATM    4  H   UNL     1       6.670  26.045  57.690  1.00  0.00     0.169 HD
ENDROOT
BRANCH   2   5
HETATM    5  C   UNL     1       6.619  28.063  57.293  1.00  0.00     0.035 A 
HETATM    6  C   UNL     1       7.490  28.942  57.946  1.00  0.00     0.042 A 
HETATM    7  C   UNL     1       7.088  30.248  58.277  1.00  0.00    -0.021 A 
HETATM    8  C   UNL     1       5.798  30.668  57.930  1.00  0.00     0.012 A 
HETATM    9  C   UNL     1       4.925  29.802  57.274  1.00  0.00     0.003 A 
HETATM   10  C   UNL     1       5.331  28.503  56.965  1.00  0.00     0.029 A 
BRANCH   7  11
HETATM   11  C   UNL     1       7.975  31.147  58.995  1.00  0.00     0.010 A 
HETATM   12  C   UNL     1       9.351  31.429  58.816  1.00  0.00     0.152 A 
HETATM   13  N   UNL     1       9.817  32.324  59.692  1.00  0.00    -0.187 NA
HETATM   14  N   UNL     1       8.738  32.621  60.436  1.00  0.00    -0.289 N 
HETATM   15  H   UNL     1       8.843  33.296  61.186  1.00  0.00     0.188 HD
HETATM   16  C   UNL     1       7.615  31.943  60.061  1.00  0.00     0.123 A 
ENDBRANCH   7  11
ENDBRANCH   2   5
BRANCH   1  17
HETATM   17  C   UNL     1       8.026  24.818  55.871  1.00  0.00     0.078 C 
HETATM   18  C   UNL     1       8.577  24.596  57.282  1.00  0.00     0.020 C 
BRANCH  17  19
HETATM   19  C   UNL     1       7.067  23.675  55.498  1.00  0.00     0.052 C 
BRANCH  19  20
HETATM   20  C   UNL     1       7.655  22.390  54.962  1.00  0.00    -0.057 A 
HETATM   21  C   UNL     1       7.932  21.278  55.766  1.00  0.00     0.007 A 
HETATM   22  C   UNL     1       8.425  20.097  55.202  1.00  0.00     0.001 A 
HETATM   23  C   UNL     1       8.634  20.008  53.829  1.00  0.00     0.000 A 
HETATM   24  C   UNL     1       8.349  21.099  53.014  1.00  0.00     0.001 A 
HETATM   25  C   UNL     1       7.861  22.279  53.576  1.00  0.00     0.007 A 
ENDBRANCH  19  20
ENDBRANCH  17  19
ENDBRANCH   1  17
TORSDOF 5
ENDMDL
MODEL 5
REMARK VINA RESULT:      -8.7      5.556      8.440
REMARK  5 active torsions:
REMARK  status: ('A' for Active; 'I' for Inactive)
REMARK    1  A    between atoms: C_2  and  C_3 
REMARK    2  A    between atoms: C_2  and  C_18 
REMARK       I    between atoms: C_3  and  N_4 
REMARK    3  A    between atoms: N_4  and  C_5 
REMARK    4  A    between atoms: C_7  and  C_8 
REMARK    5  A    between atoms: C_18  and  C_19 
ROOT
HETATM    1  C   UNL     1       7.249  25.488  52.912  1.00  0.00     0.226 C 
HETATM    2  N   UNL     1       6.009  26.088  52.824  1.00  0.00    -0.327 N 
HETATM    3  O   UNL     1       8.072  25.421  51.999  1.00  0.00    -0.273 OA
HETATM    4  H   UNL     1       5.330  25.854  53.536  1.00  0.00     0.169 HD
ENDROOT
BRANCH   2   5
HETATM    5  C   UNL     1       5.526  26.892  51.769  1.00  0.00     0.035 A 
HETATM    6  C   UNL     1       4.815  26.390  50.673  1.00  0.00     0.042 A 
HETATM    7  C   UNL     1       4.417  27.233  49.621  1.00  0.00    -0.021 A 
HETATM    8  C   UNL     1       4.730  28.596  49.689  1.00  0.00     0.012 A 
HETATM    9  C   UNL     1       5.433  29.107  50.779  1.00  0.00     0.003 A 
HETATM   10  C   UNL     1       5.836  28.257  51.809  1.00  0.00     0.029 A 
BRANCH   7  11
HETATM   11  C   UNL     1       3.717  26.706  48.461  1.00  0.00     0.010 A 
HETATM   12  C   UNL     1       3.569  25.379  47.994  1.00  0.00     0.152 A 
HETATM   13  N   UNL     1       2.847  25.300  46.872  1.00  0.00    -0.187 NA
HETATM   14  N   UNL     1       2.528  26.579  46.618  1.00  0.00    -0.289 N 
HETATM   15  H   UNL     1       1.968  26.781  45.796  1.00  0.00     0.188 HD
HETATM   16  C   UNL     1       3.026  27.458  47.535  1.00  0.00     0.123 A 
ENDBRANCH   7  11
ENDBRANCH   2   5
BRANCH   1  17
HETATM   17  C   UNL     1       7.630  24.972  54.302  1.00  0.00     0.078 C 
HETATM   18  C   UNL     1       7.420  26.110  55.304  1.00  0.00     0.020 C 
BRANCH  17  19
HETATM   19  C   UNL     1       6.898  23.709  54.785  1.00  0.00     0.052 C 
BRANCH  19  20
HETATM   20  C   UNL     1       7.593  22.375  54.637  1.00  0.00    -0.057 A 
HETATM   21  C   UNL     1       7.887  21.537  55.719  1.00  0.00     0.007 A 
HETATM   22  C   UNL     1       8.482  20.289  55.513  1.00  0.00     0.001 A 
HETATM   23  C   UNL     1       8.779  19.857  54.222  1.00  0.00     0.000 A 
HETATM   24  C   UNL     1       8.480  20.671  53.135  1.00  0.00     0.001 A 
HETATM   25  C   UNL     1       7.889  21.919  53.340  1.00  0.00     0.007 A 
ENDBRANCH  19  20
ENDBRANCH  17  19
ENDBRANCH   1  17
TORSDOF 5
ENDMDL
MODEL 6
REMARK VINA RESULT:      -8.6      2.308      3.047
REMARK  5 active torsions:
REMARK  status: ('A' for Active; 'I' for Inactive)
REMARK    1  A    between atoms: C_2  and  C_3 
REMARK    2  A    between atoms: C_2  and  C_18 
REMARK       I    between atoms: C_3  and  N_4 
REMARK    3  A    between atoms: N_4  and  C_5 
REMARK    4  A    between atoms: C_7  and  C_8 
REMARK    5  A    between atoms: C_18  and  C_19 
ROOT
HETATM    1  C   UNL     1       6.323  26.032  54.058  1.00  0.00     0.226 C 
HETATM    2  N   UNL     1       5.917  26.209  55.366  1.00  0.00    -0.327 N 
HETATM    3  O   UNL     1       6.962  26.848  53.395  1.00  0.00    -0.273 OA
HETATM    4  H   UNL     1       5.189  25.600  55.711  1.00  0.00     0.169 HD
ENDROOT
BRANCH   2   5
HETATM    5  C   UNL     1       6.307  27.243  56.244  1.00  0.00     0.035 A 
HETATM    6  C   UNL     1       5.488  28.327  56.578  1.00  0.00     0.042 A 
HETATM    7  C   UNL     1       5.958  29.361  57.408  1.00  0.00    -0.021 A 
HETATM    8  C   UNL     1       7.262  29.285  57.913  1.00  0.00     0.012 A 
HETATM    9  C   UNL     1       8.083  28.206  57.589  1.00  0.00     0.003 A 
HETATM   10  C   UNL     1       7.611  27.195  56.752  1.00  0.00     0.029 A 
BRANCH   7  11
HETATM   11  C   UNL     1       5.124  30.509  57.721  1.00  0.00     0.010 A 
HETATM   12  C   UNL     1       3.729  30.705  57.585  1.00  0.00     0.152 A 
HETATM   13  N   UNL     1       3.333  31.918  57.982  1.00  0.00    -0.187 NA
HETATM   14  N   UNL     1       4.476  32.503  58.378  1.00  0.00    -0.289 N 
HETATM   15  H   UNL     1       4.431  33.453  58.731  1.00  0.00     0.188 HD
HETATM   16  C   UNL     1       5.573  31.705  58.240  1.00  0.00     0.123 A 
ENDBRANCH   7  11
ENDBRANCH   2   5
BRANCH   1  17
HETATM   17  C   UNL     1       6.024  24.653  53.462  1.00  0.00     0.078 C 
HETATM   18  C   UNL     1       5.012  24.836  52.328  1.00  0.00     0.020 C 
BRANCH  17  19
HETATM   19  C   UNL     1       7.236  23.852  52.958  1.00  0.00     0.052 C 
BRANCH  19  20
HETATM   20  C   UNL     1       7.603  22.575  53.677  1.00  0.00    -0.057 A 
HETATM   21  C   UNL     1       8.083  21.434  53.024  1.00  0.00     0.007 A 
HETATM   22  C   UNL     1       8.457  20.300  53.751  1.00  0.00     0.001 A 
HETATM   23  C   UNL     1       8.370  20.297  55.141  1.00  0.00     0.000 A 
HETATM   24  C   UNL     1       7.909  21.428  55.807  1.00  0.00     0.001 A 
HETATM   25  C   UNL     1       7.531  22.558  55.082  1.00  0.00     0.007 A 
ENDBRANCH  19  20
ENDBRANCH  17  19
ENDBRANCH   1  17
TORSDOF 5
ENDMDL
MODEL 7
REMARK VINA RESULT:      -8.2      2.667      3.399
REMARK  5 active torsions:
REMARK  status: ('A' for Active; 'I' for Inactive)
REMARK    1  A    between atoms: C_2  and  C_3 
REMARK    2  A    between atoms: C_2  and  C_18 
REMARK       I    between atoms: C_3  and  N_4 
REMARK    3  A    between atoms: N_4  and  C_5 
REMARK    4  A    between atoms: C_7  and  C_8 
REMARK    5  A    between atoms: C_18  and  C_19 
ROOT
HETATM    1  C   UNL     1       7.453  26.470  55.991  1.00  0.00     0.226 C 
HETATM    2  N   UNL     1       7.055  27.011  57.197  1.00  0.00    -0.327 N 
HETATM    3  O   UNL     1       7.493  27.074  54.919  1.00  0.00    -0.273 OA
HETATM    4  H   UNL     1       6.815  26.365  57.937  1.00  0.00     0.169 HD
ENDROOT
BRANCH   2   5
HETATM    5  C   UNL     1       6.806  28.372  57.478  1.00  0.00     0.035 A 
HETATM    6  C   UNL     1       5.675  29.063  57.031  1.00  0.00     0.042 A 
HETATM    7  C   UNL     1       5.516  30.436  57.289  1.00  0.00    -0.021 A 
HETATM    8  C   UNL     1       6.506  31.108  58.017  1.00  0.00     0.012 A 
HETATM    9  C   UNL     1       7.634  30.426  58.472  1.00  0.00     0.003 A 
HETATM   10  C   UNL     1       7.787  29.067  58.196  1.00  0.00     0.029 A 
BRANCH   7  11
HETATM   11  C   UNL     1       4.364  31.165  56.787  1.00  0.00     0.010 A 
HETATM   12  C   UNL     1       3.036  30.742  56.540  1.00  0.00     0.152 A 
HETATM   13  N   UNL     1       2.258  31.720  56.068  1.00  0.00    -0.187 NA
HETATM   14  N   UNL     1       3.086  32.777  56.013  1.00  0.00    -0.289 N 
HETATM   15  H   UNL     1       2.716  33.660  55.678  1.00  0.00     0.188 HD
HETATM   16  C   UNL     1       4.355  32.496  56.428  1.00  0.00     0.123 A 
ENDBRANCH   7  11
ENDBRANCH   2   5
BRANCH   1  17
HETATM   17  C   UNL     1       7.981  25.034  56.060  1.00  0.00     0.078 C 
HETATM   18  C   UNL     1       8.552  24.806  57.462  1.00  0.00     0.020 C 
BRANCH  17  19
HETATM   19  C   UNL     1       6.977  23.922  55.717  1.00  0.00     0.052 C 
BRANCH  19  20
HETATM   20  C   UNL     1       7.482  22.695  54.994  1.00  0.00    -0.057 A 
HETATM   21  C   UNL     1       7.776  21.488  55.639  1.00  0.00     0.007 A 
HETATM   22  C   UNL     1       8.188  20.371  54.907  1.00  0.00     0.001 A 
HETATM   23  C   UNL     1       8.300  20.441  53.521  1.00  0.00     0.000 A 
HETATM   24  C   UNL     1       7.998  21.628  52.862  1.00  0.00     0.001 A 
HETATM   25  C   UNL     1       7.590  22.745  53.592  1.00  0.00     0.007 A 
ENDBRANCH  19  20
ENDBRANCH  17  19
ENDBRANCH   1  17
TORSDOF 5
ENDMDL
MODEL 8
REMARK VINA RESULT:      -8.2      2.365      8.931
REMARK  5 active torsions:
REMARK  status: ('A' for Active; 'I' for Inactive)
REMARK    1  A    between atoms: C_2  and  C_3 
REMARK    2  A    between atoms: C_2  and  C_18 
REMARK       I    between atoms: C_3  and  N_4 
REMARK    3  A    between atoms: N_4  and  C_5 
REMARK    4  A    between atoms: C_7  and  C_8 
REMARK    5  A    between atoms: C_18  and  C_19 
ROOT
HETATM    1  C   UNL     1       7.952  28.208  57.336  1.00  0.00     0.226 C 
HETATM    2  N   UNL     1       7.594  28.222  56.002  1.00  0.00    -0.327 N 
HETATM    3  O   UNL     1       7.605  27.359  58.156  1.00  0.00    -0.273 OA
HETATM    4  H   UNL     1       7.717  29.090  55.500  1.00  0.00     0.169 HD
ENDROOT
BRANCH   2   5
HETATM    5  C   UNL     1       6.942  27.195  55.286  1.00  0.00     0.035 A 
HETATM    6  C   UNL     1       7.445  25.896  55.161  1.00  0.00     0.042 A 
HETATM    7  C   UNL     1       6.781  24.934  54.379  1.00  0.00    -0.021 A 
HETATM    8  C   UNL     1       5.592  25.291  53.730  1.00  0.00     0.012 A 
HETATM    9  C   UNL     1       5.081  26.583  53.853  1.00  0.00     0.003 A 
HETATM   10  C   UNL     1       5.758  27.532  54.619  1.00  0.00     0.029 A 
BRANCH   7  11
HETATM   11  C   UNL     1       7.325  23.597  54.213  1.00  0.00     0.010 A 
HETATM   12  C   UNL     1       7.577  22.576  55.160  1.00  0.00     0.152 A 
HETATM   13  N   UNL     1       8.093  21.473  54.610  1.00  0.00    -0.187 NA
HETATM   14  N   UNL     1       8.172  21.784  53.306  1.00  0.00    -0.289 N 
HETATM   15  H   UNL     1       8.542  21.088  52.667  1.00  0.00     0.188 HD
HETATM   16  C   UNL     1       7.728  23.041  53.018  1.00  0.00     0.123 A 
ENDBRANCH   7  11
ENDBRANCH   2   5
BRANCH   1  17
HETATM   17  C   UNL     1       8.945  29.294  57.759  1.00  0.00     0.078 C 
HETATM   18  C   UNL     1      10.002  29.424  56.659  1.00  0.00     0.020 C 
BRANCH  17  19
HETATM   19  C   UNL     1       8.350  30.675  58.079  1.00  0.00     0.052 C 
BRANCH  19  20
HETATM   20  C   UNL     1       8.428  31.180  59.501  1.00  0.00    -0.057 A 
HETATM   21  C   UNL     1       7.669  32.255  59.979  1.00  0.00     0.007 A 
HETATM   22  C   UNL     1       7.745  32.640  61.320  1.00  0.00     0.001 A 
HETATM   23  C   UNL     1       8.570  31.948  62.204  1.00  0.00     0.000 A 
HETATM   24  C   UNL     1       9.320  30.868  61.749  1.00  0.00     0.001 A 
HETATM   25  C   UNL     1       9.247  30.485  60.409  1.00  0.00     0.007 A 
ENDBRANCH  19  20
ENDBRANCH  17  19
ENDBRANCH   1  17
TORSDOF 5
ENDMDL
MODEL 9
REMARK VINA RESULT:      -8.2      3.073      9.062
REMARK  5 active torsions:
REMARK  status: ('A' for Active; 'I' for Inactive)
REMARK    1  A    between atoms: C_2  and  C_3 
REMARK    2  A    between atoms: C_2  and  C_18 
REMARK       I    between atoms: C_3  and  N_4 
REMARK    3  A    between atoms: N_4  and  C_5 
REMARK    4  A    between atoms: C_7  and  C_8 
REMARK    5  A    between atoms: C_18  and  C_19 
ROOT
HETATM    1  C   UNL     1       6.273  26.909  56.025  1.00  0.00     0.226 C 
HETATM    2  N   UNL     1       7.335  26.680  55.174  1.00  0.00    -0.327 N 
HETATM    3  O   UNL     1       5.223  26.266  56.041  1.00  0.00    -0.273 OA
HETATM    4  H   UNL     1       8.016  27.420  55.075  1.00  0.00     0.169 HD
ENDROOT
BRANCH   2   5
HETATM    5  C   UNL     1       7.511  25.578  54.310  1.00  0.00     0.035 A 
HETATM    6  C   UNL     1       7.835  24.290  54.751  1.00  0.00     0.042 A 
HETATM    7  C   UNL     1       8.061  23.247  53.836  1.00  0.00    -0.021 A 
HETATM    8  C   UNL     1       7.944  23.510  52.465  1.00  0.00     0.012 A 
HETATM    9  C   UNL     1       7.616  24.789  52.017  1.00  0.00     0.003 A 
HETATM   10  C   UNL     1       7.410  25.819  52.935  1.00  0.00     0.029 A 
BRANCH   7  11
HETATM   11  C   UNL     1       8.440  21.920  54.290  1.00  0.00     0.010 A 
HETATM   12  C   UNL     1       8.378  20.665  53.638  1.00  0.00     0.152 A 
HETATM   13  N   UNL     1       8.823  19.661  54.399  1.00  0.00    -0.187 NA
HETATM   14  N   UNL     1       9.174  20.271  55.544  1.00  0.00    -0.289 N 
HETATM   15  H   UNL     1       9.550  19.702  56.295  1.00  0.00     0.188 HD
HETATM   16  C   UNL     1       8.963  21.618  55.530  1.00  0.00     0.123 A 
ENDBRANCH   7  11
ENDBRANCH   2   5
BRANCH   1  17
HETATM   17  C   UNL     1       6.505  27.988  57.087  1.00  0.00     0.078 C 
HETATM   18  C   UNL     1       7.907  27.787  57.668  1.00  0.00     0.020 C 
BRANCH  17  19
HETATM   19  C   UNL     1       6.333  29.445  56.627  1.00  0.00     0.052 C 
BRANCH  19  20
HETATM   20  C   UNL     1       5.692  30.428  57.579  1.00  0.00    -0.057 A 
HETATM   21  C   UNL     1       4.309  30.526  57.769  1.00  0.00     0.007 A 
HETATM   22  C   UNL     1       3.779  31.418  58.705  1.00  0.00     0.001 A 
HETATM   23  C   UNL     1       4.624  32.214  59.473  1.00  0.00     0.000 A 
HETATM   24  C   UNL     1       6.002  32.120  59.308  1.00  0.00     0.001 A 
HETATM   25  C   UNL     1       6.532  31.232  58.371  1.00  0.00     0.007 A 
ENDBRANCH  19  20
ENDBRANCH  17  19
ENDBRANCH   1  17
TORSDOF 5
ENDMDL
MODEL 10
REMARK VINA RESULT:      -8.1      7.173      9.461
REMARK  5 active torsions:
REMARK  status: ('A' for Active; 'I' for Inactive)
REMARK    1  A    between atoms: C_2  and  C_3 
REMARK    2  A    between atoms: C_2  and  C_18 
REMARK       I    between atoms: C_3  and  N_4 
REMARK    3  A    between atoms: N_4  and  C_5 
REMARK    4  A    between atoms: C_7  and  C_8 
REMARK    5  A    between atoms: C_18  and  C_19 
ROOT
HETATM    1  C   UNL     1       5.774  27.005  51.884  1.00  0.00     0.226 C 
HETATM    2  N   UNL     1       5.558  26.833  50.531  1.00  0.00    -0.327 N 
HETATM    3  O   UNL     1       5.661  28.069  52.492  1.00  0.00    -0.273 OA
HETATM    4  H   UNL     1       5.930  25.994  50.106  1.00  0.00     0.169 HD
ENDROOT
BRANCH   2   5
HETATM    5  C   UNL     1       4.993  27.765  49.634  1.00  0.00     0.035 A 
HETATM    6  C   UNL     1       3.810  27.539  48.923  1.00  0.00     0.042 A 
HETATM    7  C   UNL     1       3.332  28.480  47.994  1.00  0.00    -0.021 A 
HETATM    8  C   UNL     1       4.052  29.665  47.798  1.00  0.00     0.012 A 
HETATM    9  C   UNL     1       5.229  29.901  48.506  1.00  0.00     0.003 A 
HETATM   10  C   UNL     1       5.702  28.952  49.413  1.00  0.00     0.029 A 
BRANCH   7  11
HETATM   11  C   UNL     1       2.127  28.227  47.222  1.00  0.00     0.010 A 
HETATM   12  C   UNL     1       1.452  27.019  46.929  1.00  0.00     0.152 A 
HETATM   13  N   UNL     1       0.365  27.200  46.173  1.00  0.00    -0.187 NA
HETATM   14  N   UNL     1       0.340  28.529  45.980  1.00  0.00    -0.289 N 
HETATM   15  H   UNL     1      -0.413  28.919  45.422  1.00  0.00     0.188 HD
HETATM   16  C   UNL     1       1.371  29.187  46.583  1.00  0.00     0.123 A 
ENDBRANCH   7  11
ENDBRANCH   2   5
BRANCH   1  17
HETATM   17  C   UNL     1       6.072  25.723  52.667  1.00  0.00     0.078 C 
HETATM   18  C   UNL     1       4.887  24.771  52.485  1.00  0.00     0.020 C 
BRANCH  17  19
HETATM   19  C   UNL     1       7.383  25.000  52.319  1.00  0.00     0.052 C 
BRANCH  19  20
HETATM   20  C   UNL     1       7.859  23.894  53.232  1.00  0.00    -0.057 A 
HETATM   21  C   UNL     1       8.144  24.086  54.589  1.00  0.00     0.007 A 
HETATM   22  C   UNL     1       8.528  23.011  55.396  1.00  0.00     0.001 A 
HETATM   23  C   UNL     1       8.618  21.728  54.861  1.00  0.00     0.000 A 
HETATM   24  C   UNL     1       8.323  21.517  53.517  1.00  0.00     0.001 A 
HETATM   25  C   UNL     1       7.944  22.591  52.711  1.00  0.00     0.007 A 
ENDBRANCH  19  20
ENDBRANCH  17  19
ENDBRANCH   1  17
TORSDOF 5
ENDMDL
