MODEL 1
REMARK VINA RESULT:      -8.9      0.000      0.000
REMARK  5 active torsions:
REMARK  status: ('A' for Active; 'I' for Inactive)
REMARK    1  A    between atoms: O_2  and  C_3 
REMARK    2  A    between atoms: C_7  and  C_8 
REMARK       I    between atoms: C_8  and  N_9 
REMARK    3  A    between atoms: N_9  and  C_10 
REMARK    4  A    between atoms: C_10  and  C_11 
REMARK    5  A    between atoms: C_11  and  C_12 
ROOT
HETATM    1  C   UNL     1       7.205  27.208  56.651  1.00  0.00     0.251 C 
HETATM    2  N   UNL     1       6.295  27.319  55.626  1.00  0.00    -0.356 N 
HETATM    3  O   UNL     1       7.596  26.133  57.094  1.00  0.00    -0.268 OA
HETATM    4  H   UNL     1       5.895  28.214  55.370  1.00  0.00     0.162 HD
ENDROOT
BRANCH   2   5
HETATM    5  C   UNL     1       5.617  26.158  55.078  1.00  0.00     0.130 C 
BRANCH   5   6
HETATM    6  C   UNL     1       6.277  25.662  53.791  1.00  0.00     0.098 C 
BRANCH   6   7
HETATM    7  C   UNL     1       6.839  24.285  53.953  1.00  0.00     0.106 A 
HETATM    8  N   UNL     1       7.244  23.472  52.996  1.00  0.00    -0.233 NA
HETATM    9  C   UNL     1       7.686  22.338  53.637  1.00  0.00     0.085 A 
HETATM   10  C   UNL     1       7.547  22.461  55.015  1.00  0.00     0.062 A 
HETATM   11  C   UNL     1       8.224  21.157  53.107  1.00  0.00     0.034 A 
HETATM   12  N   UNL     1       6.997  23.704  55.189  1.00  0.00    -0.343 N 
HETATM   13  C   UNL     1       7.923  21.465  55.917  1.00  0.00     0.032 A 
HETATM   14  H   UNL     1       6.757  24.122  56.075  1.00  0.00     0.167 HD
HETATM   15  C   UNL     1       8.461  20.294  55.370  1.00  0.00     0.002 A 
HETATM   16  C   UNL     1       8.610  20.138  53.990  1.00  0.00     0.002 A 
ENDBRANCH   6   7
ENDBRANCH   5   6
ENDBRANCH   2   5
BRANCH   1  17
HETATM   17  C   UNL     1       7.748  28.472  57.215  1.00  0.00     0.035 A 
HETATM   18  C   UNL     1       6.937  29.436  57.823  1.00  0.00     0.044 A 
HETATM   19  C   UNL     1       7.510  30.609  58.322  1.00  0.00     0.070 A 
HETATM   20  C   UNL     1       8.894  30.819  58.243  1.00  0.00     0.111 A 
HETATM   21 CL   UNL     1       6.464  31.784  59.039  1.00  0.00    -0.081 Cl
HETATM   22  C   UNL     1       9.699  29.856  57.624  1.00  0.00     0.070 A 
HETATM   23  C   UNL     1       9.131  28.682  57.128  1.00  0.00     0.044 A 
HETATM   24 CL   UNL     1      11.400  30.080  57.430  1.00  0.00    -0.081 Cl
BRANCH  20  25
HETATM   25  O   UNL     1       9.433  32.001  58.688  1.00  0.00    -0.352 OA
HETATM   26  C   UNL     1       9.717  31.935  60.087  1.00  0.00     0.210 C 
ENDBRANCH  20  25
ENDBRANCH   1  17
TORSDOF 5
ENDMDL
MODEL 2
REMARK VINA RESULT:      -8.8      3.539      9.029
REMARK  5 active torsions:
REMARK  status: ('A' for Active; 'I' for Inactive)
REMARK    1  A    between atoms: O_2  and  C_3 
REMARK    2  A    between atoms: C_7  and  C_8 
REMARK       I    between atoms: C_8  and  N_9 
REMARK    3  A    between atoms: N_9  and  C_10 
REMARK    4  A    between atoms: C_10  and  C_11 
REMARK    5  A    between atoms: C_11  and  C_12 
ROOT
HETATM    1  C   UNL     1       7.445  25.850  57.128  1.00  0.00     0.251 C 
HETATM    2  N   UNL     1       6.618  26.816  56.603  1.00  0.00    -0.356 N 
HETATM    3  O   UNL     1       7.875  25.881  58.276  1.00  0.00    -0.268 OA
HETATM    4  H   UNL     1       6.386  26.831  55.617  1.00  0.00     0.162 HD
ENDROOT
BRANCH   2   5
HETATM    5  C   UNL     1       6.301  28.029  57.334  1.00  0.00     0.130 C 
BRANCH   5   6
HETATM    6  C   UNL     1       7.346  29.123  57.114  1.00  0.00     0.098 C 
BRANCH   6   7
HETATM    7  C   UNL     1       7.624  29.884  58.371  1.00  0.00     0.106 A 
HETATM    8  N   UNL     1       8.658  29.739  59.179  1.00  0.00    -0.233 NA
HETATM    9  C   UNL     1       8.475  30.664  60.180  1.00  0.00     0.085 A 
HETATM   10  C   UNL     1       7.306  31.388  59.981  1.00  0.00     0.062 A 
HETATM   11  C   UNL     1       9.272  30.947  61.299  1.00  0.00     0.034 A 
HETATM   12  N   UNL     1       6.778  30.867  58.829  1.00  0.00    -0.343 N 
HETATM   13  C   UNL     1       6.873  32.401  60.838  1.00  0.00     0.032 A 
HETATM   14  H   UNL     1       5.918  31.160  58.390  1.00  0.00     0.167 HD
HETATM   15  C   UNL     1       7.682  32.671  61.948  1.00  0.00     0.002 A 
HETATM   16  C   UNL     1       8.860  31.959  62.179  1.00  0.00     0.002 A 
ENDBRANCH   6   7
ENDBRANCH   5   6
ENDBRANCH   2   5
BRANCH   1  17
HETATM   17  C   UNL     1       7.798  24.707  56.245  1.00  0.00     0.035 A 
HETATM   18  C   UNL     1       8.157  23.451  56.747  1.00  0.00     0.044 A 
HETATM   19  C   UNL     1       8.489  22.422  55.861  1.00  0.00     0.070 A 
HETATM   20  C   UNL     1       8.441  22.626  54.475  1.00  0.00     0.111 A 
HETATM   21 CL   UNL     1       8.955  20.896  56.527  1.00  0.00    -0.081 Cl
HETATM   22  C   UNL     1       8.091  23.887  53.980  1.00  0.00     0.070 A 
HETATM   23  C   UNL     1       7.755  24.917  54.860  1.00  0.00     0.044 A 
HETATM   24 CL   UNL     1       8.078  24.229  52.288  1.00  0.00    -0.081 Cl
BRANCH  20  25
HETATM   25  O   UNL     1       8.824  21.621  53.622  1.00  0.00    -0.352 OA
HETATM   26  C   UNL     1       7.712  20.789  53.285  1.00  0.00     0.210 C 
ENDBRANCH  20  25
ENDBRANCH   1  17
TORSDOF 5
ENDMDL
MODEL 3
REMARK VINA RESULT:      -8.8      3.755      7.379
REMARK  5 active torsions:
REMARK  status: ('A' for Active; 'I' for Inactive)
REMARK    1  A    between atoms: O_2  and  C_3 
REMARK    2  A    between atoms: C_7  and  C_8 
REMARK       I    between atoms: C_8  and  N_9 
REMARK    3  A    between atoms: N_9  and  C_10 
REMARK    4  A    between atoms: C_10  and  C_11 
REMARK    5  A    between atoms: C_11  and  C_12 
ROOT
HETATM    1  C   UNL     1       5.957  24.836  52.617  1.00  0.00     0.251 C 
HETATM    2  N   UNL     1       6.462  25.961  52.007  1.00  0.00    -0.356 N 
HETATM    3  O   UNL     1       4.773  24.517  52.574  1.00  0.00    -0.268 OA
HETATM    4  H   UNL     1       7.414  26.266  52.168  1.00  0.00     0.162 HD
ENDROOT
BRANCH   2   5
HETATM    5  C   UNL     1       5.596  26.939  51.374  1.00  0.00     0.130 C 
BRANCH   5   6
HETATM    6  C   UNL     1       5.668  28.302  52.063  1.00  0.00     0.098 C 
BRANCH   6   7
HETATM    7  C   UNL     1       6.191  28.189  53.460  1.00  0.00     0.106 A 
HETATM    8  N   UNL     1       5.585  27.642  54.497  1.00  0.00    -0.233 NA
HETATM    9  C   UNL     1       6.463  27.770  55.548  1.00  0.00     0.085 A 
HETATM   10  C   UNL     1       7.630  28.409  55.144  1.00  0.00     0.062 A 
HETATM   11  C   UNL     1       6.336  27.360  56.882  1.00  0.00     0.034 A 
HETATM   12  N   UNL     1       7.428  28.675  53.816  1.00  0.00    -0.343 N 
HETATM   13  C   UNL     1       8.701  28.667  56.001  1.00  0.00     0.032 A 
HETATM   14  H   UNL     1       8.080  29.141  53.202  1.00  0.00     0.167 HD
HETATM   15  C   UNL     1       8.557  28.248  57.329  1.00  0.00     0.002 A 
HETATM   16  C   UNL     1       7.395  27.607  57.766  1.00  0.00     0.002 A 
ENDBRANCH   6   7
ENDBRANCH   5   6
ENDBRANCH   2   5
BRANCH   1  17
HETATM   17  C   UNL     1       6.923  23.964  53.337  1.00  0.00     0.035 A 
HETATM   18  C   UNL     1       7.332  22.723  52.840  1.00  0.00     0.044 A 
HETATM   19  C   UNL     1       8.235  21.947  53.573  1.00  0.00     0.070 A 
HETATM   20  C   UNL     1       8.755  22.411  54.789  1.00  0.00     0.111 A 
HETATM   21 CL   UNL     1       8.689  20.406  52.933  1.00  0.00    -0.081 Cl
HETATM   22  C   UNL     1       8.334  23.650  55.286  1.00  0.00     0.070 A 
HETATM   23  C   UNL     1       7.436  24.429  54.556  1.00  0.00     0.044 A 
HETATM   24 CL   UNL     1       8.880  24.253  56.809  1.00  0.00    -0.081 Cl
BRANCH  20  25
HETATM   25  O   UNL     1       9.596  21.612  55.522  1.00  0.00    -0.352 OA
HETATM   26  C   UNL     1       8.854  20.749  56.386  1.00  0.00     0.210 C 
ENDBRANCH  20  25
ENDBRANCH   1  17
TORSDOF 5
ENDMDL
MODEL 4
REMARK VINA RESULT:      -8.8      3.771      7.309
REMARK  5 active torsions:
REMARK  status: ('A' for Active; 'I' for Inactive)
REMARK    1  A    between atoms: O_2  and  C_3 
REMARK    2  A    between atoms: C_7  and  C_8 
REMARK       I    between atoms: C_8  and  N_9 
REMARK    3  A    between atoms: N_9  and  C_10 
REMARK    4  A    between atoms: C_10  and  C_11 
REMARK    5  A    between atoms: C_11  and  C_12 
ROOT
HETATM    1  C   UNL     1       5.981  24.873  52.610  1.00  0.00     0.251 C 
HETATM    2  N   UNL     1       6.494  26.015  52.041  1.00  0.00    -0.356 N 
HETATM    3  O   UNL     1       4.815  24.515  52.476  1.00  0.00    -0.268 OA
HETATM    4  H   UNL     1       7.420  26.350  52.275  1.00  0.00     0.162 HD
ENDROOT
BRANCH   2   5
HETATM    5  C   UNL     1       5.647  26.966  51.343  1.00  0.00     0.130 C 
BRANCH   5   6
HETATM    6  C   UNL     1       5.503  28.279  52.113  1.00  0.00     0.098 C 
BRANCH   6   7
HETATM    7  C   UNL     1       6.075  28.180  53.491  1.00  0.00     0.106 A 
HETATM    8  N   UNL     1       5.510  27.631  54.551  1.00  0.00    -0.233 NA
HETATM    9  C   UNL     1       6.423  27.774  55.570  1.00  0.00     0.085 A 
HETATM   10  C   UNL     1       7.568  28.424  55.124  1.00  0.00     0.062 A 
HETATM   11  C   UNL     1       6.345  27.370  56.910  1.00  0.00     0.034 A 
HETATM   12  N   UNL     1       7.317  28.680  53.802  1.00  0.00    -0.343 N 
HETATM   13  C   UNL     1       8.665  28.697  55.943  1.00  0.00     0.032 A 
HETATM   14  H   UNL     1       7.943  29.150  53.164  1.00  0.00     0.167 HD
HETATM   15  C   UNL     1       8.570  28.284  57.277  1.00  0.00     0.002 A 
HETATM   16  C   UNL     1       7.432  27.632  57.756  1.00  0.00     0.002 A 
ENDBRANCH   6   7
ENDBRANCH   5   6
ENDBRANCH   2   5
BRANCH   1  17
HETATM   17  C   UNL     1       6.917  24.031  53.402  1.00  0.00     0.035 A 
HETATM   18  C   UNL     1       7.452  24.447  54.626  1.00  0.00     0.044 A 
HETATM   19  C   UNL     1       8.337  23.612  55.314  1.00  0.00     0.070 A 
HETATM   20  C   UNL     1       8.675  22.350  54.803  1.00  0.00     0.111 A 
HETATM   21 CL   UNL     1       8.995  24.180  56.808  1.00  0.00    -0.081 Cl
HETATM   22  C   UNL     1       8.144  21.944  53.573  1.00  0.00     0.070 A 
HETATM   23  C   UNL     1       7.258  22.774  52.885  1.00  0.00     0.044 A 
HETATM   24 CL   UNL     1       8.571  20.435  52.852  1.00  0.00    -0.081 Cl
BRANCH  20  25
HETATM   25  O   UNL     1       9.588  21.567  55.464  1.00  0.00    -0.352 OA
HETATM   26  C   UNL     1       8.930  20.646  56.337  1.00  0.00     0.210 C 
ENDBRANCH  20  25
ENDBRANCH   1  17
TORSDOF 5
ENDMDL
MODEL 5
REMARK VINA RESULT:      -8.7      0.408      2.239
REMARK  5 active torsions:
REMARK  status: ('A' for Active; 'I' for Inactive)
REMARK    1  A    between atoms: O_2  and  C_3 
REMARK    2  A    between atoms: C_7  and  C_8 
REMARK       I    between atoms: C_8  and  N_9 
REMARK    3  A    between atoms: N_9  and  C_10 
REMARK    4  A    between atoms: C_10  and  C_11 
REMARK    5  A    between atoms: C_11  and  C_12 
ROOT
HETATM    1  C   UNL     1       7.474  27.190  56.962  1.00  0.00     0.251 C 
HETATM    2  N   UNL     1       6.285  27.214  56.272  1.00  0.00    -0.356 N 
HETATM    3  O   UNL     1       8.102  26.162  57.192  1.00  0.00    -0.268 OA
HETATM    4  H   UNL     1       5.727  28.057  56.210  1.00  0.00     0.162 HD
ENDROOT
BRANCH   2   5
HETATM    5  C   UNL     1       5.606  25.992  55.879  1.00  0.00     0.130 C 
BRANCH   5   6
HETATM    6  C   UNL     1       6.046  25.509  54.497  1.00  0.00     0.098 C 
BRANCH   6   7
HETATM    7  C   UNL     1       6.703  24.166  54.562  1.00  0.00     0.106 A 
HETATM    8  N   UNL     1       6.973  23.463  55.646  1.00  0.00    -0.233 NA
HETATM    9  C   UNL     1       7.561  22.304  55.196  1.00  0.00     0.085 A 
HETATM   10  C   UNL     1       7.653  22.300  53.808  1.00  0.00     0.062 A 
HETATM   11  C   UNL     1       8.043  21.201  55.915  1.00  0.00     0.034 A 
HETATM   12  N   UNL     1       7.110  23.499  53.431  1.00  0.00    -0.343 N 
HETATM   13  C   UNL     1       8.201  21.244  53.077  1.00  0.00     0.032 A 
HETATM   14  H   UNL     1       7.019  23.832  52.482  1.00  0.00     0.167 HD
HETATM   15  C   UNL     1       8.674  20.151  53.813  1.00  0.00     0.002 A 
HETATM   16  C   UNL     1       8.600  20.127  55.207  1.00  0.00     0.002 A 
ENDBRANCH   6   7
ENDBRANCH   5   6
ENDBRANCH   2   5
BRANCH   1  17
HETATM   17  C   UNL     1       8.019  28.496  57.418  1.00  0.00     0.035 A 
HETATM   18  C   UNL     1       9.371  28.831  57.298  1.00  0.00     0.044 A 
HETATM   19  C   UNL     1       9.821  30.073  57.758  1.00  0.00     0.070 A 
HETATM   20  C   UNL     1       8.925  30.997  58.315  1.00  0.00     0.111 A 
HETATM   21 CL   UNL     1      11.506  30.431  57.615  1.00  0.00    -0.081 Cl
HETATM   22  C   UNL     1       7.575  30.651  58.442  1.00  0.00     0.070 A 
HETATM   23  C   UNL     1       7.122  29.414  57.981  1.00  0.00     0.044 A 
HETATM   24 CL   UNL     1       6.430  31.711  59.181  1.00  0.00    -0.081 Cl
BRANCH  20  25
HETATM   25  O   UNL     1       9.393  32.187  58.812  1.00  0.00    -0.352 OA
HETATM   26  C   UNL     1       9.662  32.084  60.212  1.00  0.00     0.210 C 
ENDBRANCH  20  25
ENDBRANCH   1  17
TORSDOF 5
ENDMDL
MODEL 6
REMARK VINA RESULT:      -8.6      5.113      8.245
REMARK  5 active torsions:
REMARK  status: ('A' for Active; 'I' for Inactive)
REMARK    1  A    between atoms: O_2  and  C_3 
REMARK    2  A    between atoms: C_7  and  C_8 
REMARK       I    between atoms: C_8  and  N_9 
REMARK    3  A    between atoms: N_9  and  C_10 
REMARK    4  A    between atoms: C_10  and  C_11 
REMARK    5  A    between atoms: C_11  and  C_12 
ROOT
HETATM    1  C   UNL     1       5.957  25.232  52.994  1.00  0.00     0.251 C 
HETATM    2  N   UNL     1       6.149  26.551  53.332  1.00  0.00    -0.356 N 
HETATM    3  O   UNL     1       5.082  24.852  52.223  1.00  0.00    -0.268 OA
HETATM    4  H   UNL     1       6.792  26.819  54.067  1.00  0.00     0.162 HD
ENDROOT
BRANCH   2   5
HETATM    5  C   UNL     1       5.231  27.590  52.903  1.00  0.00     0.130 C 
BRANCH   5   6
HETATM    6  C   UNL     1       5.637  28.198  51.560  1.00  0.00     0.098 C 
BRANCH   6   7
HETATM    7  C   UNL     1       4.713  27.781  50.460  1.00  0.00     0.106 A 
HETATM    8  N   UNL     1       3.587  28.366  50.100  1.00  0.00    -0.233 NA
HETATM    9  C   UNL     1       3.109  27.628  49.043  1.00  0.00     0.085 A 
HETATM   10  C   UNL     1       3.961  26.569  48.752  1.00  0.00     0.062 A 
HETATM   11  C   UNL     1       1.949  27.802  48.275  1.00  0.00     0.034 A 
HETATM   12  N   UNL     1       4.968  26.682  49.673  1.00  0.00    -0.343 N 
HETATM   13  C   UNL     1       3.730  25.657  47.720  1.00  0.00     0.032 A 
HETATM   14  H   UNL     1       5.765  26.068  49.755  1.00  0.00     0.167 HD
HETATM   15  C   UNL     1       2.569  25.849  46.962  1.00  0.00     0.002 A 
HETATM   16  C   UNL     1       1.691  26.901  47.232  1.00  0.00     0.002 A 
ENDBRANCH   6   7
ENDBRANCH   5   6
ENDBRANCH   2   5
BRANCH   1  17
HETATM   17  C   UNL     1       6.891  24.238  53.587  1.00  0.00     0.035 A 
HETATM   18  C   UNL     1       7.178  23.015  52.973  1.00  0.00     0.044 A 
HETATM   19  C   UNL     1       8.056  22.120  53.590  1.00  0.00     0.070 A 
HETATM   20  C   UNL     1       8.673  22.445  54.806  1.00  0.00     0.111 A 
HETATM   21 CL   UNL     1       8.359  20.608  52.808  1.00  0.00    -0.081 Cl
HETATM   22  C   UNL     1       8.373  23.667  55.421  1.00  0.00     0.070 A 
HETATM   23  C   UNL     1       7.500  24.564  54.807  1.00  0.00     0.044 A 
HETATM   24 CL   UNL     1       9.042  24.102  56.952  1.00  0.00    -0.081 Cl
BRANCH  20  25
HETATM   25  O   UNL     1       9.489  21.531  55.425  1.00  0.00    -0.352 OA
HETATM   26  C   UNL     1       8.735  20.682  56.293  1.00  0.00     0.210 C 
ENDBRANCH  20  25
ENDBRANCH   1  17
TORSDOF 5
ENDMDL
MODEL 7
REMARK VINA RESULT:      -8.5      5.161      8.194
REMARK  5 active torsions:
REMARK  status: ('A' for Active; 'I' for Inactive)
REMARK    1  A    between atoms: O_2  and  C_3 
REMARK    2  A    between atoms: C_7  and  C_8 
REMARK       I    between atoms: C_8  and  N_9 
REMARK    3  A    between atoms: N_9  and  C_10 
REMARK    4  A    between atoms: C_10  and  C_11 
REMARK    5  A    between atoms: C_11  and  C_12 
ROOT
HETATM    1  C   UNL     1       5.726  25.073  53.142  1.00  0.00     0.251 C 
HETATM    2  N   UNL     1       5.796  26.411  53.453  1.00  0.00    -0.356 N 
HETATM    3  O   UNL     1       4.909  24.603  52.358  1.00  0.00    -0.268 OA
HETATM    4  H   UNL     1       6.393  26.748  54.198  1.00  0.00     0.162 HD
ENDROOT
BRANCH   2   5
HETATM    5  C   UNL     1       4.805  27.358  52.976  1.00  0.00     0.130 C 
BRANCH   5   6
HETATM    6  C   UNL     1       5.260  28.073  51.704  1.00  0.00     0.098 C 
BRANCH   6   7
HETATM    7  C   UNL     1       4.488  27.618  50.506  1.00  0.00     0.106 A 
HETATM    8  N   UNL     1       4.814  26.651  49.668  1.00  0.00    -0.233 NA
HETATM    9  C   UNL     1       3.794  26.603  48.747  1.00  0.00     0.085 A 
HETATM   10  C   UNL     1       2.825  27.561  49.027  1.00  0.00     0.062 A 
HETATM   11  C   UNL     1       3.622  25.762  47.638  1.00  0.00     0.034 A 
HETATM   12  N   UNL     1       3.296  28.199  50.143  1.00  0.00    -0.343 N 
HETATM   13  C   UNL     1       1.671  27.734  48.261  1.00  0.00     0.032 A 
HETATM   14  H   UNL     1       2.839  28.962  50.622  1.00  0.00     0.167 HD
HETATM   15  C   UNL     1       1.516  26.884  47.160  1.00  0.00     0.002 A 
HETATM   16  C   UNL     1       2.472  25.914  46.850  1.00  0.00     0.002 A 
ENDBRANCH   6   7
ENDBRANCH   5   6
ENDBRANCH   2   5
BRANCH   1  17
HETATM   17  C   UNL     1       6.725  24.176  53.782  1.00  0.00     0.035 A 
HETATM   18  C   UNL     1       7.343  24.483  54.998  1.00  0.00     0.044 A 
HETATM   19  C   UNL     1       8.282  23.601  55.540  1.00  0.00     0.070 A 
HETATM   20  C   UNL     1       8.592  22.398  54.890  1.00  0.00     0.111 A 
HETATM   21 CL   UNL     1       9.042  24.037  57.030  1.00  0.00    -0.081 Cl
HETATM   22  C   UNL     1       7.977  22.100  53.669  1.00  0.00     0.070 A 
HETATM   23  C   UNL     1       7.037  22.977  53.126  1.00  0.00     0.044 A 
HETATM   24 CL   UNL     1       8.363  20.671  52.781  1.00  0.00    -0.081 Cl
BRANCH  20  25
HETATM   25  O   UNL     1       9.557  21.570  55.408  1.00  0.00    -0.352 OA
HETATM   26  C   UNL     1       8.972  20.556  56.227  1.00  0.00     0.210 C 
ENDBRANCH  20  25
ENDBRANCH   1  17
TORSDOF 5
ENDMDL
MODEL 8
REMARK VINA RESULT:      -8.3      5.994      8.191
REMARK  5 active torsions:
REMARK  status: ('A' for Active; 'I' for Inactive)
REMARK    1  A    between atoms: O_2  and  C_3 
REMARK    2  A    between atoms: C_7  and  C_8 
REMARK       I    between atoms: C_8  and  N_9 
REMARK    3  A    between atoms: N_9  and  C_10 
REMARK    4  A    between atoms: C_10  and  C_11 
REMARK    5  A    between atoms: C_11  and  C_12 
ROOT
HETATM    1  C   UNL     1       5.471  27.358  51.057  1.00  0.00     0.251 C 
HETATM    2  N   UNL     1       6.035  26.120  51.255  1.00  0.00    -0.356 N 
HETATM    3  O   UNL     1       5.728  28.337  51.751  1.00  0.00    -0.268 OA
HETATM    4  H   UNL     1       5.708  25.305  50.750  1.00  0.00     0.162 HD
ENDROOT
BRANCH   2   5
HETATM    5  C   UNL     1       6.882  25.841  52.401  1.00  0.00     0.130 C 
BRANCH   5   6
HETATM    6  C   UNL     1       7.953  24.798  52.083  1.00  0.00     0.098 C 
BRANCH   6   7
HETATM    7  C   UNL     1       8.008  23.725  53.124  1.00  0.00     0.106 A 
HETATM    8  N   UNL     1       7.861  22.427  52.940  1.00  0.00    -0.233 NA
HETATM    9  C   UNL     1       8.004  21.858  54.184  1.00  0.00     0.085 A 
HETATM   10  C   UNL     1       8.244  22.830  55.149  1.00  0.00     0.062 A 
HETATM   11  C   UNL     1       7.946  20.512  54.570  1.00  0.00     0.034 A 
HETATM   12  N   UNL     1       8.231  24.009  54.451  1.00  0.00    -0.343 N 
HETATM   13  C   UNL     1       8.437  22.540  56.500  1.00  0.00     0.032 A 
HETATM   14  H   UNL     1       8.369  24.928  54.845  1.00  0.00     0.167 HD
HETATM   15  C   UNL     1       8.378  21.190  56.867  1.00  0.00     0.002 A 
HETATM   16  C   UNL     1       8.136  20.191  55.922  1.00  0.00     0.002 A 
ENDBRANCH   6   7
ENDBRANCH   5   6
ENDBRANCH   2   5
BRANCH   1  17
HETATM   17  C   UNL     1       4.526  27.498  49.917  1.00  0.00     0.035 A 
HETATM   18  C   UNL     1       3.920  28.714  49.586  1.00  0.00     0.044 A 
HETATM   19  C   UNL     1       3.031  28.774  48.509  1.00  0.00     0.070 A 
HETATM   20  C   UNL     1       2.759  27.633  47.741  1.00  0.00     0.111 A 
HETATM   21 CL   UNL     1       2.283  30.292  48.156  1.00  0.00    -0.081 Cl
HETATM   22  C   UNL     1       3.361  26.417  48.083  1.00  0.00     0.070 A 
HETATM   23  C   UNL     1       4.252  26.354  49.156  1.00  0.00     0.044 A 
HETATM   24 CL   UNL     1       3.019  24.959  47.224  1.00  0.00    -0.081 Cl
BRANCH  20  25
HETATM   25  O   UNL     1       1.841  27.698  46.722  1.00  0.00    -0.352 OA
HETATM   26  C   UNL     1       0.525  27.420  47.205  1.00  0.00     0.210 C 
ENDBRANCH  20  25
ENDBRANCH   1  17
TORSDOF 5
ENDMDL
MODEL 9
REMARK VINA RESULT:      -8.3      3.716      9.322
REMARK  5 active torsions:
REMARK  status: ('A' for Active; 'I' for Inactive)
REMARK    1  A    between atoms: O_2  and  C_3 
REMARK    2  A    between atoms: C_7  and  C_8 
REMARK       I    between atoms: C_8  and  N_9 
REMARK    3  A    between atoms: N_9  and  C_10 
REMARK    4  A    between atoms: C_10  and  C_11 
REMARK    5  A    between atoms: C_11  and  C_12 
ROOT
HETATM    1  C   UNL     1       6.644  26.271  56.665  1.00  0.00     0.251 C 
HETATM    2  N   UNL     1       7.411  27.395  56.862  1.00  0.00    -0.356 N 
HETATM    3  O   UNL     1       5.514  26.134  57.123  1.00  0.00    -0.268 OA
HETATM    4  H   UNL     1       8.384  27.425  56.581  1.00  0.00     0.162 HD
ENDROOT
BRANCH   2   5
HETATM    5  C   UNL     1       6.990  28.459  57.755  1.00  0.00     0.130 C 
BRANCH   5   6
HETATM    6  C   UNL     1       8.004  29.602  57.806  1.00  0.00     0.098 C 
BRANCH   6   7
HETATM    7  C   UNL     1       7.934  30.348  59.100  1.00  0.00     0.106 A 
HETATM    8  N   UNL     1       8.741  30.225  60.137  1.00  0.00    -0.233 NA
HETATM    9  C   UNL     1       8.281  31.123  61.071  1.00  0.00     0.085 A 
HETATM   10  C   UNL     1       7.169  31.808  60.596  1.00  0.00     0.062 A 
HETATM   11  C   UNL     1       8.765  31.413  62.355  1.00  0.00     0.034 A 
HETATM   12  N   UNL     1       6.962  31.290  59.345  1.00  0.00    -0.343 N 
HETATM   13  C   UNL     1       6.498  32.788  61.331  1.00  0.00     0.032 A 
HETATM   14  H   UNL     1       6.226  31.561  58.710  1.00  0.00     0.167 HD
HETATM   15  C   UNL     1       6.997  33.066  62.608  1.00  0.00     0.002 A 
HETATM   16  C   UNL     1       8.111  32.391  63.116  1.00  0.00     0.002 A 
ENDBRANCH   6   7
ENDBRANCH   5   6
ENDBRANCH   2   5
BRANCH   1  17
HETATM   17  C   UNL     1       7.227  25.192  55.823  1.00  0.00     0.035 A 
HETATM   18  C   UNL     1       7.373  25.313  54.438  1.00  0.00     0.044 A 
HETATM   19  C   UNL     1       7.918  24.255  53.704  1.00  0.00     0.070 A 
HETATM   20  C   UNL     1       8.344  23.083  54.346  1.00  0.00     0.111 A 
HETATM   21 CL   UNL     1       8.052  24.439  51.991  1.00  0.00    -0.081 Cl
HETATM   22  C   UNL     1       8.186  22.964  55.731  1.00  0.00     0.070 A 
HETATM   23  C   UNL     1       7.645  24.019  56.468  1.00  0.00     0.044 A 
HETATM   24 CL   UNL     1       8.624  21.524  56.577  1.00  0.00    -0.081 Cl
BRANCH  20  25
HETATM   25  O   UNL     1       8.825  22.034  53.603  1.00  0.00    -0.352 OA
HETATM   26  C   UNL     1       7.770  21.138  53.245  1.00  0.00     0.210 C 
ENDBRANCH  20  25
ENDBRANCH   1  17
TORSDOF 5
ENDMDL
MODEL 10
REMARK VINA RESULT:      -8.2      2.097      2.912
REMARK  5 active torsions:
REMARK  status: ('A' for Active; 'I' for Inactive)
REMARK    1  A    between atoms: O_2  and  C_3 
REMARK    2  A    between atoms: C_7  and  C_8 
REMARK       I    between atoms: C_8  and  N_9 
REMARK    3  A    between atoms: N_9  and  C_10 
REMARK    4  A    between atoms: C_10  and  C_11 
REMARK    5  A    between atoms: C_11  and  C_12 
ROOT
HETATM    1  C   UNL     1       8.372  28.998  57.553  1.00  0.00     0.251 C 
HETATM    2  N   UNL     1       7.566  27.892  57.423  1.00  0.00    -0.356 N 
HETATM    3  O   UNL     1       9.418  29.149  56.930  1.00  0.00    -0.268 OA
HETATM    4  H   UNL     1       6.779  27.737  58.042  1.00  0.00     0.162 HD
ENDROOT
BRANCH   2   5
HETATM    5  C   UNL     1       7.968  26.742  56.633  1.00  0.00     0.130 C 
BRANCH   5   6
HETATM    6  C   UNL     1       7.990  25.456  57.459  1.00  0.00     0.098 C 
BRANCH   6   7
HETATM    7  C   UNL     1       8.047  24.240  56.589  1.00  0.00     0.106 A 
HETATM    8  N   UNL     1       8.223  22.991  56.976  1.00  0.00    -0.233 NA
HETATM    9  C   UNL     1       8.189  22.239  55.825  1.00  0.00     0.085 A 
HETATM   10  C   UNL     1       7.989  23.047  54.711  1.00  0.00     0.062 A 
HETATM   11  C   UNL     1       8.320  20.855  55.650  1.00  0.00     0.034 A 
HETATM   12  N   UNL     1       7.912  24.315  55.223  1.00  0.00    -0.343 N 
HETATM   13  C   UNL     1       7.904  22.552  53.408  1.00  0.00     0.032 A 
HETATM   14  H   UNL     1       7.773  25.159  54.687  1.00  0.00     0.167 HD
HETATM   15  C   UNL     1       8.034  21.167  53.254  1.00  0.00     0.002 A 
HETATM   16  C   UNL     1       8.240  20.330  54.352  1.00  0.00     0.002 A 
ENDBRANCH   6   7
ENDBRANCH   5   6
ENDBRANCH   2   5
BRANCH   1  17
HETATM   17  C   UNL     1       7.914  30.065  58.482  1.00  0.00     0.035 A 
HETATM   18  C   UNL     1       6.773  30.837  58.238  1.00  0.00     0.044 A 
HETATM   19  C   UNL     1       6.404  31.833  59.147  1.00  0.00     0.070 A 
HETATM   20  C   UNL     1       7.151  32.050  60.313  1.00  0.00     0.111 A 
HETATM   21 CL   UNL     1       5.004  32.781  58.789  1.00  0.00    -0.081 Cl
HETATM   22  C   UNL     1       8.297  31.281  60.546  1.00  0.00     0.070 A 
HETATM   23  C   UNL     1       8.667  30.283  59.644  1.00  0.00     0.044 A 
HETATM   24 CL   UNL     1       9.301  31.540  61.927  1.00  0.00    -0.081 Cl
BRANCH  20  25
HETATM   25  O   UNL     1       6.806  33.069  61.166  1.00  0.00    -0.352 OA
HETATM   26  C   UNL     1       5.914  32.603  62.181  1.00  0.00     0.210 C 
ENDBRANCH  20  25
ENDBRANCH   1  17
TORSDOF 5
ENDMDL
