MODEL 1
REMARK VINA RESULT:     -10.3      0.000      0.000
REMARK  6 active torsions:
REMARK  status: ('A' for Active; 'I' for Inactive)
REMARK    1  A    between atoms: C_3  and  C_4 
REMARK    2  A    between atoms: C_4  and  C_5 
REMARK    3  A    between atoms: N_8  and  C_10 
REMARK    4  A    between atoms: C_10  and  C_11 
REMARK    5  A    between atoms: N_24  and  C_25 
REMARK    6  A    between atoms: C_25  and  C_26 
ROOT
HETATM    1  C   UNL     1       6.427  28.246  56.146  1.00  0.00     0.164 C 
HETATM    2  N   UNL     1       7.859  28.368  55.937  1.00  0.00    -0.319 N 
HETATM    3  C   UNL     1       8.441  29.327  56.732  1.00  0.00     0.326 C 
HETATM    4  O   UNL     1       9.643  29.456  56.866  1.00  0.00    -0.247 OA
HETATM    5  N   UNL     1       7.451  29.996  57.384  1.00  0.00    -0.265 N 
HETATM    6  C   UNL     1       6.233  29.483  57.043  1.00  0.00     0.263 C 
HETATM    7  O   UNL     1       5.160  29.896  57.468  1.00  0.00    -0.270 OA
HETATM    8  H   UNL     1       8.414  27.770  55.334  1.00  0.00     0.166 HD
ENDROOT
BRANCH   1   9
HETATM    9  C   UNL     1       5.685  28.358  54.813  1.00  0.00     0.072 A 
HETATM   10  C   UNL     1       4.307  28.582  54.743  1.00  0.00     0.030 A 
HETATM   11  C   UNL     1       3.695  28.696  53.496  1.00  0.00     0.003 A 
HETATM   12  C   UNL     1       4.465  28.610  52.344  1.00  0.00     0.019 A 
HETATM   13  C   UNL     1       5.825  28.418  52.488  1.00  0.00     0.117 A 
HETATM   14  N   UNL     1       6.443  28.294  53.685  1.00  0.00    -0.262 NA
ENDBRANCH   1   9
BRANCH   1  15
HETATM   15  C   UNL     1       6.127  26.892  56.913  1.00  0.00     0.033 C 
HETATM   16  C   UNL     1       7.214  26.423  57.901  1.00  0.00     0.036 C 
HETATM   17  C   UNL     1       8.348  25.591  57.315  1.00  0.00     0.235 C 
HETATM   18  N   UNL     1       7.834  24.488  56.424  1.00  0.00    -0.067 N 
HETATM   19  H   UNL     1       7.383  23.790  57.033  1.00  0.00     0.280 HD
HETATM   20  C   UNL     1       6.818  24.926  55.406  1.00  0.00     0.235 C 
HETATM   21  C   UNL     1       5.683  25.684  56.063  1.00  0.00     0.036 C 
BRANCH  18  22
HETATM   22  C   UNL     1       8.971  23.758  55.710  1.00  0.00     0.278 C 
BRANCH  22  23
HETATM   23  C   UNL     1       8.576  22.559  54.903  1.00  0.00     0.028 A 
HETATM   24  C   UNL     1       8.312  21.307  55.470  1.00  0.00     0.045 A 
HETATM   25 CL   UNL     1       8.483  21.049  57.169  1.00  0.00    -0.084 Cl
HETATM   26  C   UNL     1       7.921  20.230  54.669  1.00  0.00     0.024 A 
HETATM   27  C   UNL     1       7.787  20.393  53.289  1.00  0.00     0.005 A 
HETATM   28  C   UNL     1       8.048  21.631  52.711  1.00  0.00     0.043 A 
HETATM   29  C   UNL     1       8.435  22.695  53.518  1.00  0.00     0.126 A 
HETATM   30  F   UNL     1       8.689  23.880  52.945  1.00  0.00    -0.205 F 
ENDBRANCH  22  23
ENDBRANCH  18  22
ENDBRANCH   1  15
BRANCH   5  31
HETATM   31  C   UNL     1       7.651  31.114  58.295  1.00  0.00     0.168 C 
BRANCH  31  32
HETATM   32  C   UNL     1       7.869  30.655  59.747  1.00  0.00     0.140 C 
HETATM   33  O   UNL     1       7.177  31.549  60.631  1.00  0.00    -0.384 OA
HETATM   34  C   UNL     1       8.096  32.562  61.077  1.00  0.00     0.168 C 
HETATM   35  C   UNL     1       9.469  32.203  60.539  1.00  0.00     0.029 C 
HETATM   36  C   UNL     1       9.323  30.745  60.179  1.00  0.00     0.036 C 
ENDBRANCH  31  32
ENDBRANCH   5  31
TORSDOF 6
ENDMDL
MODEL 2
REMARK VINA RESULT:     -10.2      4.173      8.087
REMARK  6 active torsions:
REMARK  status: ('A' for Active; 'I' for Inactive)
REMARK    1  A    between atoms: C_3  and  C_4 
REMARK    2  A    between atoms: C_4  and  C_5 
REMARK    3  A    between atoms: N_8  and  C_10 
REMARK    4  A    between atoms: C_10  and  C_11 
REMARK    5  A    between atoms: N_24  and  C_25 
REMARK    6  A    between atoms: C_25  and  C_26 
ROOT
HETATM    1  C   UNL     1       6.382  26.394  54.433  1.00  0.00     0.164 C 
HETATM    2  N   UNL     1       7.283  26.545  53.305  1.00  0.00    -0.319 N 
HETATM    3  C   UNL     1       8.047  25.426  53.069  1.00  0.00     0.326 C 
HETATM    4  O   UNL     1       8.713  25.260  52.066  1.00  0.00    -0.247 OA
HETATM    5  N   UNL     1       7.832  24.545  54.085  1.00  0.00    -0.265 N 
HETATM    6  C   UNL     1       6.931  25.059  54.972  1.00  0.00     0.263 C 
HETATM    7  O   UNL     1       6.556  24.492  55.990  1.00  0.00    -0.270 OA
HETATM    8  H   UNL     1       7.313  27.348  52.685  1.00  0.00     0.166 HD
ENDROOT
BRANCH   1   9
HETATM    9  C   UNL     1       6.567  27.551  55.418  1.00  0.00     0.072 A 
HETATM   10  C   UNL     1       5.688  27.773  56.482  1.00  0.00     0.030 A 
HETATM   11  C   UNL     1       5.927  28.833  57.355  1.00  0.00     0.003 A 
HETATM   12  C   UNL     1       7.043  29.636  57.171  1.00  0.00     0.019 A 
HETATM   13  C   UNL     1       7.885  29.341  56.117  1.00  0.00     0.117 A 
HETATM   14  N   UNL     1       7.674  28.325  55.248  1.00  0.00    -0.262 NA
ENDBRANCH   1   9
BRANCH   1  15
HETATM   15  C   UNL     1       4.896  26.264  53.899  1.00  0.00     0.033 C 
HETATM   16  C   UNL     1       4.611  25.047  52.996  1.00  0.00     0.036 C 
HETATM   17  C   UNL     1       4.902  25.224  51.511  1.00  0.00     0.235 C 
HETATM   18  N   UNL     1       4.331  26.514  50.975  1.00  0.00    -0.067 N 
HETATM   19  H   UNL     1       3.306  26.408  50.956  1.00  0.00     0.280 HD
HETATM   20  C   UNL     1       4.647  27.730  51.801  1.00  0.00     0.235 C 
HETATM   21  C   UNL     1       4.267  27.514  53.252  1.00  0.00     0.036 C 
BRANCH  18  22
HETATM   22  C   UNL     1       4.760  26.768  49.531  1.00  0.00     0.278 C 
BRANCH  22  23
HETATM   23  C   UNL     1       3.672  27.176  48.586  1.00  0.00     0.028 A 
HETATM   24  C   UNL     1       2.821  26.261  47.957  1.00  0.00     0.045 A 
HETATM   25 CL   UNL     1       3.014  24.561  48.195  1.00  0.00    -0.084 Cl
HETATM   26  C   UNL     1       1.804  26.702  47.104  1.00  0.00     0.024 A 
HETATM   27  C   UNL     1       1.625  28.068  46.873  1.00  0.00     0.005 A 
HETATM   28  C   UNL     1       2.466  28.989  47.489  1.00  0.00     0.043 A 
HETATM   29  C   UNL     1       3.472  28.538  48.336  1.00  0.00     0.126 A 
HETATM   30  F   UNL     1       4.276  29.438  48.917  1.00  0.00    -0.205 F 
ENDBRANCH  22  23
ENDBRANCH  18  22
ENDBRANCH   1  15
BRANCH   5  31
HETATM   31  C   UNL     1       8.485  23.251  54.226  1.00  0.00     0.168 C 
BRANCH  31  32
HETATM   32  C   UNL     1       7.515  22.078  54.003  1.00  0.00     0.140 C 
HETATM   33  O   UNL     1       7.624  21.162  55.102  1.00  0.00    -0.384 OA
HETATM   34  C   UNL     1       8.561  20.128  54.750  1.00  0.00     0.168 C 
HETATM   35  C   UNL     1       8.959  20.344  53.301  1.00  0.00     0.029 C 
HETATM   36  C   UNL     1       7.869  21.248  52.781  1.00  0.00     0.036 C 
ENDBRANCH  31  32
ENDBRANCH   5  31
TORSDOF 6
ENDMDL
MODEL 3
REMARK VINA RESULT:     -10.1      1.820      5.297
REMARK  6 active torsions:
REMARK  status: ('A' for Active; 'I' for Inactive)
REMARK    1  A    between atoms: C_3  and  C_4 
REMARK    2  A    between atoms: C_4  and  C_5 
REMARK    3  A    between atoms: N_8  and  C_10 
REMARK    4  A    between atoms: C_10  and  C_11 
REMARK    5  A    between atoms: N_24  and  C_25 
REMARK    6  A    between atoms: C_25  and  C_26 
ROOT
HETATM    1  C   UNL     1       6.559  28.306  56.322  1.00  0.00     0.164 C 
HETATM    2  N   UNL     1       5.343  29.091  56.206  1.00  0.00    -0.319 N 
HETATM    3  C   UNL     1       4.879  29.182  54.915  1.00  0.00     0.326 C 
HETATM    4  O   UNL     1       3.782  29.615  54.619  1.00  0.00    -0.247 OA
HETATM    5  N   UNL     1       5.807  28.621  54.091  1.00  0.00    -0.265 N 
HETATM    6  C   UNL     1       6.861  28.151  54.819  1.00  0.00     0.263 C 
HETATM    7  O   UNL     1       7.849  27.607  54.340  1.00  0.00    -0.270 OA
HETATM    8  H   UNL     1       4.822  29.477  56.986  1.00  0.00     0.166 HD
ENDROOT
BRANCH   1   9
HETATM    9  C   UNL     1       7.636  29.101  57.063  1.00  0.00     0.072 A 
HETATM   10  C   UNL     1       8.977  29.088  56.668  1.00  0.00     0.030 A 
HETATM   11  C   UNL     1       9.904  29.852  57.375  1.00  0.00     0.003 A 
HETATM   12  C   UNL     1       9.480  30.632  58.442  1.00  0.00     0.019 A 
HETATM   13  C   UNL     1       8.136  30.621  58.757  1.00  0.00     0.117 A 
HETATM   14  N   UNL     1       7.216  29.881  58.096  1.00  0.00    -0.262 NA
ENDBRANCH   1   9
BRANCH   1  15
HETATM   15  C   UNL     1       6.221  26.921  57.014  1.00  0.00     0.033 C 
HETATM   16  C   UNL     1       7.294  26.369  57.973  1.00  0.00     0.036 C 
HETATM   17  C   UNL     1       8.404  25.538  57.341  1.00  0.00     0.235 C 
HETATM   18  N   UNL     1       7.858  24.500  56.392  1.00  0.00    -0.067 N 
HETATM   19  H   UNL     1       7.387  23.783  56.963  1.00  0.00     0.280 HD
HETATM   20  C   UNL     1       6.855  25.021  55.401  1.00  0.00     0.235 C 
HETATM   21  C   UNL     1       5.742  25.775  56.101  1.00  0.00     0.036 C 
BRANCH  18  22
HETATM   22  C   UNL     1       8.973  23.778  55.638  1.00  0.00     0.278 C 
BRANCH  22  23
HETATM   23  C   UNL     1       8.561  22.565  54.860  1.00  0.00     0.028 A 
HETATM   24  C   UNL     1       8.299  21.326  55.456  1.00  0.00     0.045 A 
HETATM   25 CL   UNL     1       8.493  21.100  57.156  1.00  0.00    -0.084 Cl
HETATM   26  C   UNL     1       7.891  20.235  54.682  1.00  0.00     0.024 A 
HETATM   27  C   UNL     1       7.737  20.372  53.300  1.00  0.00     0.005 A 
HETATM   28  C   UNL     1       7.997  21.597  52.695  1.00  0.00     0.043 A 
HETATM   29  C   UNL     1       8.400  22.675  53.474  1.00  0.00     0.126 A 
HETATM   30  F   UNL     1       8.652  23.846  52.875  1.00  0.00    -0.205 F 
ENDBRANCH  22  23
ENDBRANCH  18  22
ENDBRANCH   1  15
BRANCH   5  31
HETATM   31  C   UNL     1       5.707  28.552  52.639  1.00  0.00     0.168 C 
BRANCH  31  32
HETATM   32  C   UNL     1       4.546  27.659  52.173  1.00  0.00     0.140 C 
HETATM   33  O   UNL     1       4.544  26.449  52.946  1.00  0.00    -0.384 OA
HETATM   34  C   UNL     1       5.278  25.441  52.228  1.00  0.00     0.168 C 
HETATM   35  C   UNL     1       5.647  26.020  50.875  1.00  0.00     0.029 C 
HETATM   36  C   UNL     1       4.705  27.191  50.737  1.00  0.00     0.036 C 
ENDBRANCH  31  32
ENDBRANCH   5  31
TORSDOF 6
ENDMDL
MODEL 4
REMARK VINA RESULT:     -10.1      2.739      4.033
REMARK  6 active torsions:
REMARK  status: ('A' for Active; 'I' for Inactive)
REMARK    1  A    between atoms: C_3  and  C_4 
REMARK    2  A    between atoms: C_4  and  C_5 
REMARK    3  A    between atoms: N_8  and  C_10 
REMARK    4  A    between atoms: C_10  and  C_11 
REMARK    5  A    between atoms: N_24  and  C_25 
REMARK    6  A    between atoms: C_25  and  C_26 
ROOT
HETATM    1  C   UNL     1       5.274  27.709  52.227  1.00  0.00     0.164 C 
HETATM    2  N   UNL     1       6.513  28.009  52.923  1.00  0.00    -0.319 N 
HETATM    3  C   UNL     1       6.322  28.361  54.239  1.00  0.00     0.326 C 
HETATM    4  O   UNL     1       7.223  28.456  55.051  1.00  0.00    -0.247 OA
HETATM    5  N   UNL     1       4.983  28.474  54.458  1.00  0.00    -0.265 N 
HETATM    6  C   UNL     1       4.294  28.187  53.316  1.00  0.00     0.263 C 
HETATM    7  O   UNL     1       3.073  28.218  53.214  1.00  0.00    -0.270 OA
HETATM    8  H   UNL     1       7.442  27.901  52.532  1.00  0.00     0.166 HD
ENDROOT
BRANCH   1   9
HETATM    9  C   UNL     1       5.176  28.531  50.940  1.00  0.00     0.072 A 
HETATM   10  C   UNL     1       4.383  28.133  49.860  1.00  0.00     0.030 A 
HETATM   11  C   UNL     1       4.322  28.939  48.725  1.00  0.00     0.003 A 
HETATM   12  C   UNL     1       5.027  30.134  48.692  1.00  0.00     0.019 A 
HETATM   13  C   UNL     1       5.766  30.479  49.806  1.00  0.00     0.117 A 
HETATM   14  N   UNL     1       5.852  29.712  50.918  1.00  0.00    -0.262 NA
ENDBRANCH   1   9
BRANCH   1  15
HETATM   15  C   UNL     1       5.183  26.147  51.977  1.00  0.00     0.033 C 
HETATM   16  C   UNL     1       4.784  25.292  53.196  1.00  0.00     0.036 C 
HETATM   17  C   UNL     1       5.916  24.862  54.120  1.00  0.00     0.235 C 
HETATM   18  N   UNL     1       7.087  24.299  53.352  1.00  0.00    -0.067 N 
HETATM   19  H   UNL     1       6.792  23.386  52.976  1.00  0.00     0.280 HD
HETATM   20  C   UNL     1       7.540  25.143  52.193  1.00  0.00     0.235 C 
HETATM   21  C   UNL     1       6.380  25.475  51.277  1.00  0.00     0.036 C 
BRANCH  18  22
HETATM   22  C   UNL     1       8.281  24.019  54.262  1.00  0.00     0.278 C 
BRANCH  22  23
HETATM   23  C   UNL     1       8.329  22.656  54.881  1.00  0.00     0.028 A 
HETATM   24  C   UNL     1       8.420  22.444  56.262  1.00  0.00     0.045 A 
HETATM   25 CL   UNL     1       8.540  23.773  57.357  1.00  0.00    -0.084 Cl
HETATM   26  C   UNL     1       8.433  21.147  56.784  1.00  0.00     0.024 A 
HETATM   27  C   UNL     1       8.353  20.045  55.931  1.00  0.00     0.005 A 
HETATM   28  C   UNL     1       8.266  20.240  54.557  1.00  0.00     0.043 A 
HETATM   29  C   UNL     1       8.252  21.534  54.048  1.00  0.00     0.126 A 
HETATM   30  F   UNL     1       8.172  21.705  52.722  1.00  0.00    -0.205 F 
ENDBRANCH  22  23
ENDBRANCH  18  22
ENDBRANCH   1  15
BRANCH   5  31
HETATM   31  C   UNL     1       4.369  28.868  55.718  1.00  0.00     0.168 C 
BRANCH  31  32
HETATM   32  C   UNL     1       4.126  30.385  55.802  1.00  0.00     0.140 C 
HETATM   33  O   UNL     1       5.299  31.020  56.332  1.00  0.00    -0.384 OA
HETATM   34  C   UNL     1       5.142  31.167  57.755  1.00  0.00     0.168 C 
HETATM   35  C   UNL     1       3.738  30.714  58.110  1.00  0.00     0.029 C 
HETATM   36  C   UNL     1       3.023  30.748  56.781  1.00  0.00     0.036 C 
ENDBRANCH  31  32
ENDBRANCH   5  31
TORSDOF 6
ENDMDL
MODEL 5
REMARK VINA RESULT:     -10.0      1.758      2.144
REMARK  6 active torsions:
REMARK  status: ('A' for Active; 'I' for Inactive)
REMARK    1  A    between atoms: C_3  and  C_4 
REMARK    2  A    between atoms: C_4  and  C_5 
REMARK    3  A    between atoms: N_8  and  C_10 
REMARK    4  A    between atoms: C_10  and  C_11 
REMARK    5  A    between atoms: N_24  and  C_25 
REMARK    6  A    between atoms: C_25  and  C_26 
ROOT
HETATM    1  C   UNL     1       5.518  29.231  55.481  1.00  0.00     0.164 C 
HETATM    2  N   UNL     1       6.877  29.246  54.971  1.00  0.00    -0.319 N 
HETATM    3  C   UNL     1       7.828  29.251  55.965  1.00  0.00     0.326 C 
HETATM    4  O   UNL     1       9.013  29.062  55.768  1.00  0.00    -0.247 OA
HETATM    5  N   UNL     1       7.191  29.396  57.159  1.00  0.00    -0.265 N 
HETATM    6  C   UNL     1       5.842  29.471  56.968  1.00  0.00     0.263 C 
HETATM    7  O   UNL     1       5.019  29.615  57.864  1.00  0.00    -0.270 OA
HETATM    8  H   UNL     1       7.133  29.180  53.992  1.00  0.00     0.166 HD
ENDROOT
BRANCH   1   9
HETATM    9  C   UNL     1       4.705  30.369  54.860  1.00  0.00     0.072 A 
HETATM   10  C   UNL     1       3.745  30.145  53.869  1.00  0.00     0.030 A 
HETATM   11  C   UNL     1       3.024  31.224  53.361  1.00  0.00     0.003 A 
HETATM   12  C   UNL     1       3.251  32.498  53.862  1.00  0.00     0.019 A 
HETATM   13  C   UNL     1       4.192  32.642  54.862  1.00  0.00     0.117 A 
HETATM   14  N   UNL     1       4.914  31.614  55.367  1.00  0.00    -0.262 NA
ENDBRANCH   1   9
BRANCH   1  15
HETATM   15  C   UNL     1       4.883  27.802  55.226  1.00  0.00     0.033 C 
HETATM   16  C   UNL     1       5.128  26.750  56.327  1.00  0.00     0.036 C 
HETATM   17  C   UNL     1       6.424  25.956  56.228  1.00  0.00     0.235 C 
HETATM   18  N   UNL     1       6.655  25.427  54.834  1.00  0.00    -0.067 N 
HETATM   19  H   UNL     1       5.963  24.681  54.674  1.00  0.00     0.280 HD
HETATM   20  C   UNL     1       6.485  26.446  53.741  1.00  0.00     0.235 C 
HETATM   21  C   UNL     1       5.147  27.147  53.856  1.00  0.00     0.036 C 
BRANCH  18  22
HETATM   22  C   UNL     1       8.028  24.772  54.695  1.00  0.00     0.278 C 
BRANCH  22  23
HETATM   23  C   UNL     1       8.028  23.286  54.502  1.00  0.00     0.028 A 
HETATM   24  C   UNL     1       8.110  22.376  55.562  1.00  0.00     0.045 A 
HETATM   25 CL   UNL     1       8.273  22.924  57.191  1.00  0.00    -0.084 Cl
HETATM   26  C   UNL     1       8.079  20.999  55.324  1.00  0.00     0.024 A 
HETATM   27  C   UNL     1       7.963  20.514  54.019  1.00  0.00     0.005 A 
HETATM   28  C   UNL     1       7.885  21.407  52.955  1.00  0.00     0.043 A 
HETATM   29  C   UNL     1       7.915  22.774  53.205  1.00  0.00     0.126 A 
HETATM   30  F   UNL     1       7.843  23.621  52.169  1.00  0.00    -0.205 F 
ENDBRANCH  22  23
ENDBRANCH  18  22
ENDBRANCH   1  15
BRANCH   5  31
HETATM   31  C   UNL     1       7.848  29.485  58.456  1.00  0.00     0.168 C 
BRANCH  31  32
HETATM   32  C   UNL     1       8.447  30.878  58.715  1.00  0.00     0.140 C 
HETATM   33  O   UNL     1       9.608  30.743  59.547  1.00  0.00    -0.384 OA
HETATM   34  C   UNL     1       9.218  30.930  60.919  1.00  0.00     0.168 C 
HETATM   35  C   UNL     1       7.754  31.330  60.928  1.00  0.00     0.029 C 
HETATM   36  C   UNL     1       7.515  31.779  59.508  1.00  0.00     0.036 C 
ENDBRANCH  31  32
ENDBRANCH   5  31
TORSDOF 6
ENDMDL
MODEL 6
REMARK VINA RESULT:      -9.9      4.132      7.962
REMARK  6 active torsions:
REMARK  status: ('A' for Active; 'I' for Inactive)
REMARK    1  A    between atoms: C_3  and  C_4 
REMARK    2  A    between atoms: C_4  and  C_5 
REMARK    3  A    between atoms: N_8  and  C_10 
REMARK    4  A    between atoms: C_10  and  C_11 
REMARK    5  A    between atoms: N_24  and  C_25 
REMARK    6  A    between atoms: C_25  and  C_26 
ROOT
HETATM    1  C   UNL     1       6.732  26.646  54.662  1.00  0.00     0.164 C 
HETATM    2  N   UNL     1       7.577  26.478  53.494  1.00  0.00    -0.319 N 
HETATM    3  C   UNL     1       7.845  25.161  53.205  1.00  0.00     0.326 C 
HETATM    4  O   UNL     1       8.358  24.786  52.168  1.00  0.00    -0.247 OA
HETATM    5  N   UNL     1       7.348  24.396  54.216  1.00  0.00    -0.265 N 
HETATM    6  C   UNL     1       6.748  25.186  55.153  1.00  0.00     0.263 C 
HETATM    7  O   UNL     1       6.223  24.772  56.179  1.00  0.00    -0.270 OA
HETATM    8  H   UNL     1       7.888  27.228  52.886  1.00  0.00     0.166 HD
ENDROOT
BRANCH   1   9
HETATM    9  C   UNL     1       7.383  27.612  55.654  1.00  0.00     0.072 A 
HETATM   10  C   UNL     1       7.056  27.618  57.013  1.00  0.00     0.030 A 
HETATM   11  C   UNL     1       7.703  28.510  57.867  1.00  0.00     0.003 A 
HETATM   12  C   UNL     1       8.677  29.359  57.362  1.00  0.00     0.019 A 
HETATM   13  C   UNL     1       8.971  29.279  56.016  1.00  0.00     0.117 A 
HETATM   14  N   UNL     1       8.352  28.431  55.162  1.00  0.00    -0.262 NA
ENDBRANCH   1   9
BRANCH   1  15
HETATM   15  C   UNL     1       5.289  27.111  54.198  1.00  0.00     0.033 C 
HETATM   16  C   UNL     1       4.442  26.048  53.470  1.00  0.00     0.036 C 
HETATM   17  C   UNL     1       4.654  25.927  51.966  1.00  0.00     0.235 C 
HETATM   18  N   UNL     1       4.637  27.273  51.286  1.00  0.00    -0.067 N 
HETATM   19  H   UNL     1       3.666  27.616  51.313  1.00  0.00     0.280 HD
HETATM   20  C   UNL     1       5.504  28.315  51.936  1.00  0.00     0.235 C 
HETATM   21  C   UNL     1       5.194  28.435  53.414  1.00  0.00     0.036 C 
BRANCH  18  22
HETATM   22  C   UNL     1       5.009  27.167  49.808  1.00  0.00     0.278 C 
BRANCH  22  23
HETATM   23  C   UNL     1       3.897  27.406  48.833  1.00  0.00     0.028 A 
HETATM   24  C   UNL     1       3.587  28.670  48.319  1.00  0.00     0.045 A 
HETATM   25 CL   UNL     1       4.453  30.073  48.832  1.00  0.00    -0.084 Cl
HETATM   26  C   UNL     1       2.554  28.829  47.390  1.00  0.00     0.024 A 
HETATM   27  C   UNL     1       1.819  27.721  46.961  1.00  0.00     0.005 A 
HETATM   28  C   UNL     1       2.114  26.459  47.465  1.00  0.00     0.043 A 
HETATM   29  C   UNL     1       3.144  26.313  48.387  1.00  0.00     0.126 A 
HETATM   30  F   UNL     1       3.412  25.092  48.868  1.00  0.00    -0.205 F 
ENDBRANCH  22  23
ENDBRANCH  18  22
ENDBRANCH   1  15
BRANCH   5  31
HETATM   31  C   UNL     1       7.460  22.947  54.306  1.00  0.00     0.168 C 
BRANCH  31  32
HETATM   32  C   UNL     1       8.695  22.503  55.107  1.00  0.00     0.140 C 
HETATM   33  O   UNL     1       9.349  21.433  54.409  1.00  0.00    -0.384 OA
HETATM   34  C   UNL     1       8.870  20.180  54.929  1.00  0.00     0.168 C 
HETATM   35  C   UNL     1       7.963  20.490  56.105  1.00  0.00     0.029 C 
HETATM   36  C   UNL     1       8.335  21.908  56.458  1.00  0.00     0.036 C 
ENDBRANCH  31  32
ENDBRANCH   5  31
TORSDOF 6
ENDMDL
MODEL 7
REMARK VINA RESULT:      -9.6      3.309      8.165
REMARK  6 active torsions:
REMARK  status: ('A' for Active; 'I' for Inactive)
REMARK    1  A    between atoms: C_3  and  C_4 
REMARK    2  A    between atoms: C_4  and  C_5 
REMARK    3  A    between atoms: N_8  and  C_10 
REMARK    4  A    between atoms: C_10  and  C_11 
REMARK    5  A    between atoms: N_24  and  C_25 
REMARK    6  A    between atoms: C_25  and  C_26 
ROOT
HETATM    1  C   UNL     1       6.660  25.391  54.853  1.00  0.00     0.164 C 
HETATM    2  N   UNL     1       7.605  26.373  54.355  1.00  0.00    -0.319 N 
HETATM    3  C   UNL     1       7.047  27.255  53.459  1.00  0.00     0.326 C 
HETATM    4  O   UNL     1       7.597  28.269  53.075  1.00  0.00    -0.247 OA
HETATM    5  N   UNL     1       5.780  26.837  53.186  1.00  0.00    -0.265 N 
HETATM    6  C   UNL     1       5.493  25.708  53.898  1.00  0.00     0.263 C 
HETATM    7  O   UNL     1       4.429  25.103  53.844  1.00  0.00    -0.270 OA
HETATM    8  H   UNL     1       8.563  26.476  54.673  1.00  0.00     0.166 HD
ENDROOT
BRANCH   1   9
HETATM    9  C   UNL     1       7.214  23.977  54.663  1.00  0.00     0.072 A 
HETATM   10  C   UNL     1       7.744  23.542  53.445  1.00  0.00     0.030 A 
HETATM   11  C   UNL     1       8.252  22.248  53.345  1.00  0.00     0.003 A 
HETATM   12  C   UNL     1       8.246  21.420  54.459  1.00  0.00     0.019 A 
HETATM   13  C   UNL     1       7.734  21.926  55.638  1.00  0.00     0.117 A 
HETATM   14  N   UNL     1       7.226  23.174  55.761  1.00  0.00    -0.262 NA
ENDBRANCH   1   9
BRANCH   1  15
HETATM   15  C   UNL     1       6.311  25.724  56.363  1.00  0.00     0.033 C 
HETATM   16  C   UNL     1       5.177  26.746  56.581  1.00  0.00     0.036 C 
HETATM   17  C   UNL     1       5.578  28.215  56.572  1.00  0.00     0.235 C 
HETATM   18  N   UNL     1       6.789  28.473  57.435  1.00  0.00    -0.067 N 
HETATM   19  H   UNL     1       6.492  28.363  58.416  1.00  0.00     0.280 HD
HETATM   20  C   UNL     1       7.938  27.531  57.200  1.00  0.00     0.235 C 
HETATM   21  C   UNL     1       7.484  26.088  57.293  1.00  0.00     0.036 C 
BRANCH  18  22
HETATM   22  C   UNL     1       7.288  29.910  57.299  1.00  0.00     0.278 C 
BRANCH  22  23
HETATM   23  C   UNL     1       7.576  30.628  58.582  1.00  0.00     0.028 A 
HETATM   24  C   UNL     1       6.622  31.395  59.262  1.00  0.00     0.045 A 
HETATM   25 CL   UNL     1       5.034  31.609  58.618  1.00  0.00    -0.084 Cl
HETATM   26  C   UNL     1       6.940  32.021  60.470  1.00  0.00     0.024 A 
HETATM   27  C   UNL     1       8.218  31.886  61.016  1.00  0.00     0.005 A 
HETATM   28  C   UNL     1       9.177  31.130  60.351  1.00  0.00     0.043 A 
HETATM   29  C   UNL     1       8.849  30.510  59.151  1.00  0.00     0.126 A 
HETATM   30  F   UNL     1       9.786  29.789  58.519  1.00  0.00    -0.205 F 
ENDBRANCH  22  23
ENDBRANCH  18  22
ENDBRANCH   1  15
BRANCH   5  31
HETATM   31  C   UNL     1       4.866  27.480  52.253  1.00  0.00     0.168 C 
BRANCH  31  32
HETATM   32  C   UNL     1       5.412  27.497  50.815  1.00  0.00     0.140 C 
HETATM   33  O   UNL     1       5.586  28.858  50.394  1.00  0.00    -0.384 OA
HETATM   34  C   UNL     1       4.406  29.276  49.685  1.00  0.00     0.168 C 
HETATM   35  C   UNL     1       3.502  28.065  49.547  1.00  0.00     0.029 C 
HETATM   36  C   UNL     1       4.436  26.911  49.810  1.00  0.00     0.036 C 
ENDBRANCH  31  32
ENDBRANCH   5  31
TORSDOF 6
ENDMDL
MODEL 8
REMARK VINA RESULT:      -9.6      1.896      2.791
REMARK  6 active torsions:
REMARK  status: ('A' for Active; 'I' for Inactive)
REMARK    1  A    between atoms: C_3  and  C_4 
REMARK    2  A    between atoms: C_4  and  C_5 
REMARK    3  A    between atoms: N_8  and  C_10 
REMARK    4  A    between atoms: C_10  and  C_11 
REMARK    5  A    between atoms: N_24  and  C_25 
REMARK    6  A    between atoms: C_25  and  C_26 
ROOT
HETATM    1  C   UNL     1       5.264  27.991  53.364  1.00  0.00     0.164 C 
HETATM    2  N   UNL     1       6.670  27.957  53.001  1.00  0.00    -0.319 N 
HETATM    3  C   UNL     1       7.491  28.481  53.972  1.00  0.00     0.326 C 
HETATM    4  O   UNL     1       8.702  28.371  53.965  1.00  0.00    -0.247 OA
HETATM    5  N   UNL     1       6.707  29.027  54.942  1.00  0.00    -0.265 N 
HETATM    6  C   UNL     1       5.388  28.856  54.632  1.00  0.00     0.263 C 
HETATM    7  O   UNL     1       4.455  29.256  55.319  1.00  0.00    -0.270 OA
HETATM    8  H   UNL     1       7.046  27.527  52.163  1.00  0.00     0.166 HD
ENDROOT
BRANCH   1   9
HETATM    9  C   UNL     1       4.448  28.669  52.262  1.00  0.00     0.072 A 
HETATM   10  C   UNL     1       3.050  28.695  52.278  1.00  0.00     0.030 A 
HETATM   11  C   UNL     1       2.368  29.349  51.253  1.00  0.00     0.003 A 
HETATM   12  C   UNL     1       3.084  29.984  50.248  1.00  0.00     0.019 A 
HETATM   13  C   UNL     1       4.462  29.944  50.311  1.00  0.00     0.117 A 
HETATM   14  N   UNL     1       5.151  29.309  51.288  1.00  0.00    -0.262 NA
ENDBRANCH   1   9
BRANCH   1  15
HETATM   15  C   UNL     1       4.774  26.518  53.684  1.00  0.00     0.033 C 
HETATM   16  C   UNL     1       5.140  25.976  55.080  1.00  0.00     0.036 C 
HETATM   17  C   UNL     1       6.508  25.322  55.216  1.00  0.00     0.235 C 
HETATM   18  N   UNL     1       6.773  24.336  54.104  1.00  0.00    -0.067 N 
HETATM   19  H   UNL     1       6.159  23.525  54.264  1.00  0.00     0.280 HD
HETATM   20  C   UNL     1       6.487  24.858  52.723  1.00  0.00     0.235 C 
HETATM   21  C   UNL     1       5.086  25.429  52.638  1.00  0.00     0.036 C 
BRANCH  18  22
HETATM   22  C   UNL     1       8.204  23.802  54.148  1.00  0.00     0.278 C 
BRANCH  22  23
HETATM   23  C   UNL     1       8.378  22.443  54.754  1.00  0.00     0.028 A 
HETATM   24  C   UNL     1       8.535  22.232  56.129  1.00  0.00     0.045 A 
HETATM   25 CL   UNL     1       8.594  23.561  57.229  1.00  0.00    -0.084 Cl
HETATM   26  C   UNL     1       8.666  20.938  56.641  1.00  0.00     0.024 A 
HETATM   27  C   UNL     1       8.640  19.837  55.782  1.00  0.00     0.005 A 
HETATM   28  C   UNL     1       8.488  20.031  54.413  1.00  0.00     0.043 A 
HETATM   29  C   UNL     1       8.356  21.323  53.916  1.00  0.00     0.126 A 
HETATM   30  F   UNL     1       8.216  21.494  52.594  1.00  0.00    -0.205 F 
ENDBRANCH  22  23
ENDBRANCH  18  22
ENDBRANCH   1  15
BRANCH   5  31
HETATM   31  C   UNL     1       7.195  29.717  56.128  1.00  0.00     0.168 C 
BRANCH  31  32
HETATM   32  C   UNL     1       7.900  28.766  57.110  1.00  0.00     0.140 C 
HETATM   33  O   UNL     1       7.454  29.053  58.444  1.00  0.00    -0.384 OA
HETATM   34  C   UNL     1       8.381  29.969  59.054  1.00  0.00     0.168 C 
HETATM   35  C   UNL     1       9.537  30.161  58.089  1.00  0.00     0.029 C 
HETATM   36  C   UNL     1       9.403  28.982  57.158  1.00  0.00     0.036 C 
ENDBRANCH  31  32
ENDBRANCH   5  31
TORSDOF 6
ENDMDL
MODEL 9
REMARK VINA RESULT:      -9.6      3.206      7.760
REMARK  6 active torsions:
REMARK  status: ('A' for Active; 'I' for Inactive)
REMARK    1  A    between atoms: C_3  and  C_4 
REMARK    2  A    between atoms: C_4  and  C_5 
REMARK    3  A    between atoms: N_8  and  C_10 
REMARK    4  A    between atoms: C_10  and  C_11 
REMARK    5  A    between atoms: N_24  and  C_25 
REMARK    6  A    between atoms: C_25  and  C_26 
ROOT
HETATM    1  C   UNL     1       6.789  25.415  54.970  1.00  0.00     0.164 C 
HETATM    2  N   UNL     1       7.686  26.387  54.371  1.00  0.00    -0.319 N 
HETATM    3  C   UNL     1       7.053  27.240  53.498  1.00  0.00     0.326 C 
HETATM    4  O   UNL     1       7.564  28.246  53.044  1.00  0.00    -0.247 OA
HETATM    5  N   UNL     1       5.771  26.809  53.338  1.00  0.00    -0.265 N 
HETATM    6  C   UNL     1       5.549  25.700  54.101  1.00  0.00     0.263 C 
HETATM    7  O   UNL     1       4.488  25.089  54.148  1.00  0.00    -0.270 OA
HETATM    8  H   UNL     1       8.665  26.503  54.610  1.00  0.00     0.166 HD
ENDROOT
BRANCH   1   9
HETATM    9  C   UNL     1       7.336  23.999  54.775  1.00  0.00     0.072 A 
HETATM   10  C   UNL     1       7.896  23.575  53.566  1.00  0.00     0.030 A 
HETATM   11  C   UNL     1       8.395  22.278  53.463  1.00  0.00     0.003 A 
HETATM   12  C   UNL     1       8.351  21.435  54.565  1.00  0.00     0.019 A 
HETATM   13  C   UNL     1       7.811  21.929  55.735  1.00  0.00     0.117 A 
HETATM   14  N   UNL     1       7.310  23.180  55.862  1.00  0.00    -0.262 NA
ENDBRANCH   1   9
BRANCH   1  15
HETATM   15  C   UNL     1       6.558  25.789  56.492  1.00  0.00     0.033 C 
HETATM   16  C   UNL     1       5.395  26.759  56.777  1.00  0.00     0.036 C 
HETATM   17  C   UNL     1       5.714  28.245  56.682  1.00  0.00     0.235 C 
HETATM   18  N   UNL     1       6.982  28.597  57.422  1.00  0.00    -0.067 N 
HETATM   19  H   UNL     1       6.779  28.511  58.429  1.00  0.00     0.280 HD
HETATM   20  C   UNL     1       8.153  27.706  57.116  1.00  0.00     0.235 C 
HETATM   21  C   UNL     1       7.789  26.247  57.300  1.00  0.00     0.036 C 
BRANCH  18  22
HETATM   22  C   UNL     1       7.388  30.052  57.192  1.00  0.00     0.278 C 
BRANCH  22  23
HETATM   23  C   UNL     1       7.810  30.815  58.410  1.00  0.00     0.028 A 
HETATM   24  C   UNL     1       9.150  30.990  58.778  1.00  0.00     0.045 A 
HETATM   25 CL   UNL     1      10.423  30.274  57.859  1.00  0.00    -0.084 Cl
HETATM   26  C   UNL     1       9.485  31.736  59.912  1.00  0.00     0.024 A 
HETATM   27  C   UNL     1       8.484  32.318  60.692  1.00  0.00     0.005 A 
HETATM   28  C   UNL     1       7.149  32.150  60.340  1.00  0.00     0.043 A 
HETATM   29  C   UNL     1       6.827  31.408  59.210  1.00  0.00     0.126 A 
HETATM   30  F   UNL     1       5.536  31.251  58.887  1.00  0.00    -0.205 F 
ENDBRANCH  22  23
ENDBRANCH  18  22
ENDBRANCH   1  15
BRANCH   5  31
HETATM   31  C   UNL     1       4.782  27.422  52.462  1.00  0.00     0.168 C 
BRANCH  31  32
HETATM   32  C   UNL     1       3.801  28.325  53.228  1.00  0.00     0.140 C 
HETATM   33  O   UNL     1       2.692  28.644  52.375  1.00  0.00    -0.384 OA
HETATM   34  C   UNL     1       2.954  29.902  51.727  1.00  0.00     0.168 C 
HETATM   35  C   UNL     1       4.240  30.457  52.309  1.00  0.00     0.029 C 
HETATM   36  C   UNL     1       4.402  29.673  53.588  1.00  0.00     0.036 C 
ENDBRANCH  31  32
ENDBRANCH   5  31
TORSDOF 6
ENDMDL
MODEL 10
REMARK VINA RESULT:      -9.3      3.520      6.724
REMARK  6 active torsions:
REMARK  status: ('A' for Active; 'I' for Inactive)
REMARK    1  A    between atoms: C_3  and  C_4 
REMARK    2  A    between atoms: C_4  and  C_5 
REMARK    3  A    between atoms: N_8  and  C_10 
REMARK    4  A    between atoms: C_10  and  C_11 
REMARK    5  A    between atoms: N_24  and  C_25 
REMARK    6  A    between atoms: C_25  and  C_26 
ROOT
HETATM    1  C   UNL     1       4.724  27.576  52.658  1.00  0.00     0.164 C 
HETATM    2  N   UNL     1       3.333  27.989  52.645  1.00  0.00    -0.319 N 
HETATM    3  C   UNL     1       3.049  28.904  51.658  1.00  0.00     0.326 C 
HETATM    4  O   UNL     1       1.921  29.229  51.340  1.00  0.00    -0.247 OA
HETATM    5  N   UNL     1       4.222  29.271  51.071  1.00  0.00    -0.265 N 
HETATM    6  C   UNL     1       5.264  28.603  51.645  1.00  0.00     0.263 C 
HETATM    7  O   UNL     1       6.439  28.742  51.326  1.00  0.00    -0.270 OA
HETATM    8  H   UNL     1       2.604  27.603  53.236  1.00  0.00     0.166 HD
ENDROOT
BRANCH   1   9
HETATM    9  C   UNL     1       5.318  27.756  54.057  1.00  0.00     0.072 A 
HETATM   10  C   UNL     1       4.522  27.796  55.205  1.00  0.00     0.030 A 
HETATM   11  C   UNL     1       5.129  27.940  56.452  1.00  0.00     0.003 A 
HETATM   12  C   UNL     1       6.511  28.017  56.537  1.00  0.00     0.019 A 
HETATM   13  C   UNL     1       7.237  27.941  55.365  1.00  0.00     0.117 A 
HETATM   14  N   UNL     1       6.675  27.811  54.141  1.00  0.00    -0.262 NA
ENDBRANCH   1   9
BRANCH   1  15
HETATM   15  C   UNL     1       4.830  26.088  52.124  1.00  0.00     0.033 C 
HETATM   16  C   UNL     1       4.597  24.980  53.169  1.00  0.00     0.036 C 
HETATM   17  C   UNL     1       5.813  24.548  53.980  1.00  0.00     0.235 C 
HETATM   18  N   UNL     1       7.016  24.300  53.103  1.00  0.00    -0.067 N 
HETATM   19  H   UNL     1       6.829  23.439  52.568  1.00  0.00     0.280 HD
HETATM   20  C   UNL     1       7.306  25.395  52.114  1.00  0.00     0.235 C 
HETATM   21  C   UNL     1       6.077  25.725  51.293  1.00  0.00     0.036 C 
BRANCH  18  22
HETATM   22  C   UNL     1       8.272  24.026  53.927  1.00  0.00     0.278 C 
BRANCH  22  23
HETATM   23  C   UNL     1       8.293  22.732  54.680  1.00  0.00     0.028 A 
HETATM   24  C   UNL     1       8.343  22.660  56.078  1.00  0.00     0.045 A 
HETATM   25 CL   UNL     1       8.441  24.092  57.037  1.00  0.00    -0.084 Cl
HETATM   26  C   UNL     1       8.333  21.422  56.728  1.00  0.00     0.024 A 
HETATM   27  C   UNL     1       8.270  20.240  55.988  1.00  0.00     0.005 A 
HETATM   28  C   UNL     1       8.224  20.296  54.599  1.00  0.00     0.043 A 
HETATM   29  C   UNL     1       8.233  21.532  53.963  1.00  0.00     0.126 A 
HETATM   30  F   UNL     1       8.193  21.569  52.624  1.00  0.00    -0.205 F 
ENDBRANCH  22  23
ENDBRANCH  18  22
ENDBRANCH   1  15
BRANCH   5  31
HETATM   31  C   UNL     1       4.355  30.253  50.004  1.00  0.00     0.168 C 
BRANCH  31  32
HETATM   32  C   UNL     1       4.775  29.614  48.670  1.00  0.00     0.140 C 
HETATM   33  O   UNL     1       4.572  30.561  47.610  1.00  0.00    -0.384 OA
HETATM   34  C   UNL     1       3.276  30.332  47.027  1.00  0.00     0.168 C 
HETATM   35  C   UNL     1       2.696  29.089  47.676  1.00  0.00     0.029 C 
HETATM   36  C   UNL     1       3.905  28.427  48.288  1.00  0.00     0.036 C 
ENDBRANCH  31  32
ENDBRANCH   5  31
TORSDOF 6
ENDMDL
