MODEL 1
REMARK VINA RESULT:     -10.1      0.000      0.000
REMARK  7 active torsions:
REMARK  status: ('A' for Active; 'I' for Inactive)
REMARK    1  A    between atoms: C_11  and  N_12 
REMARK       I    between atoms: N_12  and  C_13 
REMARK    2  A    between atoms: C_13  and  C_14 
REMARK    3  A    between atoms: C_14  and  S_15 
REMARK    4  A    between atoms: S_15  and  C_16 
REMARK    5  A    between atoms: N_17  and  C_18 
REMARK    6  A    between atoms: C_18  and  C_19 
REMARK    7  A    between atoms: C_25  and  C_26 
ROOT
HETATM    1  N   UNL     1       7.574  30.828  60.814  1.00  0.00    -0.326 N 
HETATM    2  C   UNL     1       7.579  31.171  59.470  1.00  0.00     0.231 C 
HETATM    3  O   UNL     1       7.246  32.259  59.007  1.00  0.00    -0.272 OA
HETATM    4  H   UNL     1       7.724  29.846  61.018  1.00  0.00     0.169 HD
ENDROOT
BRANCH   2   5
HETATM    5  C   UNL     1       8.128  30.084  58.560  1.00  0.00     0.185 C 
BRANCH   5   6
HETATM    6  S   UNL     1       6.881  29.502  57.367  1.00  0.00    -0.081 SA
BRANCH   6   7
HETATM    7  C   UNL     1       7.224  27.803  57.407  1.00  0.00     0.192 A 
HETATM    8  N   UNL     1       6.668  26.858  56.576  1.00  0.00    -0.307 N 
HETATM    9  C   UNL     1       7.242  25.663  56.959  1.00  0.00     0.135 A 
HETATM   10  N   UNL     1       8.080  25.900  57.953  1.00  0.00    -0.134 NA
HETATM   11  N   UNL     1       8.057  27.233  58.242  1.00  0.00    -0.123 NA
BRANCH   8  12
HETATM   12  C   UNL     1       5.787  27.127  55.454  1.00  0.00     0.171 C 
BRANCH  12  13
HETATM   13  C   UNL     1       6.156  26.412  54.176  1.00  0.00    -0.040 A 
HETATM   14  C   UNL     1       7.384  26.599  53.523  1.00  0.00     0.009 A 
HETATM   15  C   UNL     1       7.681  25.900  52.350  1.00  0.00     0.001 A 
HETATM   16  C   UNL     1       6.767  24.991  51.825  1.00  0.00     0.000 A 
HETATM   17  C   UNL     1       5.556  24.773  52.474  1.00  0.00     0.001 A 
HETATM   18  C   UNL     1       5.254  25.473  53.644  1.00  0.00     0.009 A 
ENDBRANCH  12  13
ENDBRANCH   8  12
BRANCH   9  19
HETATM   19  C   UNL     1       7.096  24.221  56.486  1.00  0.00     0.057 A 
HETATM   20  C   UNL     1       8.017  23.659  55.430  1.00  0.00     0.013 A 
HETATM   21  C   UNL     1       8.067  23.118  56.819  1.00  0.00     0.013 A 
ENDBRANCH   9  19
ENDBRANCH   6   7
ENDBRANCH   5   6
ENDBRANCH   2   5
BRANCH   1  22
HETATM   22  C   UNL     1       7.279  31.669  61.908  1.00  0.00     0.037 A 
HETATM   23  C   UNL     1       8.248  32.168  62.783  1.00  0.00     0.032 A 
HETATM   24  C   UNL     1       7.883  32.977  63.865  1.00  0.00     0.041 A 
HETATM   25  C   UNL     1       6.549  33.310  64.071  1.00  0.00     0.096 A 
HETATM   26  O   UNL     1       6.276  34.084  65.162  1.00  0.00    -0.335 OA
HETATM   27  C   UNL     1       5.574  32.815  63.205  1.00  0.00     0.070 A 
HETATM   28  C   UNL     1       4.976  34.667  65.181  1.00  0.00     0.217 C 
HETATM   29  C   UNL     1       5.098  36.109  64.695  1.00  0.00     0.050 C 
HETATM   30  C   UNL     1       3.840  33.973  64.418  1.00  0.00     0.251 C 
HETATM   31  N   UNL     1       4.232  33.123  63.420  1.00  0.00    -0.323 N 
HETATM   32  O   UNL     1       2.649  34.204  64.619  1.00  0.00    -0.270 OA
HETATM   33  H   UNL     1       3.499  32.712  62.858  1.00  0.00     0.169 HD
HETATM   34  C   UNL     1       5.933  31.989  62.134  1.00  0.00     0.062 A 
ENDBRANCH   1  22
TORSDOF 7
ENDMDL
MODEL 2
REMARK VINA RESULT:      -9.4      7.559     11.022
REMARK  7 active torsions:
REMARK  status: ('A' for Active; 'I' for Inactive)
REMARK    1  A    between atoms: C_11  and  N_12 
REMARK       I    between atoms: N_12  and  C_13 
REMARK    2  A    between atoms: C_13  and  C_14 
REMARK    3  A    between atoms: C_14  and  S_15 
REMARK    4  A    between atoms: S_15  and  C_16 
REMARK    5  A    between atoms: N_17  and  C_18 
REMARK    6  A    between atoms: C_18  and  C_19 
REMARK    7  A    between atoms: C_25  and  C_26 
ROOT
HETATM    1  N   UNL     1       6.163  26.514  54.779  1.00  0.00    -0.326 N 
HETATM    2  C   UNL     1       6.572  27.688  54.165  1.00  0.00     0.231 C 
HETATM    3  O   UNL     1       7.722  27.957  53.828  1.00  0.00    -0.272 OA
HETATM    4  H   UNL     1       5.213  26.511  55.135  1.00  0.00     0.169 HD
ENDROOT
BRANCH   2   5
HETATM    5  C   UNL     1       5.434  28.642  53.842  1.00  0.00     0.185 C 
BRANCH   5   6
HETATM    6  S   UNL     1       4.383  28.015  52.493  1.00  0.00    -0.081 SA
BRANCH   6   7
HETATM    7  C   UNL     1       4.872  29.096  51.228  1.00  0.00     0.192 A 
HETATM    8  N   UNL     1       4.153  29.365  50.087  1.00  0.00    -0.307 N 
HETATM    9  C   UNL     1       4.915  30.282  49.392  1.00  0.00     0.135 A 
HETATM   10  N   UNL     1       6.011  30.528  50.088  1.00  0.00    -0.134 NA
HETATM   11  N   UNL     1       5.991  29.777  51.226  1.00  0.00    -0.123 NA
BRANCH   8  12
HETATM   12  C   UNL     1       2.816  28.881  49.792  1.00  0.00     0.171 C 
BRANCH  12  13
HETATM   13  C   UNL     1       2.758  27.768  48.773  1.00  0.00    -0.040 A 
HETATM   14  C   UNL     1       3.703  26.732  48.717  1.00  0.00     0.009 A 
HETATM   15  C   UNL     1       3.592  25.718  47.763  1.00  0.00     0.001 A 
HETATM   16  C   UNL     1       2.528  25.712  46.866  1.00  0.00     0.000 A 
HETATM   17  C   UNL     1       1.566  26.716  46.925  1.00  0.00     0.001 A 
HETATM   18  C   UNL     1       1.676  27.733  47.875  1.00  0.00     0.009 A 
ENDBRANCH  12  13
ENDBRANCH   8  12
BRANCH   9  19
HETATM   19  C   UNL     1       4.743  31.006  48.062  1.00  0.00     0.057 A 
HETATM   20  C   UNL     1       4.543  30.230  46.782  1.00  0.00     0.013 A 
HETATM   21  C   UNL     1       3.442  31.090  47.305  1.00  0.00     0.013 A 
ENDBRANCH   9  19
ENDBRANCH   6   7
ENDBRANCH   5   6
ENDBRANCH   2   5
BRANCH   1  22
HETATM   22  C   UNL     1       6.950  25.376  55.056  1.00  0.00     0.037 A 
HETATM   23  C   UNL     1       7.771  25.259  56.181  1.00  0.00     0.032 A 
HETATM   24  C   UNL     1       8.546  24.112  56.382  1.00  0.00     0.041 A 
HETATM   25  C   UNL     1       8.494  23.064  55.470  1.00  0.00     0.096 A 
HETATM   26  O   UNL     1       9.299  21.992  55.728  1.00  0.00    -0.335 OA
HETATM   27  C   UNL     1       7.681  23.172  54.343  1.00  0.00     0.070 A 
HETATM   28  C   UNL     1       9.007  20.819  54.974  1.00  0.00     0.217 C 
HETATM   29  C   UNL     1       8.173  19.889  55.852  1.00  0.00     0.050 C 
HETATM   30  C   UNL     1       8.325  20.967  53.607  1.00  0.00     0.251 C 
HETATM   31  N   UNL     1       7.643  22.136  53.410  1.00  0.00    -0.323 N 
HETATM   32  O   UNL     1       8.313  20.078  52.757  1.00  0.00    -0.270 OA
HETATM   33  H   UNL     1       7.127  22.223  52.545  1.00  0.00     0.169 HD
HETATM   34  C   UNL     1       6.919  24.326  54.128  1.00  0.00     0.062 A 
ENDBRANCH   1  22
TORSDOF 7
ENDMDL
MODEL 3
REMARK VINA RESULT:      -9.4      1.939      2.491
REMARK  7 active torsions:
REMARK  status: ('A' for Active; 'I' for Inactive)
REMARK    1  A    between atoms: C_11  and  N_12 
REMARK       I    between atoms: N_12  and  C_13 
REMARK    2  A    between atoms: C_13  and  C_14 
REMARK    3  A    between atoms: C_14  and  S_15 
REMARK    4  A    between atoms: S_15  and  C_16 
REMARK    5  A    between atoms: N_17  and  C_18 
REMARK    6  A    between atoms: C_18  and  C_19 
REMARK    7  A    between atoms: C_25  and  C_26 
ROOT
HETATM    1  N   UNL     1       7.944  30.956  58.334  1.00  0.00    -0.326 N 
HETATM    2  C   UNL     1       7.957  29.660  57.841  1.00  0.00     0.231 C 
HETATM    3  O   UNL     1       8.129  28.641  58.506  1.00  0.00    -0.272 OA
HETATM    4  H   UNL     1       7.949  31.692  57.636  1.00  0.00     0.169 HD
ENDROOT
BRANCH   2   5
HETATM    5  C   UNL     1       7.648  29.563  56.355  1.00  0.00     0.185 C 
BRANCH   5   6
HETATM    6  S   UNL     1       5.894  29.178  56.050  1.00  0.00    -0.081 SA
BRANCH   6   7
HETATM    7  C   UNL     1       5.991  27.448  55.986  1.00  0.00     0.192 A 
HETATM    8  N   UNL     1       6.480  26.717  54.929  1.00  0.00    -0.307 N 
HETATM    9  C   UNL     1       6.378  25.400  55.329  1.00  0.00     0.135 A 
HETATM   10  N   UNL     1       5.860  25.370  56.544  1.00  0.00    -0.134 NA
HETATM   11  N   UNL     1       5.605  26.647  56.948  1.00  0.00    -0.123 NA
BRANCH   8  12
HETATM   12  C   UNL     1       7.098  27.260  53.734  1.00  0.00     0.171 C 
BRANCH  12  13
HETATM   13  C   UNL     1       6.192  27.324  52.527  1.00  0.00    -0.040 A 
HETATM   14  C   UNL     1       5.536  28.498  52.125  1.00  0.00     0.009 A 
HETATM   15  C   UNL     1       4.721  28.506  50.990  1.00  0.00     0.001 A 
HETATM   16  C   UNL     1       4.566  27.350  50.230  1.00  0.00     0.000 A 
HETATM   17  C   UNL     1       5.230  26.184  50.598  1.00  0.00     0.001 A 
HETATM   18  C   UNL     1       6.043  26.172  51.735  1.00  0.00     0.009 A 
ENDBRANCH  12  13
ENDBRANCH   8  12
BRANCH   9  19
HETATM   19  C   UNL     1       6.721  24.067  54.673  1.00  0.00     0.057 A 
HETATM   20  C   UNL     1       8.143  23.747  54.277  1.00  0.00     0.013 A 
HETATM   21  C   UNL     1       7.479  22.957  55.355  1.00  0.00     0.013 A 
ENDBRANCH   9  19
ENDBRANCH   6   7
ENDBRANCH   5   6
ENDBRANCH   2   5
BRANCH   1  22
HETATM   22  C   UNL     1       8.035  31.356  59.683  1.00  0.00     0.037 A 
HETATM   23  C   UNL     1       9.246  31.547  60.354  1.00  0.00     0.032 A 
HETATM   24  C   UNL     1       9.264  31.920  61.702  1.00  0.00     0.041 A 
HETATM   25  C   UNL     1       8.072  32.125  62.387  1.00  0.00     0.096 A 
HETATM   26  O   UNL     1       8.178  32.464  63.705  1.00  0.00    -0.335 OA
HETATM   27  C   UNL     1       6.858  31.935  61.728  1.00  0.00     0.070 A 
HETATM   28  C   UNL     1       6.985  32.969  64.299  1.00  0.00     0.217 C 
HETATM   29  C   UNL     1       7.076  34.494  64.318  1.00  0.00     0.050 C 
HETATM   30  C   UNL     1       5.630  32.553  63.710  1.00  0.00     0.251 C 
HETATM   31  N   UNL     1       5.658  32.114  62.415  1.00  0.00    -0.323 N 
HETATM   32  O   UNL     1       4.565  32.668  64.315  1.00  0.00    -0.270 OA
HETATM   33  H   UNL     1       4.767  31.903  61.986  1.00  0.00     0.169 HD
HETATM   34  C   UNL     1       6.836  31.542  60.385  1.00  0.00     0.062 A 
ENDBRANCH   1  22
TORSDOF 7
ENDMDL
MODEL 4
REMARK VINA RESULT:      -9.3      2.088      3.871
REMARK  7 active torsions:
REMARK  status: ('A' for Active; 'I' for Inactive)
REMARK    1  A    between atoms: C_11  and  N_12 
REMARK       I    between atoms: N_12  and  C_13 
REMARK    2  A    between atoms: C_13  and  C_14 
REMARK    3  A    between atoms: C_14  and  S_15 
REMARK    4  A    between atoms: S_15  and  C_16 
REMARK    5  A    between atoms: N_17  and  C_18 
REMARK    6  A    between atoms: C_18  and  C_19 
REMARK    7  A    between atoms: C_25  and  C_26 
ROOT
HETATM    1  N   UNL     1       7.780  29.769  57.915  1.00  0.00    -0.326 N 
HETATM    2  C   UNL     1       9.103  29.599  57.538  1.00  0.00     0.231 C 
HETATM    3  O   UNL     1      10.034  30.345  57.831  1.00  0.00    -0.272 OA
HETATM    4  H   UNL     1       7.111  29.156  57.463  1.00  0.00     0.169 HD
ENDROOT
BRANCH   2   5
HETATM    5  C   UNL     1       9.362  28.316  56.764  1.00  0.00     0.185 C 
BRANCH   5   6
HETATM    6  S   UNL     1       8.069  27.069  57.063  1.00  0.00    -0.081 SA
BRANCH   6   7
HETATM    7  C   UNL     1       7.172  27.233  55.588  1.00  0.00     0.192 A 
HETATM    8  N   UNL     1       6.432  26.239  54.991  1.00  0.00    -0.307 N 
HETATM    9  C   UNL     1       5.889  26.825  53.865  1.00  0.00     0.135 A 
HETATM   10  N   UNL     1       6.291  28.083  53.813  1.00  0.00    -0.134 NA
HETATM   11  N   UNL     1       7.104  28.332  54.880  1.00  0.00    -0.123 NA
BRANCH   8  12
HETATM   12  C   UNL     1       6.181  24.920  55.542  1.00  0.00     0.171 C 
BRANCH  12  13
HETATM   13  C   UNL     1       7.191  23.868  55.146  1.00  0.00    -0.040 A 
HETATM   14  C   UNL     1       7.607  23.667  53.821  1.00  0.00     0.009 A 
HETATM   15  C   UNL     1       8.557  22.690  53.513  1.00  0.00     0.001 A 
HETATM   16  C   UNL     1       9.119  21.916  54.523  1.00  0.00     0.000 A 
HETATM   17  C   UNL     1       8.740  22.120  55.846  1.00  0.00     0.001 A 
HETATM   18  C   UNL     1       7.787  23.093  56.157  1.00  0.00     0.009 A 
ENDBRANCH  12  13
ENDBRANCH   8  12
BRANCH   9  19
HETATM   19  C   UNL     1       4.982  26.325  52.747  1.00  0.00     0.057 A 
HETATM   20  C   UNL     1       5.566  25.814  51.451  1.00  0.00     0.013 A 
HETATM   21  C   UNL     1       4.840  24.876  52.356  1.00  0.00     0.013 A 
ENDBRANCH   9  19
ENDBRANCH   6   7
ENDBRANCH   5   6
ENDBRANCH   2   5
BRANCH   1  22
HETATM   22  C   UNL     1       7.257  30.763  58.769  1.00  0.00     0.037 A 
HETATM   23  C   UNL     1       6.224  31.631  58.403  1.00  0.00     0.032 A 
HETATM   24  C   UNL     1       5.769  32.613  59.290  1.00  0.00     0.041 A 
HETATM   25  C   UNL     1       6.330  32.725  60.558  1.00  0.00     0.096 A 
HETATM   26  O   UNL     1       5.846  33.724  61.352  1.00  0.00    -0.335 OA
HETATM   27  C   UNL     1       7.364  31.866  60.931  1.00  0.00     0.070 A 
HETATM   28  C   UNL     1       6.199  33.628  62.729  1.00  0.00     0.217 C 
HETATM   29  C   UNL     1       5.019  33.013  63.477  1.00  0.00     0.050 C 
HETATM   30  C   UNL     1       7.484  32.882  63.116  1.00  0.00     0.251 C 
HETATM   31  N   UNL     1       7.949  31.988  62.190  1.00  0.00    -0.323 N 
HETATM   32  O   UNL     1       8.036  33.006  64.207  1.00  0.00    -0.270 OA
HETATM   33  H   UNL     1       8.753  31.435  62.455  1.00  0.00     0.169 HD
HETATM   34  C   UNL     1       7.835  30.896  60.039  1.00  0.00     0.062 A 
ENDBRANCH   1  22
TORSDOF 7
ENDMDL
MODEL 5
REMARK VINA RESULT:      -9.3      7.528     10.880
REMARK  7 active torsions:
REMARK  status: ('A' for Active; 'I' for Inactive)
REMARK    1  A    between atoms: C_11  and  N_12 
REMARK       I    between atoms: N_12  and  C_13 
REMARK    2  A    between atoms: C_13  and  C_14 
REMARK    3  A    between atoms: C_14  and  S_15 
REMARK    4  A    between atoms: S_15  and  C_16 
REMARK    5  A    between atoms: N_17  and  C_18 
REMARK    6  A    between atoms: C_18  and  C_19 
REMARK    7  A    between atoms: C_25  and  C_26 
ROOT
HETATM    1  N   UNL     1       4.868  26.208  54.451  1.00  0.00    -0.326 N 
HETATM    2  C   UNL     1       4.999  27.587  54.371  1.00  0.00     0.231 C 
HETATM    3  O   UNL     1       5.963  28.239  54.764  1.00  0.00    -0.272 OA
HETATM    4  H   UNL     1       3.950  25.840  54.228  1.00  0.00     0.169 HD
ENDROOT
BRANCH   2   5
HETATM    5  C   UNL     1       3.847  28.274  53.655  1.00  0.00     0.185 C 
BRANCH   5   6
HETATM    6  S   UNL     1       4.422  29.271  52.244  1.00  0.00    -0.081 SA
BRANCH   6   7
HETATM    7  C   UNL     1       4.530  28.026  51.042  1.00  0.00     0.192 A 
HETATM    8  N   UNL     1       3.843  28.006  49.851  1.00  0.00    -0.307 N 
HETATM    9  C   UNL     1       4.253  26.848  49.222  1.00  0.00     0.135 A 
HETATM   10  N   UNL     1       5.124  26.233  50.001  1.00  0.00    -0.134 NA
HETATM   11  N   UNL     1       5.285  26.960  51.144  1.00  0.00    -0.123 NA
BRANCH   8  12
HETATM   12  C   UNL     1       2.997  29.070  49.341  1.00  0.00     0.171 C 
BRANCH  12  13
HETATM   13  C   UNL     1       3.671  29.997  48.358  1.00  0.00    -0.040 A 
HETATM   14  C   UNL     1       3.454  29.932  46.973  1.00  0.00     0.009 A 
HETATM   15  C   UNL     1       4.092  30.825  46.109  1.00  0.00     0.001 A 
HETATM   16  C   UNL     1       4.938  31.808  46.615  1.00  0.00     0.000 A 
HETATM   17  C   UNL     1       5.143  31.905  47.988  1.00  0.00     0.001 A 
HETATM   18  C   UNL     1       4.510  31.011  48.855  1.00  0.00     0.009 A 
ENDBRANCH  12  13
ENDBRANCH   8  12
BRANCH   9  19
HETATM   19  C   UNL     1       3.906  26.191  47.891  1.00  0.00     0.057 A 
HETATM   20  C   UNL     1       2.979  24.999  47.838  1.00  0.00     0.013 A 
HETATM   21  C   UNL     1       2.559  26.291  47.221  1.00  0.00     0.013 A 
ENDBRANCH   9  19
ENDBRANCH   6   7
ENDBRANCH   5   6
ENDBRANCH   2   5
BRANCH   1  22
HETATM   22  C   UNL     1       5.832  25.285  54.907  1.00  0.00     0.037 A 
HETATM   23  C   UNL     1       6.388  25.317  56.189  1.00  0.00     0.032 A 
HETATM   24  C   UNL     1       7.360  24.385  56.569  1.00  0.00     0.041 A 
HETATM   25  C   UNL     1       7.772  23.401  55.677  1.00  0.00     0.096 A 
HETATM   26  O   UNL     1       8.741  22.547  56.119  1.00  0.00    -0.335 OA
HETATM   27  C   UNL     1       7.226  23.362  54.395  1.00  0.00     0.070 A 
HETATM   28  C   UNL     1       8.922  21.375  55.327  1.00  0.00     0.217 C 
HETATM   29  C   UNL     1       8.173  20.229  56.003  1.00  0.00     0.050 C 
HETATM   30  C   UNL     1       8.543  21.418  53.841  1.00  0.00     0.251 C 
HETATM   31  N   UNL     1       7.653  22.395  53.486  1.00  0.00    -0.323 N 
HETATM   32  O   UNL     1       8.939  20.596  53.017  1.00  0.00    -0.270 OA
HETATM   33  H   UNL     1       7.335  22.394  52.526  1.00  0.00     0.169 HD
HETATM   34  C   UNL     1       6.269  24.305  54.004  1.00  0.00     0.062 A 
ENDBRANCH   1  22
TORSDOF 7
ENDMDL
MODEL 6
REMARK VINA RESULT:      -9.1      3.398     10.935
REMARK  7 active torsions:
REMARK  status: ('A' for Active; 'I' for Inactive)
REMARK    1  A    between atoms: C_11  and  N_12 
REMARK       I    between atoms: N_12  and  C_13 
REMARK    2  A    between atoms: C_13  and  C_14 
REMARK    3  A    between atoms: C_14  and  S_15 
REMARK    4  A    between atoms: S_15  and  C_16 
REMARK    5  A    between atoms: N_17  and  C_18 
REMARK    6  A    between atoms: C_18  and  C_19 
REMARK    7  A    between atoms: C_25  and  C_26 
ROOT
HETATM    1  N   UNL     1       8.322  28.216  57.250  1.00  0.00    -0.326 N 
HETATM    2  C   UNL     1       7.419  29.110  57.805  1.00  0.00     0.231 C 
HETATM    3  O   UNL     1       6.196  29.035  57.729  1.00  0.00    -0.272 OA
HETATM    4  H   UNL     1       9.294  28.504  57.267  1.00  0.00     0.169 HD
ENDROOT
BRANCH   2   5
HETATM    5  C   UNL     1       8.071  30.209  58.629  1.00  0.00     0.185 C 
BRANCH   5   6
HETATM    6  S   UNL     1       6.871  31.484  59.131  1.00  0.00    -0.081 SA
BRANCH   6   7
HETATM    7  C   UNL     1       7.473  31.830  60.720  1.00  0.00     0.192 A 
HETATM    8  N   UNL     1       6.711  32.245  61.788  1.00  0.00    -0.307 N 
HETATM    9  C   UNL     1       7.604  32.376  62.832  1.00  0.00     0.135 A 
HETATM   10  N   UNL     1       8.809  32.056  62.397  1.00  0.00    -0.134 NA
HETATM   11  N   UNL     1       8.730  31.730  61.075  1.00  0.00    -0.123 NA
BRANCH   8  12
HETATM   12  C   UNL     1       5.265  32.362  61.805  1.00  0.00     0.171 C 
BRANCH  12  13
HETATM   13  C   UNL     1       4.730  33.671  61.273  1.00  0.00    -0.040 A 
HETATM   14  C   UNL     1       5.124  34.919  61.778  1.00  0.00     0.009 A 
HETATM   15  C   UNL     1       4.610  36.101  61.238  1.00  0.00     0.001 A 
HETATM   16  C   UNL     1       3.713  36.054  60.175  1.00  0.00     0.000 A 
HETATM   17  C   UNL     1       3.332  34.825  59.644  1.00  0.00     0.001 A 
HETATM   18  C   UNL     1       3.841  33.642  60.184  1.00  0.00     0.009 A 
ENDBRANCH  12  13
ENDBRANCH   8  12
BRANCH   9  19
HETATM   19  C   UNL     1       7.467  32.797  64.291  1.00  0.00     0.057 A 
HETATM   20  C   UNL     1       7.331  34.255  64.663  1.00  0.00     0.013 A 
HETATM   21  C   UNL     1       6.194  33.320  64.906  1.00  0.00     0.013 A 
ENDBRANCH   9  19
ENDBRANCH   6   7
ENDBRANCH   5   6
ENDBRANCH   2   5
BRANCH   1  22
HETATM   22  C   UNL     1       8.025  27.013  56.575  1.00  0.00     0.037 A 
HETATM   23  C   UNL     1       7.426  26.962  55.313  1.00  0.00     0.032 A 
HETATM   24  C   UNL     1       7.136  25.733  54.710  1.00  0.00     0.041 A 
HETATM   25  C   UNL     1       7.458  24.544  55.355  1.00  0.00     0.096 A 
HETATM   26  O   UNL     1       7.119  23.390  54.709  1.00  0.00    -0.335 OA
HETATM   27  C   UNL     1       8.053  24.584  56.615  1.00  0.00     0.070 A 
HETATM   28  C   UNL     1       7.727  22.208  55.223  1.00  0.00     0.217 C 
HETATM   29  C   UNL     1       8.926  21.872  54.340  1.00  0.00     0.050 C 
HETATM   30  C   UNL     1       8.160  22.175  56.695  1.00  0.00     0.251 C 
HETATM   31  N   UNL     1       8.356  23.397  57.280  1.00  0.00    -0.323 N 
HETATM   32  O   UNL     1       8.396  21.136  57.308  1.00  0.00    -0.270 OA
HETATM   33  H   UNL     1       8.711  23.396  58.226  1.00  0.00     0.169 HD
HETATM   34  C   UNL     1       8.327  25.811  57.231  1.00  0.00     0.062 A 
ENDBRANCH   1  22
TORSDOF 7
ENDMDL
MODEL 7
REMARK VINA RESULT:      -9.1      3.143     10.367
REMARK  7 active torsions:
REMARK  status: ('A' for Active; 'I' for Inactive)
REMARK    1  A    between atoms: C_11  and  N_12 
REMARK       I    between atoms: N_12  and  C_13 
REMARK    2  A    between atoms: C_13  and  C_14 
REMARK    3  A    between atoms: C_14  and  S_15 
REMARK    4  A    between atoms: S_15  and  C_16 
REMARK    5  A    between atoms: N_17  and  C_18 
REMARK    6  A    between atoms: C_18  and  C_19 
REMARK    7  A    between atoms: C_25  and  C_26 
ROOT
HETATM    1  N   UNL     1       5.320  30.297  58.027  1.00  0.00    -0.326 N 
HETATM    2  C   UNL     1       4.321  31.237  57.821  1.00  0.00     0.231 C 
HETATM    3  O   UNL     1       3.856  31.562  56.732  1.00  0.00    -0.272 OA
HETATM    4  H   UNL     1       5.701  30.258  58.966  1.00  0.00     0.169 HD
ENDROOT
BRANCH   2   5
HETATM    5  C   UNL     1       3.746  31.814  59.105  1.00  0.00     0.185 C 
BRANCH   5   6
HETATM    6  S   UNL     1       4.603  33.341  59.606  1.00  0.00    -0.081 SA
BRANCH   6   7
HETATM    7  C   UNL     1       4.328  33.271  61.317  1.00  0.00     0.192 A 
HETATM    8  N   UNL     1       5.286  33.455  62.287  1.00  0.00    -0.307 N 
HETATM    9  C   UNL     1       4.611  33.327  63.484  1.00  0.00     0.135 A 
HETATM   10  N   UNL     1       3.339  33.083  63.224  1.00  0.00    -0.134 NA
HETATM   11  N   UNL     1       3.165  33.033  61.872  1.00  0.00    -0.123 NA
BRANCH   8  12
HETATM   12  C   UNL     1       6.664  33.846  62.055  1.00  0.00     0.171 C 
BRANCH  12  13
HETATM   13  C   UNL     1       7.623  32.695  61.858  1.00  0.00    -0.040 A 
HETATM   14  C   UNL     1       7.854  31.716  62.837  1.00  0.00     0.009 A 
HETATM   15  C   UNL     1       8.739  30.663  62.596  1.00  0.00     0.001 A 
HETATM   16  C   UNL     1       9.391  30.561  61.370  1.00  0.00     0.000 A 
HETATM   17  C   UNL     1       9.153  31.507  60.378  1.00  0.00     0.001 A 
HETATM   18  C   UNL     1       8.271  32.564  60.617  1.00  0.00     0.009 A 
ENDBRANCH  12  13
ENDBRANCH   8  12
BRANCH   9  19
HETATM   19  C   UNL     1       5.033  33.403  64.947  1.00  0.00     0.057 A 
HETATM   20  C   UNL     1       5.643  34.666  65.508  1.00  0.00     0.013 A 
HETATM   21  C   UNL     1       4.309  34.207  65.996  1.00  0.00     0.013 A 
ENDBRANCH   9  19
ENDBRANCH   6   7
ENDBRANCH   5   6
ENDBRANCH   2   5
BRANCH   1  22
HETATM   22  C   UNL     1       5.932  29.475  57.057  1.00  0.00     0.037 A 
HETATM   23  C   UNL     1       7.252  29.638  56.628  1.00  0.00     0.032 A 
HETATM   24  C   UNL     1       7.789  28.803  55.642  1.00  0.00     0.041 A 
HETATM   25  C   UNL     1       7.018  27.786  55.090  1.00  0.00     0.096 A 
HETATM   26  O   UNL     1       7.610  27.032  54.118  1.00  0.00    -0.335 OA
HETATM   27  C   UNL     1       5.699  27.618  55.509  1.00  0.00     0.070 A 
HETATM   28  C   UNL     1       6.932  25.821  53.793  1.00  0.00     0.217 C 
HETATM   29  C   UNL     1       7.626  24.680  54.533  1.00  0.00     0.050 C 
HETATM   30  C   UNL     1       5.419  25.730  54.033  1.00  0.00     0.251 C 
HETATM   31  N   UNL     1       4.911  26.617  54.943  1.00  0.00    -0.323 N 
HETATM   32  O   UNL     1       4.701  24.878  53.513  1.00  0.00    -0.270 OA
HETATM   33  H   UNL     1       3.929  26.526  55.168  1.00  0.00     0.169 HD
HETATM   34  C   UNL     1       5.151  28.464  56.481  1.00  0.00     0.062 A 
ENDBRANCH   1  22
TORSDOF 7
ENDMDL
MODEL 8
REMARK VINA RESULT:      -9.0      4.381     10.724
REMARK  7 active torsions:
REMARK  status: ('A' for Active; 'I' for Inactive)
REMARK    1  A    between atoms: C_11  and  N_12 
REMARK       I    between atoms: N_12  and  C_13 
REMARK    2  A    between atoms: C_13  and  C_14 
REMARK    3  A    between atoms: C_14  and  S_15 
REMARK    4  A    between atoms: S_15  and  C_16 
REMARK    5  A    between atoms: N_17  and  C_18 
REMARK    6  A    between atoms: C_18  and  C_19 
REMARK    7  A    between atoms: C_25  and  C_26 
ROOT
HETATM    1  N   UNL     1       6.362  27.557  54.168  1.00  0.00    -0.326 N 
HETATM    2  C   UNL     1       5.097  28.115  54.058  1.00  0.00     0.231 C 
HETATM    3  O   UNL     1       4.124  27.586  53.525  1.00  0.00    -0.272 OA
HETATM    4  H   UNL     1       7.091  28.182  54.493  1.00  0.00     0.169 HD
ENDROOT
BRANCH   2   5
HETATM    5  C   UNL     1       4.956  29.463  54.747  1.00  0.00     0.185 C 
BRANCH   5   6
HETATM    6  S   UNL     1       4.396  29.290  56.471  1.00  0.00    -0.081 SA
BRANCH   6   7
HETATM    7  C   UNL     1       5.937  29.188  57.260  1.00  0.00     0.192 A 
HETATM    8  N   UNL     1       6.643  30.253  57.770  1.00  0.00    -0.307 N 
HETATM    9  C   UNL     1       7.785  29.698  58.310  1.00  0.00     0.135 A 
HETATM   10  N   UNL     1       7.745  28.391  58.123  1.00  0.00    -0.134 NA
HETATM   11  N   UNL     1       6.599  28.075  57.455  1.00  0.00    -0.123 NA
BRANCH   8  12
HETATM   12  C   UNL     1       6.177  31.626  57.838  1.00  0.00     0.171 C 
BRANCH  12  13
HETATM   13  C   UNL     1       5.383  31.963  59.079  1.00  0.00    -0.040 A 
HETATM   14  C   UNL     1       3.986  31.848  59.147  1.00  0.00     0.009 A 
HETATM   15  C   UNL     1       3.303  32.158  60.326  1.00  0.00     0.001 A 
HETATM   16  C   UNL     1       4.004  32.566  61.457  1.00  0.00     0.000 A 
HETATM   17  C   UNL     1       5.392  32.660  61.415  1.00  0.00     0.001 A 
HETATM   18  C   UNL     1       6.078  32.354  60.237  1.00  0.00     0.009 A 
ENDBRANCH  12  13
ENDBRANCH   8  12
BRANCH   9  19
HETATM   19  C   UNL     1       9.002  30.273  59.026  1.00  0.00     0.057 A 
HETATM   20  C   UNL     1      10.246  30.644  58.254  1.00  0.00     0.013 A 
HETATM   21  C   UNL     1       9.444  31.710  58.923  1.00  0.00     0.013 A 
ENDBRANCH   9  19
ENDBRANCH   6   7
ENDBRANCH   5   6
ENDBRANCH   2   5
BRANCH   1  22
HETATM   22  C   UNL     1       6.760  26.261  53.780  1.00  0.00     0.037 A 
HETATM   23  C   UNL     1       7.110  25.920  52.470  1.00  0.00     0.032 A 
HETATM   24  C   UNL     1       7.472  24.607  52.148  1.00  0.00     0.041 A 
HETATM   25  C   UNL     1       7.504  23.628  53.134  1.00  0.00     0.096 A 
HETATM   26  O   UNL     1       7.844  22.369  52.730  1.00  0.00    -0.335 OA
HETATM   27  C   UNL     1       7.153  23.957  54.442  1.00  0.00     0.070 A 
HETATM   28  C   UNL     1       8.174  21.464  53.781  1.00  0.00     0.217 C 
HETATM   29  C   UNL     1       9.696  21.402  53.889  1.00  0.00     0.050 C 
HETATM   30  C   UNL     1       7.579  21.699  55.177  1.00  0.00     0.251 C 
HETATM   31  N   UNL     1       7.158  22.975  55.432  1.00  0.00    -0.323 N 
HETATM   32  O   UNL     1       7.540  20.834  56.050  1.00  0.00    -0.270 OA
HETATM   33  H   UNL     1       6.830  23.167  56.369  1.00  0.00     0.169 HD
HETATM   34  C   UNL     1       6.772  25.264  54.766  1.00  0.00     0.062 A 
ENDBRANCH   1  22
TORSDOF 7
ENDMDL
MODEL 9
REMARK VINA RESULT:      -8.9      3.848     10.699
REMARK  7 active torsions:
REMARK  status: ('A' for Active; 'I' for Inactive)
REMARK    1  A    between atoms: C_11  and  N_12 
REMARK       I    between atoms: N_12  and  C_13 
REMARK    2  A    between atoms: C_13  and  C_14 
REMARK    3  A    between atoms: C_14  and  S_15 
REMARK    4  A    between atoms: S_15  and  C_16 
REMARK    5  A    between atoms: N_17  and  C_18 
REMARK    6  A    between atoms: C_18  and  C_19 
REMARK    7  A    between atoms: C_25  and  C_26 
ROOT
HETATM    1  N   UNL     1       6.411  26.934  56.948  1.00  0.00    -0.326 N 
HETATM    2  C   UNL     1       6.079  27.954  56.069  1.00  0.00     0.231 C 
HETATM    3  O   UNL     1       6.488  28.067  54.916  1.00  0.00    -0.272 OA
HETATM    4  H   UNL     1       6.118  27.069  57.909  1.00  0.00     0.169 HD
ENDROOT
BRANCH   2   5
HETATM    5  C   UNL     1       5.058  28.935  56.622  1.00  0.00     0.185 C 
BRANCH   5   6
HETATM    6  S   UNL     1       5.697  30.640  56.645  1.00  0.00    -0.081 SA
BRANCH   6   7
HETATM    7  C   UNL     1       6.813  30.506  57.965  1.00  0.00     0.192 A 
HETATM    8  N   UNL     1       7.029  31.465  58.927  1.00  0.00    -0.307 N 
HETATM    9  C   UNL     1       7.976  30.919  59.769  1.00  0.00     0.135 A 
HETATM   10  N   UNL     1       8.291  29.716  59.322  1.00  0.00    -0.134 NA
HETATM   11  N   UNL     1       7.576  29.465  58.188  1.00  0.00    -0.123 NA
BRANCH   8  12
HETATM   12  C   UNL     1       6.288  32.705  59.071  1.00  0.00     0.171 C 
BRANCH  12  13
HETATM   13  C   UNL     1       5.512  32.831  60.362  1.00  0.00    -0.040 A 
HETATM   14  C   UNL     1       4.423  32.005  60.683  1.00  0.00     0.009 A 
HETATM   15  C   UNL     1       3.751  32.154  61.898  1.00  0.00     0.001 A 
HETATM   16  C   UNL     1       4.168  33.113  62.817  1.00  0.00     0.000 A 
HETATM   17  C   UNL     1       5.263  33.921  62.527  1.00  0.00     0.001 A 
HETATM   18  C   UNL     1       5.935  33.778  61.311  1.00  0.00     0.009 A 
ENDBRANCH  12  13
ENDBRANCH   8  12
BRANCH   9  19
HETATM   19  C   UNL     1       8.682  31.414  61.027  1.00  0.00     0.057 A 
HETATM   20  C   UNL     1       8.099  31.144  62.394  1.00  0.00     0.013 A 
HETATM   21  C   UNL     1       9.396  30.517  62.006  1.00  0.00     0.013 A 
ENDBRANCH   9  19
ENDBRANCH   6   7
ENDBRANCH   5   6
ENDBRANCH   2   5
BRANCH   1  22
HETATM   22  C   UNL     1       7.198  25.795  56.676  1.00  0.00     0.037 A 
HETATM   23  C   UNL     1       8.333  25.446  57.413  1.00  0.00     0.032 A 
HETATM   24  C   UNL     1       9.084  24.315  57.073  1.00  0.00     0.041 A 
HETATM   25  C   UNL     1       8.696  23.513  56.006  1.00  0.00     0.096 A 
HETATM   26  O   UNL     1       9.496  22.443  55.727  1.00  0.00    -0.335 OA
HETATM   27  C   UNL     1       7.567  23.854  55.263  1.00  0.00     0.070 A 
HETATM   28  C   UNL     1       8.927  21.472  54.852  1.00  0.00     0.217 C 
HETATM   29  C   UNL     1       8.384  20.328  55.706  1.00  0.00     0.050 C 
HETATM   30  C   UNL     1       7.845  21.914  53.856  1.00  0.00     0.251 C 
HETATM   31  N   UNL     1       7.185  23.069  54.175  1.00  0.00    -0.323 N 
HETATM   32  O   UNL     1       7.522  21.253  52.871  1.00  0.00    -0.270 OA
HETATM   33  H   UNL     1       6.421  23.339  53.571  1.00  0.00     0.169 HD
HETATM   34  C   UNL     1       6.825  24.996  55.587  1.00  0.00     0.062 A 
ENDBRANCH   1  22
TORSDOF 7
ENDMDL
MODEL 10
REMARK VINA RESULT:      -8.9      7.293     12.553
REMARK  7 active torsions:
REMARK  status: ('A' for Active; 'I' for Inactive)
REMARK    1  A    between atoms: C_11  and  N_12 
REMARK       I    between atoms: N_12  and  C_13 
REMARK    2  A    between atoms: C_13  and  C_14 
REMARK    3  A    between atoms: C_14  and  S_15 
REMARK    4  A    between atoms: S_15  and  C_16 
REMARK    5  A    between atoms: N_17  and  C_18 
REMARK    6  A    between atoms: C_18  and  C_19 
REMARK    7  A    between atoms: C_25  and  C_26 
ROOT
HETATM    1  N   UNL     1       4.000  28.502  48.885  1.00  0.00    -0.326 N 
HETATM    2  C   UNL     1       4.258  28.383  50.243  1.00  0.00     0.231 C 
HETATM    3  O   UNL     1       3.458  28.610  51.147  1.00  0.00    -0.272 OA
HETATM    4  H   UNL     1       4.808  28.432  48.276  1.00  0.00     0.169 HD
ENDROOT
BRANCH   2   5
HETATM    5  C   UNL     1       5.644  27.845  50.561  1.00  0.00     0.185 C 
BRANCH   5   6
HETATM    6  S   UNL     1       5.569  26.320  51.554  1.00  0.00    -0.081 SA
BRANCH   6   7
HETATM    7  C   UNL     1       6.156  26.938  53.065  1.00  0.00     0.192 A 
HETATM    8  N   UNL     1       6.125  26.268  54.266  1.00  0.00    -0.307 N 
HETATM    9  C   UNL     1       6.708  27.131  55.171  1.00  0.00     0.135 A 
HETATM   10  N   UNL     1       7.055  28.235  54.533  1.00  0.00    -0.134 NA
HETATM   11  N   UNL     1       6.697  28.120  53.222  1.00  0.00    -0.123 NA
BRANCH   8  12
HETATM   12  C   UNL     1       5.701  24.893  54.460  1.00  0.00     0.171 C 
BRANCH  12  13
HETATM   13  C   UNL     1       6.818  23.877  54.426  1.00  0.00    -0.040 A 
HETATM   14  C   UNL     1       7.390  23.410  53.232  1.00  0.00     0.009 A 
HETATM   15  C   UNL     1       8.433  22.480  53.258  1.00  0.00     0.001 A 
HETATM   16  C   UNL     1       8.932  22.020  54.473  1.00  0.00     0.000 A 
HETATM   17  C   UNL     1       8.395  22.492  55.667  1.00  0.00     0.001 A 
HETATM   18  C   UNL     1       7.350  23.419  55.644  1.00  0.00     0.009 A 
ENDBRANCH  12  13
ENDBRANCH   8  12
BRANCH   9  19
HETATM   19  C   UNL     1       6.999  27.056  56.665  1.00  0.00     0.057 A 
HETATM   20  C   UNL     1       8.298  26.470  57.169  1.00  0.00     0.013 A 
HETATM   21  C   UNL     1       8.010  27.919  57.376  1.00  0.00     0.013 A 
ENDBRANCH   9  19
ENDBRANCH   6   7
ENDBRANCH   5   6
ENDBRANCH   2   5
BRANCH   1  22
HETATM   22  C   UNL     1       2.768  28.816  48.275  1.00  0.00     0.037 A 
HETATM   23  C   UNL     1       2.019  29.955  48.586  1.00  0.00     0.032 A 
HETATM   24  C   UNL     1       0.790  30.193  47.961  1.00  0.00     0.041 A 
HETATM   25  C   UNL     1       0.308  29.306  47.005  1.00  0.00     0.096 A 
HETATM   26  O   UNL     1      -0.909  29.600  46.461  1.00  0.00    -0.335 OA
HETATM   27  C   UNL     1       1.046  28.166  46.689  1.00  0.00     0.070 A 
HETATM   28  C   UNL     1      -1.237  28.871  45.281  1.00  0.00     0.217 C 
HETATM   29  C   UNL     1      -0.937  29.761  44.077  1.00  0.00     0.050 C 
HETATM   30  C   UNL     1      -0.600  27.492  45.060  1.00  0.00     0.251 C 
HETATM   31  N   UNL     1       0.558  27.259  45.750  1.00  0.00    -0.323 N 
HETATM   32  O   UNL     1      -1.039  26.664  44.264  1.00  0.00    -0.270 OA
HETATM   33  H   UNL     1       1.031  26.385  45.563  1.00  0.00     0.169 HD
HETATM   34  C   UNL     1       2.266  27.913  47.327  1.00  0.00     0.062 A 
ENDBRANCH   1  22
TORSDOF 7
ENDMDL
