MODEL 1
REMARK VINA RESULT:     -10.2      0.000      0.000
REMARK  9 active torsions:
REMARK  status: ('A' for Active; 'I' for Inactive)
REMARK    1  A    between atoms: C_2  and  N_3 
REMARK       I    between atoms: N_3  and  C_4 
REMARK    2  A    between atoms: C_4  and  C_5 
REMARK    3  A    between atoms: N_6  and  C_8 
REMARK    4  A    between atoms: C_8  and  C_9 
REMARK    5  A    between atoms: C_12  and  O_13 
REMARK    6  A    between atoms: O_13  and  C_14 
REMARK    7  A    between atoms: C_14  and  C_15 
REMARK    8  A    between atoms: C_24  and  S_25 
REMARK    9  A    between atoms: S_25  and  C_26 
ROOT
HETATM    1  C   UNL     1       5.843  25.370  54.944  1.00  0.00     0.280 C 
HETATM    2  N   UNL     1       6.140  26.809  55.396  1.00  0.00    -0.053 N 
HETATM    3  H   UNL     1       5.919  26.882  56.398  1.00  0.00     0.281 HD
HETATM    4  C   UNL     1       5.162  27.622  54.574  1.00  0.00     0.252 C 
HETATM    5  C   UNL     1       5.069  26.894  53.222  1.00  0.00     0.083 C 
HETATM    6  C   UNL     1       5.720  25.520  53.435  1.00  0.00     0.060 C 
ENDROOT
BRANCH   2   7
HETATM    7  C   UNL     1       7.586  27.255  55.265  1.00  0.00     0.274 C 
BRANCH   7   8
HETATM    8  C   UNL     1       7.988  28.272  56.300  1.00  0.00    -0.032 A 
HETATM    9  C   UNL     1       9.118  29.083  56.107  1.00  0.00     0.011 A 
HETATM   10  C   UNL     1       9.495  30.023  57.074  1.00  0.00     0.037 A 
HETATM   11  C   UNL     1       8.747  30.158  58.241  1.00  0.00     0.069 A 
HETATM   12  C   UNL     1       7.641  29.337  58.452  1.00  0.00     0.037 A 
HETATM   13  C   UNL     1       7.251  28.412  57.485  1.00  0.00     0.011 A 
BRANCH  11  14
HETATM   14  O   UNL     1       9.024  31.023  59.259  1.00  0.00    -0.347 OA
BRANCH  14  15
HETATM   15  C   UNL     1       8.845  30.513  60.582  1.00  0.00     0.214 C 
BRANCH  15  16
HETATM   16  C   UNL     1       8.163  31.588  61.388  1.00  0.00    -0.034 A 
HETATM   17  C   UNL     1       8.536  31.822  62.719  1.00  0.00     0.009 A 
HETATM   18  C   UNL     1       7.879  32.792  63.480  1.00  0.00     0.001 A 
HETATM   19  C   UNL     1       6.841  33.532  62.919  1.00  0.00     0.000 A 
HETATM   20  C   UNL     1       6.455  33.304  61.600  1.00  0.00     0.001 A 
HETATM   21  C   UNL     1       7.110  32.334  60.838  1.00  0.00     0.009 A 
ENDBRANCH  15  16
ENDBRANCH  14  15
ENDBRANCH  11  14
ENDBRANCH   7   8
ENDBRANCH   2   7
BRANCH   1  22
HETATM   22  C   UNL     1       6.839  24.325  55.469  1.00  0.00     0.249 C 
HETATM   23  N   UNL     1       7.344  23.435  54.550  1.00  0.00    -0.355 N 
HETATM   24  H   UNL     1       6.909  23.334  53.641  1.00  0.00     0.162 HD
HETATM   25  O   UNL     1       7.133  24.305  56.664  1.00  0.00    -0.271 OA
BRANCH  23  26
HETATM   26  C   UNL     1       8.254  22.359  54.942  1.00  0.00     0.076 C 
HETATM   27  C   UNL     1       9.090  21.926  53.742  1.00  0.00     0.032 C 
HETATM   28  C   UNL     1       7.472  21.179  55.514  1.00  0.00     0.032 C 
ENDBRANCH  23  26
ENDBRANCH   1  22
BRANCH   5  29
HETATM   29  S   UNL     1       5.915  27.768  51.855  1.00  0.00    -0.085 SA
BRANCH  29  30
HETATM   30  C   UNL     1       4.805  27.454  50.575  1.00  0.00     0.168 A 
HETATM   31  N   UNL     1       3.757  28.179  50.273  1.00  0.00    -0.223 NA
HETATM   32  C   UNL     1       3.209  27.545  49.178  1.00  0.00     0.086 A 
HETATM   33  C   UNL     1       3.956  26.423  48.825  1.00  0.00     0.063 A 
HETATM   34  C   UNL     1       2.071  27.872  48.428  1.00  0.00     0.034 A 
HETATM   35  N   UNL     1       4.975  26.390  49.741  1.00  0.00    -0.333 N 
HETATM   36  C   UNL     1       3.632  25.592  47.750  1.00  0.00     0.032 A 
HETATM   37  H   UNL     1       5.715  25.705  49.794  1.00  0.00     0.168 HD
HETATM   38  C   UNL     1       2.492  25.935  47.015  1.00  0.00     0.002 A 
HETATM   39  C   UNL     1       1.724  27.054  47.346  1.00  0.00     0.002 A 
ENDBRANCH  29  30
ENDBRANCH   5  29
TORSDOF 9
ENDMDL
MODEL 2
REMARK VINA RESULT:     -10.0      1.399      1.748
REMARK  9 active torsions:
REMARK  status: ('A' for Active; 'I' for Inactive)
REMARK    1  A    between atoms: C_2  and  N_3 
REMARK       I    between atoms: N_3  and  C_4 
REMARK    2  A    between atoms: C_4  and  C_5 
REMARK    3  A    between atoms: N_6  and  C_8 
REMARK    4  A    between atoms: C_8  and  C_9 
REMARK    5  A    between atoms: C_12  and  O_13 
REMARK    6  A    between atoms: O_13  and  C_14 
REMARK    7  A    between atoms: C_14  and  C_15 
REMARK    8  A    between atoms: C_24  and  S_25 
REMARK    9  A    between atoms: S_25  and  C_26 
ROOT
HETATM    1  C   UNL     1       5.725  25.063  53.262  1.00  0.00     0.280 C 
HETATM    2  N   UNL     1       5.792  26.426  53.969  1.00  0.00    -0.053 N 
HETATM    3  H   UNL     1       5.562  26.284  54.961  1.00  0.00     0.281 HD
HETATM    4  C   UNL     1       4.698  27.212  53.276  1.00  0.00     0.252 C 
HETATM    5  C   UNL     1       4.721  26.731  51.814  1.00  0.00     0.083 C 
HETATM    6  C   UNL     1       5.580  25.459  51.800  1.00  0.00     0.060 C 
ENDROOT
BRANCH   2   7
HETATM    7  C   UNL     1       7.149  27.106  53.960  1.00  0.00     0.274 C 
BRANCH   7   8
HETATM    8  C   UNL     1       7.498  27.750  55.275  1.00  0.00    -0.032 A 
HETATM    9  C   UNL     1       8.435  28.795  55.336  1.00  0.00     0.011 A 
HETATM   10  C   UNL     1       8.765  29.387  56.562  1.00  0.00     0.037 A 
HETATM   11  C   UNL     1       8.161  28.939  57.734  1.00  0.00     0.069 A 
HETATM   12  C   UNL     1       7.251  27.885  57.685  1.00  0.00     0.037 A 
HETATM   13  C   UNL     1       6.907  27.303  56.465  1.00  0.00     0.011 A 
BRANCH  11  14
HETATM   14  O   UNL     1       8.412  29.424  58.985  1.00  0.00    -0.347 OA
BRANCH  14  15
HETATM   15  C   UNL     1       9.073  30.689  59.047  1.00  0.00     0.214 C 
BRANCH  15  16
HETATM   16  C   UNL     1       8.499  31.437  60.223  1.00  0.00    -0.034 A 
HETATM   17  C   UNL     1       9.153  31.421  61.463  1.00  0.00     0.009 A 
HETATM   18  C   UNL     1       8.603  32.082  62.563  1.00  0.00     0.001 A 
HETATM   19  C   UNL     1       7.393  32.760  62.436  1.00  0.00     0.000 A 
HETATM   20  C   UNL     1       6.729  32.776  61.211  1.00  0.00     0.001 A 
HETATM   21  C   UNL     1       7.276  32.115  60.109  1.00  0.00     0.009 A 
ENDBRANCH  15  16
ENDBRANCH  14  15
ENDBRANCH  11  14
ENDBRANCH   7   8
ENDBRANCH   2   7
BRANCH   1  22
HETATM   22  C   UNL     1       6.872  24.107  53.623  1.00  0.00     0.249 C 
HETATM   23  N   UNL     1       6.970  23.728  54.941  1.00  0.00    -0.355 N 
HETATM   24  H   UNL     1       6.461  24.231  55.659  1.00  0.00     0.162 HD
HETATM   25  O   UNL     1       7.656  23.733  52.751  1.00  0.00    -0.271 OA
BRANCH  23  26
HETATM   26  C   UNL     1       8.054  22.869  55.416  1.00  0.00     0.076 C 
HETATM   27  C   UNL     1       7.636  21.405  55.318  1.00  0.00     0.032 C 
HETATM   28  C   UNL     1       8.435  23.231  56.850  1.00  0.00     0.032 C 
ENDBRANCH  23  26
ENDBRANCH   1  22
BRANCH   5  29
HETATM   29  S   UNL     1       5.420  27.955  50.647  1.00  0.00    -0.085 SA
BRANCH  29  30
HETATM   30  C   UNL     1       4.098  28.102  49.551  1.00  0.00     0.168 A 
HETATM   31  N   UNL     1       3.774  29.178  48.879  1.00  0.00    -0.223 NA
HETATM   32  C   UNL     1       2.679  28.797  48.135  1.00  0.00     0.086 A 
HETATM   33  C   UNL     1       2.354  27.463  48.370  1.00  0.00     0.063 A 
HETATM   34  C   UNL     1       1.907  29.539  47.229  1.00  0.00     0.034 A 
HETATM   35  N   UNL     1       3.284  27.043  49.286  1.00  0.00    -0.333 N 
HETATM   36  C   UNL     1       1.288  26.810  47.748  1.00  0.00     0.032 A 
HETATM   37  H   UNL     1       3.354  26.122  49.692  1.00  0.00     0.168 HD
HETATM   38  C   UNL     1       0.529  27.568  46.848  1.00  0.00     0.002 A 
HETATM   39  C   UNL     1       0.831  28.908  46.592  1.00  0.00     0.002 A 
ENDBRANCH  29  30
ENDBRANCH   5  29
TORSDOF 9
ENDMDL
MODEL 3
REMARK VINA RESULT:     -10.0      3.347      6.297
REMARK  9 active torsions:
REMARK  status: ('A' for Active; 'I' for Inactive)
REMARK    1  A    between atoms: C_2  and  N_3 
REMARK       I    between atoms: N_3  and  C_4 
REMARK    2  A    between atoms: C_4  and  C_5 
REMARK    3  A    between atoms: N_6  and  C_8 
REMARK    4  A    between atoms: C_8  and  C_9 
REMARK    5  A    between atoms: C_12  and  O_13 
REMARK    6  A    between atoms: O_13  and  C_14 
REMARK    7  A    between atoms: C_14  and  C_15 
REMARK    8  A    between atoms: C_24  and  S_25 
REMARK    9  A    between atoms: S_25  and  C_26 
ROOT
HETATM    1  C   UNL     1       5.961  28.395  54.148  1.00  0.00     0.280 C 
HETATM    2  N   UNL     1       6.704  28.972  55.364  1.00  0.00    -0.053 N 
HETATM    3  H   UNL     1       7.041  29.912  55.117  1.00  0.00     0.281 HD
HETATM    4  C   UNL     1       7.867  28.014  55.524  1.00  0.00     0.252 C 
HETATM    5  C   UNL     1       7.310  26.635  55.132  1.00  0.00     0.083 C 
HETATM    6  C   UNL     1       5.967  26.902  54.439  1.00  0.00     0.060 C 
ENDROOT
BRANCH   2   7
HETATM    7  C   UNL     1       5.871  29.156  56.619  1.00  0.00     0.274 C 
BRANCH   7   8
HETATM    8  C   UNL     1       6.536  30.028  57.650  1.00  0.00    -0.032 A 
HETATM    9  C   UNL     1       7.664  29.574  58.354  1.00  0.00     0.011 A 
HETATM   10  C   UNL     1       8.276  30.383  59.319  1.00  0.00     0.037 A 
HETATM   11  C   UNL     1       7.766  31.651  59.588  1.00  0.00     0.069 A 
HETATM   12  C   UNL     1       6.630  32.097  58.914  1.00  0.00     0.037 A 
HETATM   13  C   UNL     1       6.027  31.302  57.940  1.00  0.00     0.011 A 
BRANCH  11  14
HETATM   14  O   UNL     1       8.263  32.520  60.514  1.00  0.00    -0.347 OA
BRANCH  14  15
HETATM   15  C   UNL     1       8.398  32.014  61.843  1.00  0.00     0.214 C 
BRANCH  15  16
HETATM   16  C   UNL     1       7.632  32.937  62.755  1.00  0.00    -0.034 A 
HETATM   17  C   UNL     1       7.845  32.904  64.140  1.00  0.00     0.009 A 
HETATM   18  C   UNL     1       7.108  33.731  64.991  1.00  0.00     0.001 A 
HETATM   19  C   UNL     1       6.150  34.596  64.465  1.00  0.00     0.000 A 
HETATM   20  C   UNL     1       5.924  34.632  63.090  1.00  0.00     0.001 A 
HETATM   21  C   UNL     1       6.659  33.805  62.239  1.00  0.00     0.009 A 
ENDBRANCH  15  16
ENDBRANCH  14  15
ENDBRANCH  11  14
ENDBRANCH   7   8
ENDBRANCH   2   7
BRANCH   1  22
HETATM   22  C   UNL     1       4.601  29.054  53.869  1.00  0.00     0.249 C 
HETATM   23  N   UNL     1       4.609  30.407  53.620  1.00  0.00    -0.355 N 
HETATM   24  H   UNL     1       5.427  30.964  53.838  1.00  0.00     0.162 HD
HETATM   25  O   UNL     1       3.575  28.375  53.892  1.00  0.00    -0.271 OA
BRANCH  23  26
HETATM   26  C   UNL     1       3.372  31.155  53.399  1.00  0.00     0.076 C 
HETATM   27  C   UNL     1       3.249  31.528  51.925  1.00  0.00     0.032 C 
HETATM   28  C   UNL     1       3.335  32.401  54.280  1.00  0.00     0.032 C 
ENDBRANCH  23  26
ENDBRANCH   1  22
BRANCH   5  29
HETATM   29  S   UNL     1       7.055  25.511  56.553  1.00  0.00    -0.085 SA
BRANCH  29  30
HETATM   30  C   UNL     1       7.516  24.016  55.831  1.00  0.00     0.168 A 
HETATM   31  N   UNL     1       8.005  22.978  56.461  1.00  0.00    -0.223 NA
HETATM   32  C   UNL     1       8.190  22.036  55.472  1.00  0.00     0.086 A 
HETATM   33  C   UNL     1       7.795  22.530  54.231  1.00  0.00     0.063 A 
HETATM   34  C   UNL     1       8.691  20.730  55.559  1.00  0.00     0.034 A 
HETATM   35  N   UNL     1       7.366  23.806  54.493  1.00  0.00    -0.333 N 
HETATM   36  C   UNL     1       7.869  21.789  53.050  1.00  0.00     0.032 A 
HETATM   37  H   UNL     1       7.008  24.470  53.823  1.00  0.00     0.168 HD
HETATM   38  C   UNL     1       8.373  20.488  53.158  1.00  0.00     0.002 A 
HETATM   39  C   UNL     1       8.777  19.965  54.389  1.00  0.00     0.002 A 
ENDBRANCH  29  30
ENDBRANCH   5  29
TORSDOF 9
ENDMDL
MODEL 4
REMARK VINA RESULT:     -10.0      3.973     10.076
REMARK  9 active torsions:
REMARK  status: ('A' for Active; 'I' for Inactive)
REMARK    1  A    between atoms: C_2  and  N_3 
REMARK       I    between atoms: N_3  and  C_4 
REMARK    2  A    between atoms: C_4  and  C_5 
REMARK    3  A    between atoms: N_6  and  C_8 
REMARK    4  A    between atoms: C_8  and  C_9 
REMARK    5  A    between atoms: C_12  and  O_13 
REMARK    6  A    between atoms: O_13  and  C_14 
REMARK    7  A    between atoms: C_14  and  C_15 
REMARK    8  A    between atoms: C_24  and  S_25 
REMARK    9  A    between atoms: S_25  and  C_26 
ROOT
HETATM    1  C   UNL     1       5.044  27.918  56.389  1.00  0.00     0.280 C 
HETATM    2  N   UNL     1       5.253  26.881  55.273  1.00  0.00    -0.053 N 
HETATM    3  H   UNL     1       4.366  26.779  54.761  1.00  0.00     0.281 HD
HETATM    4  C   UNL     1       5.569  25.620  56.049  1.00  0.00     0.252 C 
HETATM    5  C   UNL     1       6.373  26.091  57.273  1.00  0.00     0.083 C 
HETATM    6  C   UNL     1       6.194  27.615  57.336  1.00  0.00     0.060 C 
ENDROOT
BRANCH   2   7
HETATM    7  C   UNL     1       6.288  27.244  54.223  1.00  0.00     0.274 C 
BRANCH   7   8
HETATM    8  C   UNL     1       5.802  27.030  52.814  1.00  0.00    -0.032 A 
HETATM    9  C   UNL     1       5.598  28.120  51.952  1.00  0.00     0.011 A 
HETATM   10  C   UNL     1       5.138  27.919  50.645  1.00  0.00     0.037 A 
HETATM   11  C   UNL     1       4.878  26.629  50.190  1.00  0.00     0.069 A 
HETATM   12  C   UNL     1       5.052  25.545  51.048  1.00  0.00     0.037 A 
HETATM   13  C   UNL     1       5.526  25.737  52.345  1.00  0.00     0.011 A 
BRANCH  11  14
HETATM   14  O   UNL     1       4.412  26.310  48.948  1.00  0.00    -0.347 OA
BRANCH  14  15
HETATM   15  C   UNL     1       4.610  27.294  47.931  1.00  0.00     0.214 C 
BRANCH  15  16
HETATM   16  C   UNL     1       3.247  27.726  47.455  1.00  0.00    -0.034 A 
HETATM   17  C   UNL     1       2.248  26.775  47.204  1.00  0.00     0.009 A 
HETATM   18  C   UNL     1       0.997  27.170  46.726  1.00  0.00     0.001 A 
HETATM   19  C   UNL     1       0.734  28.519  46.491  1.00  0.00     0.000 A 
HETATM   20  C   UNL     1       1.721  29.473  46.730  1.00  0.00     0.001 A 
HETATM   21  C   UNL     1       2.973  29.079  47.206  1.00  0.00     0.009 A 
ENDBRANCH  15  16
ENDBRANCH  14  15
ENDBRANCH  11  14
ENDBRANCH   7   8
ENDBRANCH   2   7
BRANCH   1  22
HETATM   22  C   UNL     1       4.905  29.364  55.889  1.00  0.00     0.249 C 
HETATM   23  N   UNL     1       3.820  29.641  55.090  1.00  0.00    -0.355 N 
HETATM   24  H   UNL     1       3.284  28.889  54.674  1.00  0.00     0.162 HD
HETATM   25  O   UNL     1       5.752  30.203  56.196  1.00  0.00    -0.271 OA
BRANCH  23  26
HETATM   26  C   UNL     1       3.613  30.966  54.507  1.00  0.00     0.076 C 
HETATM   27  C   UNL     1       2.475  31.678  55.231  1.00  0.00     0.032 C 
HETATM   28  C   UNL     1       3.321  30.853  53.012  1.00  0.00     0.032 C 
ENDBRANCH  23  26
ENDBRANCH   1  22
BRANCH   5  29
HETATM   29  S   UNL     1       8.155  25.686  57.185  1.00  0.00    -0.085 SA
BRANCH  29  30
HETATM   30  C   UNL     1       8.096  24.337  56.115  1.00  0.00     0.168 A 
HETATM   31  N   UNL     1       8.193  24.387  54.811  1.00  0.00    -0.223 NA
HETATM   32  C   UNL     1       8.114  23.070  54.413  1.00  0.00     0.086 A 
HETATM   33  C   UNL     1       7.974  22.223  55.511  1.00  0.00     0.063 A 
HETATM   34  C   UNL     1       8.158  22.516  53.125  1.00  0.00     0.034 A 
HETATM   35  N   UNL     1       7.965  23.067  56.592  1.00  0.00    -0.333 N 
HETATM   36  C   UNL     1       7.872  20.835  55.403  1.00  0.00     0.032 A 
HETATM   37  H   UNL     1       7.875  22.801  57.561  1.00  0.00     0.168 HD
HETATM   38  C   UNL     1       7.918  20.303  54.109  1.00  0.00     0.002 A 
HETATM   39  C   UNL     1       8.058  21.126  52.989  1.00  0.00     0.002 A 
ENDBRANCH  29  30
ENDBRANCH   5  29
TORSDOF 9
ENDMDL
MODEL 5
REMARK VINA RESULT:      -9.9      4.129      6.806
REMARK  9 active torsions:
REMARK  status: ('A' for Active; 'I' for Inactive)
REMARK    1  A    between atoms: C_2  and  N_3 
REMARK       I    between atoms: N_3  and  C_4 
REMARK    2  A    between atoms: C_4  and  C_5 
REMARK    3  A    between atoms: N_6  and  C_8 
REMARK    4  A    between atoms: C_8  and  C_9 
REMARK    5  A    between atoms: C_12  and  O_13 
REMARK    6  A    between atoms: O_13  and  C_14 
REMARK    7  A    between atoms: C_14  and  C_15 
REMARK    8  A    between atoms: C_24  and  S_25 
REMARK    9  A    between atoms: S_25  and  C_26 
ROOT
HETATM    1  C   UNL     1       7.598  28.561  58.154  1.00  0.00     0.280 C 
HETATM    2  N   UNL     1       6.146  28.617  57.653  1.00  0.00    -0.053 N 
HETATM    3  H   UNL     1       5.536  28.806  58.460  1.00  0.00     0.281 HD
HETATM    4  C   UNL     1       5.921  27.213  57.131  1.00  0.00     0.252 C 
HETATM    5  C   UNL     1       7.272  26.785  56.533  1.00  0.00     0.083 C 
HETATM    6  C   UNL     1       8.301  27.808  57.034  1.00  0.00     0.060 C 
ENDROOT
BRANCH   2   7
HETATM    7  C   UNL     1       5.839  29.712  56.647  1.00  0.00     0.274 C 
BRANCH   7   8
HETATM    8  C   UNL     1       5.187  30.920  57.267  1.00  0.00    -0.032 A 
HETATM    9  C   UNL     1       5.434  32.207  56.761  1.00  0.00     0.011 A 
HETATM   10  C   UNL     1       4.834  33.330  57.344  1.00  0.00     0.037 A 
HETATM   11  C   UNL     1       3.985  33.175  58.437  1.00  0.00     0.069 A 
HETATM   12  C   UNL     1       3.757  31.904  58.962  1.00  0.00     0.037 A 
HETATM   13  C   UNL     1       4.339  30.781  58.374  1.00  0.00     0.011 A 
BRANCH  11  14
HETATM   14  O   UNL     1       3.358  34.191  59.098  1.00  0.00    -0.347 OA
BRANCH  14  15
HETATM   15  C   UNL     1       2.755  33.849  60.347  1.00  0.00     0.214 C 
BRANCH  15  16
HETATM   16  C   UNL     1       3.678  34.331  61.437  1.00  0.00    -0.034 A 
HETATM   17  C   UNL     1       3.598  33.789  62.728  1.00  0.00     0.009 A 
HETATM   18  C   UNL     1       4.426  34.262  63.748  1.00  0.00     0.001 A 
HETATM   19  C   UNL     1       5.338  35.282  63.489  1.00  0.00     0.000 A 
HETATM   20  C   UNL     1       5.423  35.835  62.213  1.00  0.00     0.001 A 
HETATM   21  C   UNL     1       4.595  35.364  61.191  1.00  0.00     0.009 A 
ENDBRANCH  15  16
ENDBRANCH  14  15
ENDBRANCH  11  14
ENDBRANCH   7   8
ENDBRANCH   2   7
BRANCH   1  22
HETATM   22  C   UNL     1       8.179  29.924  58.561  1.00  0.00     0.249 C 
HETATM   23  N   UNL     1       7.719  30.466  59.738  1.00  0.00    -0.355 N 
HETATM   24  H   UNL     1       6.886  30.098  60.181  1.00  0.00     0.162 HD
HETATM   25  O   UNL     1       9.002  30.481  57.835  1.00  0.00    -0.271 OA
BRANCH  23  26
HETATM   26  C   UNL     1       8.155  31.783  60.200  1.00  0.00     0.076 C 
HETATM   27  C   UNL     1       9.268  31.629  61.231  1.00  0.00     0.032 C 
HETATM   28  C   UNL     1       6.977  32.562  60.783  1.00  0.00     0.032 C 
ENDBRANCH  23  26
ENDBRANCH   1  22
BRANCH   5  29
HETATM   29  S   UNL     1       7.289  26.744  54.704  1.00  0.00    -0.085 SA
BRANCH  29  30
HETATM   30  C   UNL     1       7.470  25.050  54.450  1.00  0.00     0.168 A 
HETATM   31  N   UNL     1       7.682  24.465  53.298  1.00  0.00    -0.223 NA
HETATM   32  C   UNL     1       7.777  23.126  53.609  1.00  0.00     0.086 A 
HETATM   33  C   UNL     1       7.623  22.918  54.979  1.00  0.00     0.063 A 
HETATM   34  C   UNL     1       7.997  22.022  52.772  1.00  0.00     0.034 A 
HETATM   35  N   UNL     1       7.427  24.174  55.493  1.00  0.00    -0.333 N 
HETATM   36  C   UNL     1       7.677  21.657  55.576  1.00  0.00     0.032 A 
HETATM   37  H   UNL     1       7.276  24.410  56.462  1.00  0.00     0.168 HD
HETATM   38  C   UNL     1       7.897  20.570  54.723  1.00  0.00     0.002 A 
HETATM   39  C   UNL     1       8.054  20.746  53.346  1.00  0.00     0.002 A 
ENDBRANCH  29  30
ENDBRANCH   5  29
TORSDOF 9
ENDMDL
MODEL 6
REMARK VINA RESULT:      -9.8      3.939      9.843
REMARK  9 active torsions:
REMARK  status: ('A' for Active; 'I' for Inactive)
REMARK    1  A    between atoms: C_2  and  N_3 
REMARK       I    between atoms: N_3  and  C_4 
REMARK    2  A    between atoms: C_4  and  C_5 
REMARK    3  A    between atoms: N_6  and  C_8 
REMARK    4  A    between atoms: C_8  and  C_9 
REMARK    5  A    between atoms: C_12  and  O_13 
REMARK    6  A    between atoms: O_13  and  C_14 
REMARK    7  A    between atoms: C_14  and  C_15 
REMARK    8  A    between atoms: C_24  and  S_25 
REMARK    9  A    between atoms: S_25  and  C_26 
ROOT
HETATM    1  C   UNL     1       3.751  29.509  55.172  1.00  0.00     0.280 C 
HETATM    2  N   UNL     1       4.211  29.141  56.592  1.00  0.00    -0.053 N 
HETATM    3  H   UNL     1       3.856  28.200  56.809  1.00  0.00     0.281 HD
HETATM    4  C   UNL     1       3.516  30.183  57.444  1.00  0.00     0.252 C 
HETATM    5  C   UNL     1       3.509  31.462  56.590  1.00  0.00     0.083 C 
HETATM    6  C   UNL     1       3.884  31.024  55.167  1.00  0.00     0.060 C 
ENDROOT
BRANCH   2   7
HETATM    7  C   UNL     1       5.713  29.066  56.798  1.00  0.00     0.274 C 
BRANCH   7   8
HETATM    8  C   UNL     1       6.231  27.655  56.873  1.00  0.00    -0.032 A 
HETATM    9  C   UNL     1       5.346  26.570  56.983  1.00  0.00     0.011 A 
HETATM   10  C   UNL     1       5.830  25.259  57.062  1.00  0.00     0.037 A 
HETATM   11  C   UNL     1       7.202  25.022  57.032  1.00  0.00     0.069 A 
HETATM   12  C   UNL     1       8.088  26.095  56.951  1.00  0.00     0.037 A 
HETATM   13  C   UNL     1       7.610  27.402  56.856  1.00  0.00     0.011 A 
BRANCH  11  14
HETATM   14  O   UNL     1       7.793  23.795  57.118  1.00  0.00    -0.347 OA
BRANCH  14  15
HETATM   15  C   UNL     1       8.972  23.609  56.334  1.00  0.00     0.214 C 
BRANCH  15  16
HETATM   16  C   UNL     1       8.624  22.655  55.220  1.00  0.00    -0.034 A 
HETATM   17  C   UNL     1       8.165  23.140  53.987  1.00  0.00     0.009 A 
HETATM   18  C   UNL     1       7.805  22.257  52.967  1.00  0.00     0.001 A 
HETATM   19  C   UNL     1       7.897  20.882  53.171  1.00  0.00     0.000 A 
HETATM   20  C   UNL     1       8.345  20.387  54.395  1.00  0.00     0.001 A 
HETATM   21  C   UNL     1       8.704  21.269  55.416  1.00  0.00     0.009 A 
ENDBRANCH  15  16
ENDBRANCH  14  15
ENDBRANCH  11  14
ENDBRANCH   7   8
ENDBRANCH   2   7
BRANCH   1  22
HETATM   22  C   UNL     1       4.469  28.735  54.055  1.00  0.00     0.249 C 
HETATM   23  N   UNL     1       4.411  27.362  54.118  1.00  0.00    -0.355 N 
HETATM   24  H   UNL     1       4.114  26.900  54.969  1.00  0.00     0.162 HD
HETATM   25  O   UNL     1       5.069  29.348  53.173  1.00  0.00    -0.271 OA
BRANCH  23  26
HETATM   26  C   UNL     1       5.104  26.518  53.145  1.00  0.00     0.076 C 
HETATM   27  C   UNL     1       4.576  25.089  53.231  1.00  0.00     0.032 C 
HETATM   28  C   UNL     1       6.612  26.556  53.383  1.00  0.00     0.032 C 
ENDBRANCH  23  26
ENDBRANCH   1  22
BRANCH   5  29
HETATM   29  S   UNL     1       4.685  32.740  57.168  1.00  0.00    -0.085 SA
BRANCH  29  30
HETATM   30  C   UNL     1       3.919  33.199  58.641  1.00  0.00     0.168 A 
HETATM   31  N   UNL     1       2.796  33.865  58.747  1.00  0.00    -0.223 NA
HETATM   32  C   UNL     1       2.588  33.965  60.106  1.00  0.00     0.086 A 
HETATM   33  C   UNL     1       3.610  33.339  60.816  1.00  0.00     0.063 A 
HETATM   34  C   UNL     1       1.542  34.578  60.811  1.00  0.00     0.034 A 
HETATM   35  N   UNL     1       4.451  32.856  59.847  1.00  0.00    -0.333 N 
HETATM   36  C   UNL     1       3.655  33.284  62.210  1.00  0.00     0.032 A 
HETATM   37  H   UNL     1       5.308  32.344  59.995  1.00  0.00     0.168 HD
HETATM   38  C   UNL     1       2.602  33.902  62.896  1.00  0.00     0.002 A 
HETATM   39  C   UNL     1       1.564  34.538  62.211  1.00  0.00     0.002 A 
ENDBRANCH  29  30
ENDBRANCH   5  29
TORSDOF 9
ENDMDL
MODEL 7
REMARK VINA RESULT:      -9.7      2.435     10.730
REMARK  9 active torsions:
REMARK  status: ('A' for Active; 'I' for Inactive)
REMARK    1  A    between atoms: C_2  and  N_3 
REMARK       I    between atoms: N_3  and  C_4 
REMARK    2  A    between atoms: C_4  and  C_5 
REMARK    3  A    between atoms: N_6  and  C_8 
REMARK    4  A    between atoms: C_8  and  C_9 
REMARK    5  A    between atoms: C_12  and  O_13 
REMARK    6  A    between atoms: O_13  and  C_14 
REMARK    7  A    between atoms: C_14  and  C_15 
REMARK    8  A    between atoms: C_24  and  S_25 
REMARK    9  A    between atoms: S_25  and  C_26 
ROOT
HETATM    1  C   UNL     1       7.836  26.283  55.745  1.00  0.00     0.280 C 
HETATM    2  N   UNL     1       7.329  27.124  54.562  1.00  0.00    -0.053 N 
HETATM    3  H   UNL     1       7.799  26.793  53.709  1.00  0.00     0.281 HD
HETATM    4  C   UNL     1       7.798  28.518  54.923  1.00  0.00     0.252 C 
HETATM    5  C   UNL     1       7.683  28.598  56.455  1.00  0.00     0.083 C 
HETATM    6  C   UNL     1       7.485  27.155  56.940  1.00  0.00     0.060 C 
ENDROOT
BRANCH   2   7
HETATM    7  C   UNL     1       5.842  27.021  54.272  1.00  0.00     0.274 C 
BRANCH   7   8
HETATM    8  C   UNL     1       5.530  26.934  52.801  1.00  0.00    -0.032 A 
HETATM    9  C   UNL     1       5.232  25.699  52.203  1.00  0.00     0.011 A 
HETATM   10  C   UNL     1       4.950  25.619  50.834  1.00  0.00     0.037 A 
HETATM   11  C   UNL     1       4.966  26.772  50.053  1.00  0.00     0.069 A 
HETATM   12  C   UNL     1       5.289  27.997  50.634  1.00  0.00     0.037 A 
HETATM   13  C   UNL     1       5.553  28.085  52.000  1.00  0.00     0.011 A 
BRANCH  11  14
HETATM   14  O   UNL     1       4.726  26.818  48.710  1.00  0.00    -0.347 OA
BRANCH  14  15
HETATM   15  C   UNL     1       3.568  26.118  48.255  1.00  0.00     0.214 C 
BRANCH  15  16
HETATM   16  C   UNL     1       2.640  27.137  47.643  1.00  0.00    -0.034 A 
HETATM   17  C   UNL     1       3.099  28.428  47.349  1.00  0.00     0.009 A 
HETATM   18  C   UNL     1       2.232  29.385  46.818  1.00  0.00     0.001 A 
HETATM   19  C   UNL     1       0.898  29.061  46.579  1.00  0.00     0.000 A 
HETATM   20  C   UNL     1       0.428  27.782  46.874  1.00  0.00     0.001 A 
HETATM   21  C   UNL     1       1.293  26.825  47.407  1.00  0.00     0.009 A 
ENDBRANCH  15  16
ENDBRANCH  14  15
ENDBRANCH  11  14
ENDBRANCH   7   8
ENDBRANCH   2   7
BRANCH   1  22
HETATM   22  C   UNL     1       7.326  24.834  55.755  1.00  0.00     0.249 C 
HETATM   23  N   UNL     1       7.943  23.955  54.896  1.00  0.00    -0.355 N 
HETATM   24  H   UNL     1       8.533  24.298  54.146  1.00  0.00     0.162 HD
HETATM   25  O   UNL     1       6.397  24.516  56.497  1.00  0.00    -0.271 OA
BRANCH  23  26
HETATM   26  C   UNL     1       7.506  22.564  54.773  1.00  0.00     0.076 C 
HETATM   27  C   UNL     1       8.311  21.683  55.724  1.00  0.00     0.032 C 
HETATM   28  C   UNL     1       7.651  22.083  53.331  1.00  0.00     0.032 C 
ENDBRANCH  23  26
ENDBRANCH   1  22
BRANCH   5  29
HETATM   29  S   UNL     1       6.294  29.636  57.037  1.00  0.00    -0.085 SA
BRANCH  29  30
HETATM   30  C   UNL     1       6.999  30.296  58.464  1.00  0.00     0.168 A 
HETATM   31  N   UNL     1       8.169  29.979  58.959  1.00  0.00    -0.223 NA
HETATM   32  C   UNL     1       8.294  30.779  60.074  1.00  0.00     0.086 A 
HETATM   33  C   UNL     1       7.172  31.591  60.236  1.00  0.00     0.063 A 
HETATM   34  C   UNL     1       9.342  30.871  61.001  1.00  0.00     0.034 A 
HETATM   35  N   UNL     1       6.357  31.258  59.185  1.00  0.00    -0.333 N 
HETATM   36  C   UNL     1       7.029  32.505  61.282  1.00  0.00     0.032 A 
HETATM   37  H   UNL     1       5.449  31.647  58.982  1.00  0.00     0.168 HD
HETATM   38  C   UNL     1       8.087  32.580  62.196  1.00  0.00     0.002 A 
HETATM   39  C   UNL     1       9.223  31.779  62.060  1.00  0.00     0.002 A 
ENDBRANCH  29  30
ENDBRANCH   5  29
TORSDOF 9
ENDMDL
MODEL 8
REMARK VINA RESULT:      -9.5      2.285      6.151
REMARK  9 active torsions:
REMARK  status: ('A' for Active; 'I' for Inactive)
REMARK    1  A    between atoms: C_2  and  N_3 
REMARK       I    between atoms: N_3  and  C_4 
REMARK    2  A    between atoms: C_4  and  C_5 
REMARK    3  A    between atoms: N_6  and  C_8 
REMARK    4  A    between atoms: C_8  and  C_9 
REMARK    5  A    between atoms: C_12  and  O_13 
REMARK    6  A    between atoms: O_13  and  C_14 
REMARK    7  A    between atoms: C_14  and  C_15 
REMARK    8  A    between atoms: C_24  and  S_25 
REMARK    9  A    between atoms: S_25  and  C_26 
ROOT
HETATM    1  C   UNL     1       5.877  28.317  52.230  1.00  0.00     0.280 C 
HETATM    2  N   UNL     1       6.285  28.931  53.579  1.00  0.00    -0.053 N 
HETATM    3  H   UNL     1       6.758  29.826  53.394  1.00  0.00     0.281 HD
HETATM    4  C   UNL     1       7.267  27.913  54.121  1.00  0.00     0.252 C 
HETATM    5  C   UNL     1       6.731  26.548  53.654  1.00  0.00     0.083 C 
HETATM    6  C   UNL     1       5.672  26.853  52.585  1.00  0.00     0.060 C 
ENDROOT
BRANCH   2   7
HETATM    7  C   UNL     1       5.144  29.262  54.523  1.00  0.00     0.274 C 
BRANCH   7   8
HETATM    8  C   UNL     1       5.586  30.031  55.740  1.00  0.00    -0.032 A 
HETATM    9  C   UNL     1       6.499  29.473  56.650  1.00  0.00     0.011 A 
HETATM   10  C   UNL     1       6.902  30.186  57.785  1.00  0.00     0.037 A 
HETATM   11  C   UNL     1       6.395  31.462  58.020  1.00  0.00     0.069 A 
HETATM   12  C   UNL     1       5.467  32.011  57.137  1.00  0.00     0.037 A 
HETATM   13  C   UNL     1       5.075  31.312  55.996  1.00  0.00     0.011 A 
BRANCH  11  14
HETATM   14  O   UNL     1       6.698  32.244  59.096  1.00  0.00    -0.347 OA
BRANCH  14  15
HETATM   15  C   UNL     1       7.593  31.677  60.053  1.00  0.00     0.214 C 
BRANCH  15  16
HETATM   16  C   UNL     1       7.365  32.393  61.360  1.00  0.00    -0.034 A 
HETATM   17  C   UNL     1       8.175  32.117  62.471  1.00  0.00     0.009 A 
HETATM   18  C   UNL     1       7.941  32.751  63.693  1.00  0.00     0.001 A 
HETATM   19  C   UNL     1       6.894  33.662  63.817  1.00  0.00     0.000 A 
HETATM   20  C   UNL     1       6.077  33.939  62.722  1.00  0.00     0.001 A 
HETATM   21  C   UNL     1       6.309  33.305  61.500  1.00  0.00     0.009 A 
ENDBRANCH  15  16
ENDBRANCH  14  15
ENDBRANCH  11  14
ENDBRANCH   7   8
ENDBRANCH   2   7
BRANCH   1  22
HETATM   22  C   UNL     1       4.717  29.043  51.531  1.00  0.00     0.249 C 
HETATM   23  N   UNL     1       3.841  28.261  50.814  1.00  0.00    -0.355 N 
HETATM   24  H   UNL     1       4.083  27.307  50.574  1.00  0.00     0.162 HD
HETATM   25  O   UNL     1       4.618  30.266  51.618  1.00  0.00    -0.271 OA
BRANCH  23  26
HETATM   26  C   UNL     1       2.732  28.844  50.058  1.00  0.00     0.076 C 
HETATM   27  C   UNL     1       1.517  29.006  50.965  1.00  0.00     0.032 C 
HETATM   28  C   UNL     1       2.396  27.976  48.847  1.00  0.00     0.032 C 
ENDBRANCH  23  26
ENDBRANCH   1  22
BRANCH   5  29
HETATM   29  S   UNL     1       5.983  25.552  54.993  1.00  0.00    -0.085 SA
BRANCH  29  30
HETATM   30  C   UNL     1       6.736  24.033  54.685  1.00  0.00     0.168 A 
HETATM   31  N   UNL     1       7.003  23.535  53.504  1.00  0.00    -0.223 NA
HETATM   32  C   UNL     1       7.617  22.331  53.774  1.00  0.00     0.086 A 
HETATM   33  C   UNL     1       7.719  22.118  55.148  1.00  0.00     0.063 A 
HETATM   34  C   UNL     1       8.120  21.362  52.895  1.00  0.00     0.034 A 
HETATM   35  N   UNL     1       7.143  23.230  55.707  1.00  0.00    -0.333 N 
HETATM   36  C   UNL     1       8.301  20.980  55.708  1.00  0.00     0.032 A 
HETATM   37  H   UNL     1       7.036  23.420  56.692  1.00  0.00     0.168 HD
HETATM   38  C   UNL     1       8.796  20.024  54.813  1.00  0.00     0.002 A 
HETATM   39  C   UNL     1       8.708  20.209  53.431  1.00  0.00     0.002 A 
ENDBRANCH  29  30
ENDBRANCH   5  29
TORSDOF 9
ENDMDL
MODEL 9
REMARK VINA RESULT:      -9.2      4.109     10.793
REMARK  9 active torsions:
REMARK  status: ('A' for Active; 'I' for Inactive)
REMARK    1  A    between atoms: C_2  and  N_3 
REMARK       I    between atoms: N_3  and  C_4 
REMARK    2  A    between atoms: C_4  and  C_5 
REMARK    3  A    between atoms: N_6  and  C_8 
REMARK    4  A    between atoms: C_8  and  C_9 
REMARK    5  A    between atoms: C_12  and  O_13 
REMARK    6  A    between atoms: O_13  and  C_14 
REMARK    7  A    between atoms: C_14  and  C_15 
REMARK    8  A    between atoms: C_24  and  S_25 
REMARK    9  A    between atoms: S_25  and  C_26 
ROOT
HETATM    1  C   UNL     1       3.881  31.360  55.645  1.00  0.00     0.280 C 
HETATM    2  N   UNL     1       4.136  29.859  55.854  1.00  0.00    -0.053 N 
HETATM    3  H   UNL     1       3.265  29.353  55.645  1.00  0.00     0.281 HD
HETATM    4  C   UNL     1       4.456  29.780  57.332  1.00  0.00     0.252 C 
HETATM    5  C   UNL     1       5.220  31.078  57.648  1.00  0.00     0.083 C 
HETATM    6  C   UNL     1       5.012  31.998  56.437  1.00  0.00     0.060 C 
ENDROOT
BRANCH   2   7
HETATM    7  C   UNL     1       5.191  29.240  54.954  1.00  0.00     0.274 C 
BRANCH   7   8
HETATM    8  C   UNL     1       5.717  27.928  55.473  1.00  0.00    -0.032 A 
HETATM    9  C   UNL     1       4.836  26.920  55.900  1.00  0.00     0.011 A 
HETATM   10  C   UNL     1       5.328  25.704  56.390  1.00  0.00     0.037 A 
HETATM   11  C   UNL     1       6.702  25.488  56.460  1.00  0.00     0.069 A 
HETATM   12  C   UNL     1       7.582  26.494  56.065  1.00  0.00     0.037 A 
HETATM   13  C   UNL     1       7.098  27.700  55.560  1.00  0.00     0.011 A 
BRANCH  11  14
HETATM   14  O   UNL     1       7.298  24.356  56.934  1.00  0.00    -0.347 OA
BRANCH  14  15
HETATM   15  C   UNL     1       8.568  24.030  56.365  1.00  0.00     0.214 C 
BRANCH  15  16
HETATM   16  C   UNL     1       8.341  22.924  55.367  1.00  0.00    -0.034 A 
HETATM   17  C   UNL     1       8.219  23.214  54.001  1.00  0.00     0.009 A 
HETATM   18  C   UNL     1       7.971  22.195  53.079  1.00  0.00     0.001 A 
HETATM   19  C   UNL     1       7.838  20.878  53.514  1.00  0.00     0.000 A 
HETATM   20  C   UNL     1       7.950  20.578  54.870  1.00  0.00     0.001 A 
HETATM   21  C   UNL     1       8.197  21.595  55.794  1.00  0.00     0.009 A 
ENDBRANCH  15  16
ENDBRANCH  14  15
ENDBRANCH  11  14
ENDBRANCH   7   8
ENDBRANCH   2   7
BRANCH   1  22
HETATM   22  C   UNL     1       3.727  31.777  54.174  1.00  0.00     0.249 C 
HETATM   23  N   UNL     1       4.734  32.547  53.641  1.00  0.00    -0.355 N 
HETATM   24  H   UNL     1       5.410  33.000  54.247  1.00  0.00     0.162 HD
HETATM   25  O   UNL     1       2.731  31.432  53.540  1.00  0.00    -0.271 OA
BRANCH  23  26
HETATM   26  C   UNL     1       4.672  33.053  52.271  1.00  0.00     0.076 C 
HETATM   27  C   UNL     1       5.132  31.972  51.298  1.00  0.00     0.032 C 
HETATM   28  C   UNL     1       5.524  34.313  52.126  1.00  0.00     0.032 C 
ENDBRANCH  23  26
ENDBRANCH   1  22
BRANCH   5  29
HETATM   29  S   UNL     1       7.011  30.829  57.928  1.00  0.00    -0.085 SA
BRANCH  29  30
HETATM   30  C   UNL     1       7.133  31.385  59.555  1.00  0.00     0.168 A 
HETATM   31  N   UNL     1       8.206  31.336  60.304  1.00  0.00    -0.223 NA
HETATM   32  C   UNL     1       7.816  31.912  61.494  1.00  0.00     0.086 A 
HETATM   33  C   UNL     1       6.482  32.314  61.441  1.00  0.00     0.063 A 
HETATM   34  C   UNL     1       8.549  32.129  62.669  1.00  0.00     0.034 A 
HETATM   35  N   UNL     1       6.070  31.962  60.182  1.00  0.00    -0.333 N 
HETATM   36  C   UNL     1       5.824  32.931  62.507  1.00  0.00     0.032 A 
HETATM   37  H   UNL     1       5.151  32.100  59.790  1.00  0.00     0.168 HD
HETATM   38  C   UNL     1       6.573  33.138  63.671  1.00  0.00     0.002 A 
HETATM   39  C   UNL     1       7.911  32.745  63.753  1.00  0.00     0.002 A 
ENDBRANCH  29  30
ENDBRANCH   5  29
TORSDOF 9
ENDMDL
MODEL 10
REMARK VINA RESULT:      -9.2      3.734     11.077
REMARK  9 active torsions:
REMARK  status: ('A' for Active; 'I' for Inactive)
REMARK    1  A    between atoms: C_2  and  N_3 
REMARK       I    between atoms: N_3  and  C_4 
REMARK    2  A    between atoms: C_4  and  C_5 
REMARK    3  A    between atoms: N_6  and  C_8 
REMARK    4  A    between atoms: C_8  and  C_9 
REMARK    5  A    between atoms: C_12  and  O_13 
REMARK    6  A    between atoms: O_13  and  C_14 
REMARK    7  A    between atoms: C_14  and  C_15 
REMARK    8  A    between atoms: C_24  and  S_25 
REMARK    9  A    between atoms: S_25  and  C_26 
ROOT
HETATM    1  C   UNL     1       3.707  31.559  55.760  1.00  0.00     0.280 C 
HETATM    2  N   UNL     1       4.054  30.071  55.589  1.00  0.00    -0.053 N 
HETATM    3  H   UNL     1       3.223  29.588  55.223  1.00  0.00     0.281 HD
HETATM    4  C   UNL     1       4.340  29.633  57.011  1.00  0.00     0.252 C 
HETATM    5  C   UNL     1       5.011  30.846  57.679  1.00  0.00     0.083 C 
HETATM    6  C   UNL     1       4.774  32.033  56.734  1.00  0.00     0.060 C 
ENDROOT
BRANCH   2   7
HETATM    7  C   UNL     1       5.169  29.764  54.606  1.00  0.00     0.274 C 
BRANCH   7   8
HETATM    8  C   UNL     1       5.473  28.293  54.495  1.00  0.00    -0.032 A 
HETATM    9  C   UNL     1       4.654  27.447  53.728  1.00  0.00     0.011 A 
HETATM   10  C   UNL     1       4.934  26.078  53.634  1.00  0.00     0.037 A 
HETATM   11  C   UNL     1       6.031  25.545  54.305  1.00  0.00     0.069 A 
HETATM   12  C   UNL     1       6.831  26.373  55.091  1.00  0.00     0.037 A 
HETATM   13  C   UNL     1       6.567  27.740  55.175  1.00  0.00     0.011 A 
BRANCH  11  14
HETATM   14  O   UNL     1       6.394  24.229  54.304  1.00  0.00    -0.347 OA
BRANCH  14  15
HETATM   15  C   UNL     1       7.619  23.915  54.967  1.00  0.00     0.214 C 
BRANCH  15  16
HETATM   16  C   UNL     1       7.972  22.494  54.606  1.00  0.00    -0.034 A 
HETATM   17  C   UNL     1       8.361  21.585  55.600  1.00  0.00     0.009 A 
HETATM   18  C   UNL     1       8.726  20.280  55.264  1.00  0.00     0.001 A 
HETATM   19  C   UNL     1       8.708  19.873  53.932  1.00  0.00     0.000 A 
HETATM   20  C   UNL     1       8.330  20.769  52.934  1.00  0.00     0.001 A 
HETATM   21  C   UNL     1       7.967  22.075  53.268  1.00  0.00     0.009 A 
ENDBRANCH  15  16
ENDBRANCH  14  15
ENDBRANCH  11  14
ENDBRANCH   7   8
ENDBRANCH   2   7
BRANCH   1  22
HETATM   22  C   UNL     1       3.565  32.330  54.439  1.00  0.00     0.249 C 
HETATM   23  N   UNL     1       2.597  31.890  53.567  1.00  0.00    -0.355 N 
HETATM   24  H   UNL     1       2.169  30.979  53.691  1.00  0.00     0.162 HD
HETATM   25  O   UNL     1       4.310  33.279  54.200  1.00  0.00    -0.271 OA
BRANCH  23  26
HETATM   26  C   UNL     1       2.406  32.506  52.254  1.00  0.00     0.076 C 
HETATM   27  C   UNL     1       1.151  33.373  52.267  1.00  0.00     0.032 C 
HETATM   28  C   UNL     1       2.317  31.436  51.169  1.00  0.00     0.032 C 
ENDBRANCH  23  26
ENDBRANCH   1  22
BRANCH   5  29
HETATM   29  S   UNL     1       6.806  30.634  57.960  1.00  0.00    -0.085 SA
BRANCH  29  30
HETATM   30  C   UNL     1       6.954  31.396  59.498  1.00  0.00     0.168 A 
HETATM   31  N   UNL     1       6.353  32.499  59.869  1.00  0.00    -0.223 NA
HETATM   32  C   UNL     1       6.764  32.688  61.171  1.00  0.00     0.086 A 
HETATM   33  C   UNL     1       7.623  31.668  61.578  1.00  0.00     0.063 A 
HETATM   34  C   UNL     1       6.441  33.710  62.075  1.00  0.00     0.034 A 
HETATM   35  N   UNL     1       7.727  30.854  60.480  1.00  0.00    -0.333 N 
HETATM   36  C   UNL     1       8.191  31.604  62.851  1.00  0.00     0.032 A 
HETATM   37  H   UNL     1       8.275  30.009  60.408  1.00  0.00     0.168 HD
HETATM   38  C   UNL     1       7.857  32.634  63.738  1.00  0.00     0.002 A 
HETATM   39  C   UNL     1       6.998  33.670  63.359  1.00  0.00     0.002 A 
ENDBRANCH  29  30
ENDBRANCH   5  29
TORSDOF 9
ENDMDL
