MODEL 1
REMARK VINA RESULT:     -10.2      0.000      0.000
REMARK  5 active torsions:
REMARK  status: ('A' for Active; 'I' for Inactive)
REMARK    1  A    between atoms: C_7  and  C_8 
REMARK    2  A    between atoms: C_11  and  N_12 
REMARK       I    between atoms: N_12  and  C_13 
REMARK    3  A    between atoms: C_13  and  C_14 
REMARK    4  A    between atoms: C_16  and  O_17 
REMARK    5  A    between atoms: C_20  and  O_21 
ROOT
HETATM    1  C   UNL     1       7.476  27.072  56.509  1.00  0.00     0.017 A 
HETATM    2  C   UNL     1       8.631  27.684  57.009  1.00  0.00     0.018 A 
HETATM    3  C   UNL     1       8.553  28.844  57.792  1.00  0.00     0.030 A 
HETATM    4  C   UNL     1       7.316  29.411  58.097  1.00  0.00     0.035 A 
HETATM    5  C   UNL     1       6.161  28.832  57.560  1.00  0.00     0.030 A 
HETATM    6  C   UNL     1       6.240  27.676  56.776  1.00  0.00     0.018 A 
ENDROOT
BRANCH   4   7
HETATM    7  N   UNL     1       7.142  30.515  58.958  1.00  0.00    -0.323 N 
HETATM    8  C   UNL     1       7.881  30.816  60.087  1.00  0.00     0.256 C 
HETATM    9  O   UNL     1       8.881  30.240  60.495  1.00  0.00    -0.267 OA
HETATM   10  H   UNL     1       6.303  31.058  58.799  1.00  0.00     0.169 HD
BRANCH   8  11
HETATM   11  C   UNL     1       7.326  31.927  60.905  1.00  0.00     0.037 A 
HETATM   12  C   UNL     1       7.844  32.115  62.190  1.00  0.00     0.054 A 
HETATM   13  C   UNL     1       7.319  33.099  63.025  1.00  0.00     0.071 A 
HETATM   14  C   UNL     1       6.286  33.910  62.552  1.00  0.00     0.073 A 
HETATM   15  C   UNL     1       5.778  33.746  61.256  1.00  0.00     0.071 A 
HETATM   16  C   UNL     1       6.300  32.752  60.427  1.00  0.00     0.054 A 
BRANCH  13  17
HETATM   17  O   UNL     1       7.891  33.162  64.264  1.00  0.00    -0.356 OA
HETATM   18  C   UNL     1       7.090  33.683  65.318  1.00  0.00     0.210 C 
ENDBRANCH  13  17
BRANCH  15  19
HETATM   19  O   UNL     1       4.773  34.616  60.929  1.00  0.00    -0.356 OA
HETATM   20  C   UNL     1       4.646  35.793  61.717  1.00  0.00     0.210 C 
ENDBRANCH  15  19
ENDBRANCH   8  11
ENDBRANCH   4   7
BRANCH   1  21
HETATM   21  C   UNL     1       7.518  25.811  55.773  1.00  0.00     0.180 A 
HETATM   22  O   UNL     1       7.486  25.896  54.402  1.00  0.00    -0.289 OA
HETATM   23  C   UNL     1       7.643  24.607  53.988  1.00  0.00     0.106 A 
HETATM   24  C   UNL     1       7.745  23.810  55.114  1.00  0.00     0.094 A 
HETATM   25  C   UNL     1       7.710  24.145  52.681  1.00  0.00     0.040 A 
HETATM   26  C   UNL     1       7.933  22.430  54.954  1.00  0.00     0.041 A 
HETATM   27  N   UNL     1       7.653  24.582  56.244  1.00  0.00    -0.221 NA
HETATM   28  C   UNL     1       8.016  21.909  53.648  1.00  0.00    -0.060 A 
HETATM   29  C   UNL     1       8.244  20.440  53.431  1.00  0.00     0.048 C 
HETATM   30  C   UNL     1       7.905  22.765  52.535  1.00  0.00     0.009 A 
ENDBRANCH   1  21
TORSDOF 5
ENDMDL
MODEL 2
REMARK VINA RESULT:     -10.0      0.716      2.206
REMARK  5 active torsions:
REMARK  status: ('A' for Active; 'I' for Inactive)
REMARK    1  A    between atoms: C_7  and  C_8 
REMARK    2  A    between atoms: C_11  and  N_12 
REMARK       I    between atoms: N_12  and  C_13 
REMARK    3  A    between atoms: C_13  and  C_14 
REMARK    4  A    between atoms: C_16  and  O_17 
REMARK    5  A    between atoms: C_20  and  O_21 
ROOT
HETATM    1  C   UNL     1       7.419  27.628  56.557  1.00  0.00     0.017 A 
HETATM    2  C   UNL     1       8.584  28.167  57.115  1.00  0.00     0.018 A 
HETATM    3  C   UNL     1       8.526  29.256  57.996  1.00  0.00     0.030 A 
HETATM    4  C   UNL     1       7.299  29.824  58.341  1.00  0.00     0.035 A 
HETATM    5  C   UNL     1       6.136  29.321  57.748  1.00  0.00     0.030 A 
HETATM    6  C   UNL     1       6.195  28.237  56.866  1.00  0.00     0.018 A 
ENDROOT
BRANCH   4   7
HETATM    7  N   UNL     1       7.144  30.852  59.294  1.00  0.00    -0.323 N 
HETATM    8  C   UNL     1       7.879  31.035  60.451  1.00  0.00     0.256 C 
HETATM    9  O   UNL     1       8.861  30.401  60.814  1.00  0.00    -0.267 OA
HETATM   10  H   UNL     1       6.320  31.427  59.177  1.00  0.00     0.169 HD
BRANCH   8  11
HETATM   11  C   UNL     1       7.343  32.084  61.358  1.00  0.00     0.037 A 
HETATM   12  C   UNL     1       6.315  32.902  60.877  1.00  0.00     0.054 A 
HETATM   13  C   UNL     1       5.817  33.942  61.659  1.00  0.00     0.071 A 
HETATM   14  C   UNL     1       6.340  34.140  62.938  1.00  0.00     0.073 A 
HETATM   15  C   UNL     1       7.352  33.309  63.438  1.00  0.00     0.071 A 
HETATM   16  C   UNL     1       7.855  32.275  62.647  1.00  0.00     0.054 A 
BRANCH  13  17
HETATM   17  O   UNL     1       4.837  34.685  61.064  1.00  0.00    -0.356 OA
HETATM   18  C   UNL     1       4.074  34.049  60.047  1.00  0.00     0.210 C 
ENDBRANCH  13  17
BRANCH  15  19
HETATM   19  O   UNL     1       7.762  33.620  64.707  1.00  0.00    -0.356 OA
HETATM   20  C   UNL     1       6.754  33.781  65.697  1.00  0.00     0.210 C 
ENDBRANCH  15  19
ENDBRANCH   8  11
ENDBRANCH   4   7
BRANCH   1  21
HETATM   21  C   UNL     1       7.438  26.436  55.713  1.00  0.00     0.180 A 
HETATM   22  O   UNL     1       7.541  26.640  54.359  1.00  0.00    -0.289 OA
HETATM   23  C   UNL     1       7.641  25.382  53.843  1.00  0.00     0.106 A 
HETATM   24  C   UNL     1       7.580  24.486  54.895  1.00  0.00     0.094 A 
HETATM   25  C   UNL     1       7.797  25.030  52.509  1.00  0.00     0.040 A 
HETATM   26  C   UNL     1       7.682  23.114  54.625  1.00  0.00     0.041 A 
HETATM   27  N   UNL     1       7.439  25.164  56.078  1.00  0.00    -0.221 NA
HETATM   28  C   UNL     1       7.849  22.701  53.289  1.00  0.00    -0.060 A 
HETATM   29  C   UNL     1       7.988  21.243  52.958  1.00  0.00     0.048 C 
HETATM   30  C   UNL     1       7.904  23.656  52.254  1.00  0.00     0.009 A 
ENDBRANCH   1  21
TORSDOF 5
ENDMDL
MODEL 3
REMARK VINA RESULT:      -9.8      1.295      1.759
REMARK  5 active torsions:
REMARK  status: ('A' for Active; 'I' for Inactive)
REMARK    1  A    between atoms: C_7  and  C_8 
REMARK    2  A    between atoms: C_11  and  N_12 
REMARK       I    between atoms: N_12  and  C_13 
REMARK    3  A    between atoms: C_13  and  C_14 
REMARK    4  A    between atoms: C_16  and  O_17 
REMARK    5  A    between atoms: C_20  and  O_21 
ROOT
HETATM    1  C   UNL     1       7.372  26.751  56.436  1.00  0.00     0.017 A 
HETATM    2  C   UNL     1       8.350  27.462  57.142  1.00  0.00     0.018 A 
HETATM    3  C   UNL     1       8.041  28.668  57.786  1.00  0.00     0.030 A 
HETATM    4  C   UNL     1       6.746  29.183  57.743  1.00  0.00     0.035 A 
HETATM    5  C   UNL     1       5.776  28.503  56.999  1.00  0.00     0.030 A 
HETATM    6  C   UNL     1       6.085  27.301  56.353  1.00  0.00     0.018 A 
ENDROOT
BRANCH   4   7
HETATM    7  N   UNL     1       6.327  30.333  58.446  1.00  0.00    -0.323 N 
HETATM    8  C   UNL     1       7.110  31.407  58.828  1.00  0.00     0.256 C 
HETATM    9  O   UNL     1       8.283  31.609  58.544  1.00  0.00    -0.267 OA
HETATM   10  H   UNL     1       5.389  30.291  58.821  1.00  0.00     0.169 HD
BRANCH   8  11
HETATM   11  C   UNL     1       6.430  32.367  59.738  1.00  0.00     0.037 A 
HETATM   12  C   UNL     1       7.004  32.595  60.993  1.00  0.00     0.054 A 
HETATM   13  C   UNL     1       6.377  33.435  61.912  1.00  0.00     0.071 A 
HETATM   14  C   UNL     1       5.184  34.064  61.553  1.00  0.00     0.073 A 
HETATM   15  C   UNL     1       4.616  33.862  60.288  1.00  0.00     0.071 A 
HETATM   16  C   UNL     1       5.241  33.012  59.375  1.00  0.00     0.054 A 
BRANCH  13  17
HETATM   17  O   UNL     1       7.022  33.552  63.111  1.00  0.00    -0.356 OA
HETATM   18  C   UNL     1       7.995  32.562  63.418  1.00  0.00     0.210 C 
ENDBRANCH  13  17
BRANCH  15  19
HETATM   19  O   UNL     1       3.451  34.548  60.076  1.00  0.00    -0.356 OA
HETATM   20  C   UNL     1       2.449  34.461  61.082  1.00  0.00     0.210 C 
ENDBRANCH  15  19
ENDBRANCH   8  11
ENDBRANCH   4   7
BRANCH   1  21
HETATM   21  C   UNL     1       7.639  25.446  55.836  1.00  0.00     0.180 A 
HETATM   22  O   UNL     1       7.753  24.383  56.697  1.00  0.00    -0.289 OA
HETATM   23  C   UNL     1       7.891  23.305  55.874  1.00  0.00     0.106 A 
HETATM   24  C   UNL     1       7.869  23.763  54.569  1.00  0.00     0.094 A 
HETATM   25  C   UNL     1       8.014  21.973  56.244  1.00  0.00     0.040 A 
HETATM   26  C   UNL     1       7.975  22.836  53.522  1.00  0.00     0.041 A 
HETATM   27  N   UNL     1       7.719  25.126  54.554  1.00  0.00    -0.221 NA
HETATM   28  C   UNL     1       8.094  21.470  53.842  1.00  0.00    -0.060 A 
HETATM   29  C   UNL     1       8.184  20.441  52.752  1.00  0.00     0.048 C 
HETATM   30  C   UNL     1       8.113  21.057  55.189  1.00  0.00     0.009 A 
ENDBRANCH   1  21
TORSDOF 5
ENDMDL
MODEL 4
REMARK VINA RESULT:      -9.6      1.093      2.598
REMARK  5 active torsions:
REMARK  status: ('A' for Active; 'I' for Inactive)
REMARK    1  A    between atoms: C_7  and  C_8 
REMARK    2  A    between atoms: C_11  and  N_12 
REMARK       I    between atoms: N_12  and  C_13 
REMARK    3  A    between atoms: C_13  and  C_14 
REMARK    4  A    between atoms: C_16  and  O_17 
REMARK    5  A    between atoms: C_20  and  O_21 
ROOT
HETATM    1  C   UNL     1       7.526  26.955  56.550  1.00  0.00     0.017 A 
HETATM    2  C   UNL     1       8.581  27.745  57.023  1.00  0.00     0.018 A 
HETATM    3  C   UNL     1       8.336  28.951  57.693  1.00  0.00     0.030 A 
HETATM    4  C   UNL     1       7.029  29.389  57.909  1.00  0.00     0.035 A 
HETATM    5  C   UNL     1       5.972  28.629  57.397  1.00  0.00     0.030 A 
HETATM    6  C   UNL     1       6.218  27.426  56.725  1.00  0.00     0.018 A 
ENDROOT
BRANCH   4   7
HETATM    7  N   UNL     1       6.692  30.535  58.659  1.00  0.00    -0.323 N 
HETATM    8  C   UNL     1       7.431  31.113  59.675  1.00  0.00     0.256 C 
HETATM    9  O   UNL     1       8.555  30.800  60.047  1.00  0.00    -0.267 OA
HETATM   10  H   UNL     1       5.751  30.879  58.522  1.00  0.00     0.169 HD
BRANCH   8  11
HETATM   11  C   UNL     1       6.718  32.187  60.417  1.00  0.00     0.037 A 
HETATM   12  C   UNL     1       5.611  32.781  59.803  1.00  0.00     0.054 A 
HETATM   13  C   UNL     1       4.942  33.835  60.423  1.00  0.00     0.071 A 
HETATM   14  C   UNL     1       5.377  34.271  61.675  1.00  0.00     0.073 A 
HETATM   15  C   UNL     1       6.469  33.664  62.310  1.00  0.00     0.071 A 
HETATM   16  C   UNL     1       7.142  32.616  61.681  1.00  0.00     0.054 A 
BRANCH  13  17
HETATM   17  O   UNL     1       3.897  34.348  59.708  1.00  0.00    -0.356 OA
HETATM   18  C   UNL     1       3.738  35.761  59.724  1.00  0.00     0.210 C 
ENDBRANCH  13  17
BRANCH  15  19
HETATM   19  O   UNL     1       6.777  34.193  63.534  1.00  0.00    -0.356 OA
HETATM   20  C   UNL     1       7.449  33.350  64.461  1.00  0.00     0.210 C 
ENDBRANCH  15  19
ENDBRANCH   8  11
ENDBRANCH   4   7
BRANCH   1  21
HETATM   21  C   UNL     1       7.745  25.648  55.935  1.00  0.00     0.180 A 
HETATM   22  O   UNL     1       8.061  24.613  56.781  1.00  0.00    -0.289 OA
HETATM   23  C   UNL     1       8.103  23.522  55.965  1.00  0.00     0.106 A 
HETATM   24  C   UNL     1       7.830  23.945  54.677  1.00  0.00     0.094 A 
HETATM   25  C   UNL     1       8.354  22.207  56.331  1.00  0.00     0.040 A 
HETATM   26  C   UNL     1       7.795  22.998  53.644  1.00  0.00     0.041 A 
HETATM   27  N   UNL     1       7.615  25.300  54.666  1.00  0.00    -0.221 NA
HETATM   28  C   UNL     1       8.035  21.647  53.962  1.00  0.00    -0.060 A 
HETATM   29  C   UNL     1       7.981  20.595  52.890  1.00  0.00     0.048 C 
HETATM   30  C   UNL     1       8.309  21.269  55.291  1.00  0.00     0.009 A 
ENDBRANCH   1  21
TORSDOF 5
ENDMDL
MODEL 5
REMARK VINA RESULT:      -9.5      1.954     11.151
REMARK  5 active torsions:
REMARK  status: ('A' for Active; 'I' for Inactive)
REMARK    1  A    between atoms: C_7  and  C_8 
REMARK    2  A    between atoms: C_11  and  N_12 
REMARK       I    between atoms: N_12  and  C_13 
REMARK    3  A    between atoms: C_13  and  C_14 
REMARK    4  A    between atoms: C_16  and  O_17 
REMARK    5  A    between atoms: C_20  and  O_21 
ROOT
HETATM    1  C   UNL     1       7.304  30.754  58.952  1.00  0.00     0.017 A 
HETATM    2  C   UNL     1       6.403  30.987  57.906  1.00  0.00     0.018 A 
HETATM    3  C   UNL     1       6.384  30.163  56.773  1.00  0.00     0.030 A 
HETATM    4  C   UNL     1       7.262  29.085  56.665  1.00  0.00     0.035 A 
HETATM    5  C   UNL     1       8.196  28.876  57.685  1.00  0.00     0.030 A 
HETATM    6  C   UNL     1       8.218  29.701  58.814  1.00  0.00     0.018 A 
ENDROOT
BRANCH   4   7
HETATM    7  N   UNL     1       7.241  28.149  55.610  1.00  0.00    -0.323 N 
HETATM    8  C   UNL     1       6.553  26.950  55.572  1.00  0.00     0.256 C 
HETATM    9  O   UNL     1       5.759  26.523  56.400  1.00  0.00    -0.267 OA
HETATM   10  H   UNL     1       7.907  28.320  54.869  1.00  0.00     0.169 HD
BRANCH   8  11
HETATM   11  C   UNL     1       6.895  26.084  54.412  1.00  0.00     0.037 A 
HETATM   12  C   UNL     1       6.401  26.448  53.156  1.00  0.00     0.054 A 
HETATM   13  C   UNL     1       6.637  25.641  52.045  1.00  0.00     0.071 A 
HETATM   14  C   UNL     1       7.391  24.477  52.199  1.00  0.00     0.073 A 
HETATM   15  C   UNL     1       7.912  24.117  53.450  1.00  0.00     0.071 A 
HETATM   16  C   UNL     1       7.665  24.924  54.562  1.00  0.00     0.054 A 
BRANCH  13  17
HETATM   17  O   UNL     1       6.077  26.091  50.883  1.00  0.00    -0.356 OA
HETATM   18  C   UNL     1       5.357  27.316  50.946  1.00  0.00     0.210 C 
ENDBRANCH  13  17
BRANCH  15  19
HETATM   19  O   UNL     1       8.636  22.956  53.447  1.00  0.00    -0.356 OA
HETATM   20  C   UNL     1       7.945  21.756  53.122  1.00  0.00     0.210 C 
ENDBRANCH  15  19
ENDBRANCH   8  11
ENDBRANCH   4   7
BRANCH   1  21
HETATM   21  C   UNL     1       7.284  31.535  60.186  1.00  0.00     0.180 A 
HETATM   22  O   UNL     1       6.462  32.635  60.207  1.00  0.00    -0.289 OA
HETATM   23  C   UNL     1       6.561  33.097  61.486  1.00  0.00     0.106 A 
HETATM   24  C   UNL     1       7.440  32.274  62.166  1.00  0.00     0.094 A 
HETATM   25  C   UNL     1       5.900  34.183  62.042  1.00  0.00     0.040 A 
HETATM   26  C   UNL     1       7.700  32.530  63.520  1.00  0.00     0.041 A 
HETATM   27  N   UNL     1       7.903  31.291  61.330  1.00  0.00    -0.221 NA
HETATM   28  C   UNL     1       7.049  33.616  64.137  1.00  0.00    -0.060 A 
HETATM   29  C   UNL     1       7.279  33.910  65.592  1.00  0.00     0.048 C 
HETATM   30  C   UNL     1       6.164  34.424  63.397  1.00  0.00     0.009 A 
ENDBRANCH   1  21
TORSDOF 5
ENDMDL
MODEL 6
REMARK VINA RESULT:      -9.2      1.928     10.974
REMARK  5 active torsions:
REMARK  status: ('A' for Active; 'I' for Inactive)
REMARK    1  A    between atoms: C_7  and  C_8 
REMARK    2  A    between atoms: C_11  and  N_12 
REMARK       I    between atoms: N_12  and  C_13 
REMARK    3  A    between atoms: C_13  and  C_14 
REMARK    4  A    between atoms: C_16  and  O_17 
REMARK    5  A    between atoms: C_20  and  O_21 
ROOT
HETATM    1  C   UNL     1       7.261  31.017  59.382  1.00  0.00     0.017 A 
HETATM    2  C   UNL     1       6.316  31.217  58.368  1.00  0.00     0.018 A 
HETATM    3  C   UNL     1       6.294  30.398  57.230  1.00  0.00     0.030 A 
HETATM    4  C   UNL     1       7.214  29.359  57.087  1.00  0.00     0.035 A 
HETATM    5  C   UNL     1       8.190  29.185  58.074  1.00  0.00     0.030 A 
HETATM    6  C   UNL     1       8.214  30.005  59.207  1.00  0.00     0.018 A 
ENDROOT
BRANCH   4   7
HETATM    7  N   UNL     1       7.198  28.428  56.027  1.00  0.00    -0.323 N 
HETATM    8  C   UNL     1       6.270  27.427  55.811  1.00  0.00     0.256 C 
HETATM    9  O   UNL     1       5.239  27.221  56.439  1.00  0.00    -0.267 OA
HETATM   10  H   UNL     1       8.029  28.417  55.451  1.00  0.00     0.169 HD
BRANCH   8  11
HETATM   11  C   UNL     1       6.636  26.474  54.729  1.00  0.00     0.037 A 
HETATM   12  C   UNL     1       7.451  25.388  55.063  1.00  0.00     0.054 A 
HETATM   13  C   UNL     1       7.878  24.499  54.078  1.00  0.00     0.071 A 
HETATM   14  C   UNL     1       7.462  24.694  52.761  1.00  0.00     0.073 A 
HETATM   15  C   UNL     1       6.625  25.765  52.421  1.00  0.00     0.071 A 
HETATM   16  C   UNL     1       6.207  26.659  53.408  1.00  0.00     0.054 A 
BRANCH  13  17
HETATM   17  O   UNL     1       8.693  23.498  54.527  1.00  0.00    -0.356 OA
HETATM   18  C   UNL     1       8.277  22.163  54.268  1.00  0.00     0.210 C 
ENDBRANCH  13  17
BRANCH  15  19
HETATM   19  O   UNL     1       6.295  25.826  51.094  1.00  0.00    -0.356 OA
HETATM   20  C   UNL     1       5.102  26.519  50.748  1.00  0.00     0.210 C 
ENDBRANCH  15  19
ENDBRANCH   8  11
ENDBRANCH   4   7
BRANCH   1  21
HETATM   21  C   UNL     1       7.248  31.791  60.621  1.00  0.00     0.180 A 
HETATM   22  O   UNL     1       6.539  32.966  60.607  1.00  0.00    -0.289 OA
HETATM   23  C   UNL     1       6.611  33.410  61.894  1.00  0.00     0.106 A 
HETATM   24  C   UNL     1       7.365  32.501  62.614  1.00  0.00     0.094 A 
HETATM   25  C   UNL     1       6.029  34.554  62.424  1.00  0.00     0.040 A 
HETATM   26  C   UNL     1       7.573  32.724  63.982  1.00  0.00     0.041 A 
HETATM   27  N   UNL     1       7.775  31.481  61.794  1.00  0.00    -0.221 NA
HETATM   28  C   UNL     1       6.998  33.866  64.573  1.00  0.00    -0.060 A 
HETATM   29  C   UNL     1       7.173  34.129  66.042  1.00  0.00     0.048 C 
HETATM   30  C   UNL     1       6.239  34.761  63.794  1.00  0.00     0.009 A 
ENDBRANCH   1  21
TORSDOF 5
ENDMDL
MODEL 7
REMARK VINA RESULT:      -9.1      2.035      3.361
REMARK  5 active torsions:
REMARK  status: ('A' for Active; 'I' for Inactive)
REMARK    1  A    between atoms: C_7  and  C_8 
REMARK    2  A    between atoms: C_11  and  N_12 
REMARK       I    between atoms: N_12  and  C_13 
REMARK    3  A    between atoms: C_13  and  C_14 
REMARK    4  A    between atoms: C_16  and  O_17 
REMARK    5  A    between atoms: C_20  and  O_21 
ROOT
HETATM    1  C   UNL     1       7.104  26.691  56.331  1.00  0.00     0.017 A 
HETATM    2  C   UNL     1       7.986  27.436  57.122  1.00  0.00     0.018 A 
HETATM    3  C   UNL     1       7.570  28.616  57.754  1.00  0.00     0.030 A 
HETATM    4  C   UNL     1       6.259  29.071  57.611  1.00  0.00     0.035 A 
HETATM    5  C   UNL     1       5.386  28.358  56.783  1.00  0.00     0.030 A 
HETATM    6  C   UNL     1       5.804  27.182  56.149  1.00  0.00     0.018 A 
ENDROOT
BRANCH   4   7
HETATM    7  N   UNL     1       5.731  30.189  58.291  1.00  0.00    -0.323 N 
HETATM    8  C   UNL     1       5.527  31.457  57.778  1.00  0.00     0.256 C 
HETATM    9  O   UNL     1       5.671  31.820  56.618  1.00  0.00    -0.267 OA
HETATM   10  H   UNL     1       5.623  30.074  59.290  1.00  0.00     0.169 HD
BRANCH   8  11
HETATM   11  C   UNL     1       5.155  32.477  58.794  1.00  0.00     0.037 A 
HETATM   12  C   UNL     1       4.343  33.540  58.387  1.00  0.00     0.054 A 
HETATM   13  C   UNL     1       4.015  34.558  59.279  1.00  0.00     0.071 A 
HETATM   14  C   UNL     1       4.487  34.490  60.591  1.00  0.00     0.073 A 
HETATM   15  C   UNL     1       5.279  33.414  61.015  1.00  0.00     0.071 A 
HETATM   16  C   UNL     1       5.614  32.402  60.115  1.00  0.00     0.054 A 
BRANCH  13  17
HETATM   17  O   UNL     1       3.241  35.553  58.751  1.00  0.00    -0.356 OA
HETATM   18  C   UNL     1       2.898  35.442  57.376  1.00  0.00     0.210 C 
ENDBRANCH  13  17
BRANCH  15  19
HETATM   19  O   UNL     1       5.663  33.479  62.327  1.00  0.00    -0.356 OA
HETATM   20  C   UNL     1       5.385  32.349  63.146  1.00  0.00     0.210 C 
ENDBRANCH  15  19
ENDBRANCH   8  11
ENDBRANCH   4   7
BRANCH   1  21
HETATM   21  C   UNL     1       7.480  25.409  55.739  1.00  0.00     0.180 A 
HETATM   22  O   UNL     1       7.881  24.424  56.607  1.00  0.00    -0.289 OA
HETATM   23  C   UNL     1       8.063  23.334  55.807  1.00  0.00     0.106 A 
HETATM   24  C   UNL     1       7.782  23.712  54.507  1.00  0.00     0.094 A 
HETATM   25  C   UNL     1       8.443  22.058  56.197  1.00  0.00     0.040 A 
HETATM   26  C   UNL     1       7.878  22.756  53.486  1.00  0.00     0.041 A 
HETATM   27  N   UNL     1       7.423  25.035  54.471  1.00  0.00    -0.221 NA
HETATM   28  C   UNL     1       8.253  21.442  53.828  1.00  0.00    -0.060 A 
HETATM   29  C   UNL     1       8.342  20.380  52.770  1.00  0.00     0.048 C 
HETATM   30  C   UNL     1       8.529  21.110  55.169  1.00  0.00     0.009 A 
ENDBRANCH   1  21
TORSDOF 5
ENDMDL
MODEL 8
REMARK VINA RESULT:      -8.5      2.249      2.960
REMARK  5 active torsions:
REMARK  status: ('A' for Active; 'I' for Inactive)
REMARK    1  A    between atoms: C_7  and  C_8 
REMARK    2  A    between atoms: C_11  and  N_12 
REMARK       I    between atoms: N_12  and  C_13 
REMARK    3  A    between atoms: C_13  and  C_14 
REMARK    4  A    between atoms: C_16  and  O_17 
REMARK    5  A    between atoms: C_20  and  O_21 
ROOT
HETATM    1  C   UNL     1       7.294  27.041  56.214  1.00  0.00     0.017 A 
HETATM    2  C   UNL     1       7.818  27.441  57.449  1.00  0.00     0.018 A 
HETATM    3  C   UNL     1       7.426  28.649  58.042  1.00  0.00     0.030 A 
HETATM    4  C   UNL     1       6.496  29.478  57.415  1.00  0.00     0.035 A 
HETATM    5  C   UNL     1       6.006  29.107  56.158  1.00  0.00     0.030 A 
HETATM    6  C   UNL     1       6.401  27.903  55.564  1.00  0.00     0.018 A 
ENDROOT
BRANCH   4   7
HETATM    7  N   UNL     1       5.973  30.656  57.987  1.00  0.00    -0.323 N 
HETATM    8  C   UNL     1       4.639  30.986  58.144  1.00  0.00     0.256 C 
HETATM    9  O   UNL     1       3.667  30.280  57.907  1.00  0.00    -0.267 OA
HETATM   10  H   UNL     1       6.651  31.383  58.174  1.00  0.00     0.169 HD
BRANCH   8  11
HETATM   11  C   UNL     1       4.401  32.385  58.588  1.00  0.00     0.037 A 
HETATM   12  C   UNL     1       4.942  32.782  59.815  1.00  0.00     0.054 A 
HETATM   13  C   UNL     1       4.698  34.061  60.312  1.00  0.00     0.071 A 
HETATM   14  C   UNL     1       3.930  34.947  59.557  1.00  0.00     0.073 A 
HETATM   15  C   UNL     1       3.406  34.567  58.313  1.00  0.00     0.071 A 
HETATM   16  C   UNL     1       3.644  33.282  57.824  1.00  0.00     0.054 A 
BRANCH  13  17
HETATM   17  O   UNL     1       5.256  34.315  61.533  1.00  0.00    -0.356 OA
HETATM   18  C   UNL     1       6.163  33.345  62.042  1.00  0.00     0.210 C 
ENDBRANCH  13  17
BRANCH  15  19
HETATM   19  O   UNL     1       2.679  35.541  57.685  1.00  0.00    -0.356 OA
HETATM   20  C   UNL     1       1.385  35.826  58.201  1.00  0.00     0.210 C 
ENDBRANCH  15  19
ENDBRANCH   8  11
ENDBRANCH   4   7
BRANCH   1  21
HETATM   21  C   UNL     1       7.610  25.746  55.616  1.00  0.00     0.180 A 
HETATM   22  O   UNL     1       8.171  24.805  56.444  1.00  0.00    -0.289 OA
HETATM   23  C   UNL     1       8.257  23.689  55.665  1.00  0.00     0.106 A 
HETATM   24  C   UNL     1       7.764  24.008  54.413  1.00  0.00     0.094 A 
HETATM   25  C   UNL     1       8.731  22.439  56.036  1.00  0.00     0.040 A 
HETATM   26  C   UNL     1       7.726  23.014  53.425  1.00  0.00     0.041 A 
HETATM   27  N   UNL     1       7.365  25.320  54.388  1.00  0.00    -0.221 NA
HETATM   28  C   UNL     1       8.188  21.724  53.751  1.00  0.00    -0.060 A 
HETATM   29  C   UNL     1       8.140  20.622  52.730  1.00  0.00     0.048 C 
HETATM   30  C   UNL     1       8.681  21.453  55.042  1.00  0.00     0.009 A 
ENDBRANCH   1  21
TORSDOF 5
ENDMDL
MODEL 9
REMARK VINA RESULT:      -8.5      3.015      3.466
REMARK  5 active torsions:
REMARK  status: ('A' for Active; 'I' for Inactive)
REMARK    1  A    between atoms: C_7  and  C_8 
REMARK    2  A    between atoms: C_11  and  N_12 
REMARK       I    between atoms: N_12  and  C_13 
REMARK    3  A    between atoms: C_13  and  C_14 
REMARK    4  A    between atoms: C_16  and  O_17 
REMARK    5  A    between atoms: C_20  and  O_21 
ROOT
HETATM    1  C   UNL     1       5.678  27.755  56.129  1.00  0.00     0.017 A 
HETATM    2  C   UNL     1       4.451  28.382  55.878  1.00  0.00     0.018 A 
HETATM    3  C   UNL     1       4.112  29.584  56.512  1.00  0.00     0.030 A 
HETATM    4  C   UNL     1       4.996  30.188  57.407  1.00  0.00     0.035 A 
HETATM    5  C   UNL     1       6.202  29.542  57.698  1.00  0.00     0.030 A 
HETATM    6  C   UNL     1       6.539  28.340  57.067  1.00  0.00     0.018 A 
ENDROOT
BRANCH   4   7
HETATM    7  N   UNL     1       4.777  31.445  58.009  1.00  0.00    -0.323 N 
HETATM    8  C   UNL     1       3.791  31.771  58.922  1.00  0.00     0.256 C 
HETATM    9  O   UNL     1       2.988  31.013  59.450  1.00  0.00    -0.267 OA
HETATM   10  H   UNL     1       5.318  32.207  57.624  1.00  0.00     0.169 HD
BRANCH   8  11
HETATM   11  C   UNL     1       3.685  33.225  59.215  1.00  0.00     0.037 A 
HETATM   12  C   UNL     1       3.107  33.607  60.430  1.00  0.00     0.054 A 
HETATM   13  C   UNL     1       2.923  34.955  60.730  1.00  0.00     0.071 A 
HETATM   14  C   UNL     1       3.347  35.919  59.815  1.00  0.00     0.073 A 
HETATM   15  C   UNL     1       3.951  35.546  58.606  1.00  0.00     0.071 A 
HETATM   16  C   UNL     1       4.124  34.195  58.304  1.00  0.00     0.054 A 
BRANCH  13  17
HETATM   17  O   UNL     1       2.321  35.195  61.933  1.00  0.00    -0.356 OA
HETATM   18  C   UNL     1       2.298  34.123  62.868  1.00  0.00     0.210 C 
ENDBRANCH  13  17
BRANCH  15  19
HETATM   19  O   UNL     1       4.320  36.598  57.811  1.00  0.00    -0.356 OA
HETATM   20  C   UNL     1       4.597  37.836  58.453  1.00  0.00     0.210 C 
ENDBRANCH  15  19
ENDBRANCH   8  11
ENDBRANCH   4   7
BRANCH   1  21
HETATM   21  C   UNL     1       6.100  26.554  55.412  1.00  0.00     0.180 A 
HETATM   22  O   UNL     1       6.560  26.731  54.130  1.00  0.00    -0.289 OA
HETATM   23  C   UNL     1       6.974  25.487  53.754  1.00  0.00     0.106 A 
HETATM   24  C   UNL     1       6.734  24.624  54.808  1.00  0.00     0.094 A 
HETATM   25  C   UNL     1       7.554  25.122  52.547  1.00  0.00     0.040 A 
HETATM   26  C   UNL     1       7.093  23.275  54.677  1.00  0.00     0.041 A 
HETATM   27  N   UNL     1       6.168  25.309  55.853  1.00  0.00    -0.221 NA
HETATM   28  C   UNL     1       7.692  22.852  53.474  1.00  0.00    -0.060 A 
HETATM   29  C   UNL     1       8.116  21.422  53.301  1.00  0.00     0.048 C 
HETATM   30  C   UNL     1       7.914  23.773  52.431  1.00  0.00     0.009 A 
ENDBRANCH   1  21
TORSDOF 5
ENDMDL
MODEL 10
REMARK VINA RESULT:      -8.3      6.844     10.408
REMARK  5 active torsions:
REMARK  status: ('A' for Active; 'I' for Inactive)
REMARK    1  A    between atoms: C_7  and  C_8 
REMARK    2  A    between atoms: C_11  and  N_12 
REMARK       I    between atoms: N_12  and  C_13 
REMARK    3  A    between atoms: C_13  and  C_14 
REMARK    4  A    between atoms: C_16  and  O_17 
REMARK    5  A    between atoms: C_20  and  O_21 
ROOT
HETATM    1  C   UNL     1       3.744  27.809  49.576  1.00  0.00     0.017 A 
HETATM    2  C   UNL     1       4.414  26.590  49.415  1.00  0.00     0.018 A 
HETATM    3  C   UNL     1       5.260  26.093  50.416  1.00  0.00     0.030 A 
HETATM    4  C   UNL     1       5.447  26.803  51.603  1.00  0.00     0.035 A 
HETATM    5  C   UNL     1       4.819  28.044  51.750  1.00  0.00     0.030 A 
HETATM    6  C   UNL     1       3.977  28.542  50.748  1.00  0.00     0.018 A 
ENDROOT
BRANCH   4   7
HETATM    7  N   UNL     1       6.197  26.328  52.699  1.00  0.00    -0.323 N 
HETATM    8  C   UNL     1       5.788  25.420  53.659  1.00  0.00     0.256 C 
HETATM    9  O   UNL     1       4.741  24.787  53.683  1.00  0.00    -0.267 OA
HETATM   10  H   UNL     1       7.071  26.810  52.864  1.00  0.00     0.169 HD
BRANCH   8  11
HETATM   11  C   UNL     1       6.724  25.277  54.805  1.00  0.00     0.037 A 
HETATM   12  C   UNL     1       7.515  24.125  54.864  1.00  0.00     0.054 A 
HETATM   13  C   UNL     1       8.363  23.907  55.948  1.00  0.00     0.071 A 
HETATM   14  C   UNL     1       8.432  24.866  56.960  1.00  0.00     0.073 A 
HETATM   15  C   UNL     1       7.663  26.036  56.896  1.00  0.00     0.071 A 
HETATM   16  C   UNL     1       6.807  26.245  55.814  1.00  0.00     0.054 A 
BRANCH  13  17
HETATM   17  O   UNL     1       9.059  22.732  55.902  1.00  0.00    -0.356 OA
HETATM   18  C   UNL     1       8.480  21.614  56.563  1.00  0.00     0.210 C 
ENDBRANCH  13  17
BRANCH  15  19
HETATM   19  O   UNL     1       7.839  26.885  57.955  1.00  0.00    -0.356 OA
HETATM   20  C   UNL     1       7.591  28.268  57.731  1.00  0.00     0.210 C 
ENDBRANCH  15  19
ENDBRANCH   8  11
ENDBRANCH   4   7
BRANCH   1  21
HETATM   21  C   UNL     1       2.784  28.306  48.594  1.00  0.00     0.180 A 
HETATM   22  O   UNL     1       2.022  27.365  47.946  1.00  0.00    -0.289 OA
HETATM   23  C   UNL     1       1.163  28.103  47.187  1.00  0.00     0.106 A 
HETATM   24  C   UNL     1       1.452  29.439  47.397  1.00  0.00     0.094 A 
HETATM   25  C   UNL     1       0.156  27.631  46.357  1.00  0.00     0.040 A 
HETATM   26  C   UNL     1       0.687  30.412  46.738  1.00  0.00     0.041 A 
HETATM   27  N   UNL     1       2.491  29.558  48.284  1.00  0.00    -0.221 NA
HETATM   28  C   UNL     1      -0.353  29.988  45.888  1.00  0.00    -0.060 A 
HETATM   29  C   UNL     1      -1.214  30.996  45.183  1.00  0.00     0.048 C 
HETATM   30  C   UNL     1      -0.605  28.614  45.708  1.00  0.00     0.009 A 
ENDBRANCH   1  21
TORSDOF 5
ENDMDL
