MODEL 1
REMARK VINA RESULT:      -9.1      0.000      0.000
REMARK  5 active torsions:
REMARK  status: ('A' for Active; 'I' for Inactive)
REMARK    1  A    between atoms: O_2  and  C_3 
REMARK    2  A    between atoms: C_5  and  C_6 
REMARK    3  A    between atoms: C_12  and  C_13 
REMARK    4  A    between atoms: C_15  and  O_16 
REMARK    5  A    between atoms: C_18  and  O_19 
ROOT
HETATM    1  C   UNL     1       5.980  25.132  53.735  1.00  0.00     0.098 A 
HETATM    2  N   UNL     1       5.617  24.867  52.455  1.00  0.00    -0.173 NA
HETATM    3  N   UNL     1       4.731  25.836  52.121  1.00  0.00    -0.272 N 
HETATM    4  H   UNL     1       4.317  25.829  51.193  1.00  0.00     0.189 HD
HETATM    5  C   UNL     1       4.540  26.694  53.133  1.00  0.00     0.128 A 
HETATM    6  C   UNL     1       5.323  26.293  54.177  1.00  0.00     0.034 A 
HETATM    7  C   UNL     1       5.149  27.217  55.316  1.00  0.00     0.156 A 
HETATM    8  N   UNL     1       4.177  28.161  54.731  1.00  0.00    -0.343 N 
HETATM    9  C   UNL     1       3.804  27.863  53.425  1.00  0.00     0.271 A 
HETATM   10  O   UNL     1       3.038  28.486  52.714  1.00  0.00    -0.266 OA
HETATM   11  H   UNL     1       3.824  28.978  55.206  1.00  0.00     0.163 HD
ENDROOT
BRANCH   7  12
HETATM   12  C   UNL     1       6.477  27.862  55.629  1.00  0.00    -0.028 A 
HETATM   13  C   UNL     1       6.885  28.152  56.951  1.00  0.00     0.049 A 
HETATM   14  C   UNL     1       8.126  28.740  57.206  1.00  0.00     0.101 A 
HETATM   15  C   UNL     1       8.965  29.035  56.128  1.00  0.00     0.099 A 
HETATM   16  C   UNL     1       8.593  28.760  54.820  1.00  0.00     0.040 A 
HETATM   17  C   UNL     1       7.352  28.174  54.572  1.00  0.00     0.012 A 
BRANCH  14  18
HETATM   18  O   UNL     1       8.630  29.066  58.438  1.00  0.00    -0.353 OA
HETATM   19  C   UNL     1       8.059  30.201  59.082  1.00  0.00     0.210 C 
ENDBRANCH  14  18
BRANCH  15  20
HETATM   20  O   UNL     1      10.190  29.607  56.344  1.00  0.00    -0.358 OA
HETATM   21  H   UNL     1      10.463  29.951  55.471  1.00  0.00     0.218 HD
ENDBRANCH  15  20
ENDBRANCH   7  12
BRANCH   1  22
HETATM   22  C   UNL     1       6.924  24.275  54.449  1.00  0.00    -0.002 A 
HETATM   23  C   UNL     1       7.580  23.233  53.775  1.00  0.00     0.050 A 
HETATM   24  C   UNL     1       8.492  22.403  54.434  1.00  0.00     0.069 A 
HETATM   25  C   UNL     1       8.754  22.615  55.788  1.00  0.00     0.037 A 
HETATM   26  C   UNL     1       8.101  23.641  56.474  1.00  0.00     0.004 A 
HETATM   27  C   UNL     1       7.188  24.464  55.811  1.00  0.00     0.014 A 
BRANCH  24  28
HETATM   28  O   UNL     1       9.054  21.433  53.650  1.00  0.00    -0.356 OA
HETATM   29  C   UNL     1       8.164  20.565  52.960  1.00  0.00     0.210 C 
ENDBRANCH  24  28
ENDBRANCH   1  22
TORSDOF 5
ENDMDL
MODEL 2
REMARK VINA RESULT:      -9.0      1.540      5.916
REMARK  5 active torsions:
REMARK  status: ('A' for Active; 'I' for Inactive)
REMARK    1  A    between atoms: O_2  and  C_3 
REMARK    2  A    between atoms: C_5  and  C_6 
REMARK    3  A    between atoms: C_12  and  C_13 
REMARK    4  A    between atoms: C_15  and  O_16 
REMARK    5  A    between atoms: C_18  and  O_19 
ROOT
HETATM    1  C   UNL     1       6.004  27.551  54.179  1.00  0.00     0.098 A 
HETATM    2  N   UNL     1       4.753  28.045  54.003  1.00  0.00    -0.173 NA
HETATM    3  N   UNL     1       4.316  27.519  52.833  1.00  0.00    -0.272 N 
HETATM    4  H   UNL     1       3.389  27.763  52.497  1.00  0.00     0.189 HD
HETATM    5  C   UNL     1       5.235  26.711  52.287  1.00  0.00     0.128 A 
HETATM    6  C   UNL     1       6.321  26.690  53.113  1.00  0.00     0.034 A 
HETATM    7  C   UNL     1       7.361  25.805  52.551  1.00  0.00     0.156 A 
HETATM    8  N   UNL     1       6.676  25.356  51.324  1.00  0.00    -0.343 N 
HETATM    9  C   UNL     1       5.402  25.887  51.152  1.00  0.00     0.271 A 
HETATM   10  O   UNL     1       4.626  25.667  50.242  1.00  0.00    -0.266 OA
HETATM   11  H   UNL     1       7.063  24.695  50.667  1.00  0.00     0.163 HD
ENDROOT
BRANCH   7  12
HETATM   12  C   UNL     1       7.622  24.679  53.522  1.00  0.00    -0.028 A 
HETATM   13  C   UNL     1       7.458  23.321  53.169  1.00  0.00     0.049 A 
HETATM   14  C   UNL     1       7.719  22.304  54.090  1.00  0.00     0.101 A 
HETATM   15  C   UNL     1       8.152  22.652  55.372  1.00  0.00     0.099 A 
HETATM   16  C   UNL     1       8.324  23.976  55.747  1.00  0.00     0.040 A 
HETATM   17  C   UNL     1       8.060  24.987  54.823  1.00  0.00     0.012 A 
BRANCH  14  18
HETATM   18  O   UNL     1       7.598  20.957  53.865  1.00  0.00    -0.353 OA
HETATM   19  C   UNL     1       8.405  20.407  52.829  1.00  0.00     0.210 C 
ENDBRANCH  14  18
BRANCH  15  20
HETATM   20  O   UNL     1       8.420  21.679  56.297  1.00  0.00    -0.358 OA
HETATM   21  H   UNL     1       8.436  22.147  57.155  1.00  0.00     0.218 HD
ENDBRANCH  15  20
ENDBRANCH   7  12
BRANCH   1  22
HETATM   22  C   UNL     1       6.809  27.918  55.342  1.00  0.00    -0.002 A 
HETATM   23  C   UNL     1       8.004  28.636  55.173  1.00  0.00     0.050 A 
HETATM   24  C   UNL     1       8.790  29.005  56.270  1.00  0.00     0.069 A 
HETATM   25  C   UNL     1       8.378  28.651  57.555  1.00  0.00     0.037 A 
HETATM   26  C   UNL     1       7.197  27.928  57.737  1.00  0.00     0.004 A 
HETATM   27  C   UNL     1       6.419  27.559  56.637  1.00  0.00     0.014 A 
BRANCH  24  28
HETATM   28  O   UNL     1       9.924  29.701  55.954  1.00  0.00    -0.356 OA
HETATM   29  C   UNL     1      10.986  29.667  56.898  1.00  0.00     0.210 C 
ENDBRANCH  24  28
ENDBRANCH   1  22
TORSDOF 5
ENDMDL
MODEL 3
REMARK VINA RESULT:      -8.8      2.287      4.934
REMARK  5 active torsions:
REMARK  status: ('A' for Active; 'I' for Inactive)
REMARK    1  A    between atoms: O_2  and  C_3 
REMARK    2  A    between atoms: C_5  and  C_6 
REMARK    3  A    between atoms: C_12  and  C_13 
REMARK    4  A    between atoms: C_15  and  O_16 
REMARK    5  A    between atoms: C_18  and  O_19 
ROOT
HETATM    1  C   UNL     1       7.809  25.265  56.156  1.00  0.00     0.098 A 
HETATM    2  N   UNL     1       7.828  24.794  57.428  1.00  0.00    -0.173 NA
HETATM    3  N   UNL     1       7.871  25.891  58.222  1.00  0.00    -0.272 N 
HETATM    4  H   UNL     1       7.899  25.772  59.230  1.00  0.00     0.189 HD
HETATM    5  C   UNL     1       7.865  27.019  57.498  1.00  0.00     0.128 A 
HETATM    6  C   UNL     1       7.813  26.671  56.178  1.00  0.00     0.034 A 
HETATM    7  C   UNL     1       7.799  27.887  55.340  1.00  0.00     0.156 A 
HETATM    8  N   UNL     1       7.841  28.921  56.393  1.00  0.00    -0.343 N 
HETATM    9  C   UNL     1       7.879  28.418  57.688  1.00  0.00     0.271 A 
HETATM   10  O   UNL     1       7.900  29.051  58.727  1.00  0.00    -0.266 OA
HETATM   11  H   UNL     1       7.813  29.913  56.214  1.00  0.00     0.163 HD
ENDROOT
BRANCH   7  12
HETATM   12  C   UNL     1       6.518  27.915  54.542  1.00  0.00    -0.028 A 
HETATM   13  C   UNL     1       6.488  27.677  53.150  1.00  0.00     0.049 A 
HETATM   14  C   UNL     1       5.283  27.699  52.444  1.00  0.00     0.101 A 
HETATM   15  C   UNL     1       4.100  27.959  53.141  1.00  0.00     0.099 A 
HETATM   16  C   UNL     1       4.098  28.195  54.508  1.00  0.00     0.040 A 
HETATM   17  C   UNL     1       5.304  28.172  55.206  1.00  0.00     0.012 A 
BRANCH  14  18
HETATM   18  O   UNL     1       5.127  27.484  51.099  1.00  0.00    -0.353 OA
HETATM   19  C   UNL     1       5.253  26.139  50.650  1.00  0.00     0.210 C 
ENDBRANCH  14  18
BRANCH  15  20
HETATM   20  O   UNL     1       2.902  27.984  52.479  1.00  0.00    -0.358 OA
HETATM   21  H   UNL     1       2.263  28.334  53.131  1.00  0.00     0.218 HD
ENDBRANCH  15  20
ENDBRANCH   7  12
BRANCH   1  22
HETATM   22  C   UNL     1       7.780  24.359  55.010  1.00  0.00    -0.002 A 
HETATM   23  C   UNL     1       7.703  22.971  55.211  1.00  0.00     0.050 A 
HETATM   24  C   UNL     1       7.669  22.083  54.131  1.00  0.00     0.069 A 
HETATM   25  C   UNL     1       7.713  22.586  52.831  1.00  0.00     0.037 A 
HETATM   26  C   UNL     1       7.801  23.963  52.617  1.00  0.00     0.004 A 
HETATM   27  C   UNL     1       7.839  24.845  53.699  1.00  0.00     0.014 A 
BRANCH  24  28
HETATM   28  O   UNL     1       7.591  20.762  54.479  1.00  0.00    -0.356 OA
HETATM   29  C   UNL     1       7.980  20.420  55.803  1.00  0.00     0.210 C 
ENDBRANCH  24  28
ENDBRANCH   1  22
TORSDOF 5
ENDMDL
MODEL 4
REMARK VINA RESULT:      -8.5      1.220      1.891
REMARK  5 active torsions:
REMARK  status: ('A' for Active; 'I' for Inactive)
REMARK    1  A    between atoms: O_2  and  C_3 
REMARK    2  A    between atoms: C_5  and  C_6 
REMARK    3  A    between atoms: C_12  and  C_13 
REMARK    4  A    between atoms: C_15  and  O_16 
REMARK    5  A    between atoms: C_18  and  O_19 
ROOT
HETATM    1  C   UNL     1       7.041  24.903  53.113  1.00  0.00     0.098 A 
HETATM    2  N   UNL     1       7.369  24.934  51.797  1.00  0.00    -0.173 NA
HETATM    3  N   UNL     1       6.553  25.862  51.241  1.00  0.00    -0.272 N 
HETATM    4  H   UNL     1       6.622  26.047  50.244  1.00  0.00     0.189 HD
HETATM    5  C   UNL     1       5.746  26.414  52.156  1.00  0.00     0.128 A 
HETATM    6  C   UNL     1       6.028  25.845  53.365  1.00  0.00     0.034 A 
HETATM    7  C   UNL     1       5.162  26.430  54.408  1.00  0.00     0.156 A 
HETATM    8  N   UNL     1       4.393  27.388  53.592  1.00  0.00    -0.343 N 
HETATM    9  C   UNL     1       4.731  27.393  52.243  1.00  0.00     0.271 A 
HETATM   10  O   UNL     1       4.264  28.094  51.366  1.00  0.00    -0.266 OA
HETATM   11  H   UNL     1       3.699  28.021  53.962  1.00  0.00     0.163 HD
ENDROOT
BRANCH   7  12
HETATM   12  C   UNL     1       6.031  27.105  55.441  1.00  0.00    -0.028 A 
HETATM   13  C   UNL     1       6.924  28.151  55.115  1.00  0.00     0.049 A 
HETATM   14  C   UNL     1       7.705  28.761  56.098  1.00  0.00     0.101 A 
HETATM   15  C   UNL     1       7.587  28.323  57.420  1.00  0.00     0.099 A 
HETATM   16  C   UNL     1       6.718  27.300  57.771  1.00  0.00     0.040 A 
HETATM   17  C   UNL     1       5.942  26.694  56.784  1.00  0.00     0.012 A 
BRANCH  14  18
HETATM   18  O   UNL     1       8.602  29.780  55.904  1.00  0.00    -0.353 OA
HETATM   19  C   UNL     1       9.882  29.415  55.399  1.00  0.00     0.210 C 
ENDBRANCH  14  18
BRANCH  15  20
HETATM   20  O   UNL     1       8.335  28.903  58.408  1.00  0.00    -0.358 OA
HETATM   21  H   UNL     1       8.171  29.862  58.316  1.00  0.00     0.218 HD
ENDBRANCH  15  20
ENDBRANCH   7  12
BRANCH   1  22
HETATM   22  C   UNL     1       7.709  23.993  54.041  1.00  0.00    -0.002 A 
HETATM   23  C   UNL     1       7.943  22.658  53.674  1.00  0.00     0.050 A 
HETATM   24  C   UNL     1       8.586  21.769  54.542  1.00  0.00     0.069 A 
HETATM   25  C   UNL     1       9.000  22.219  55.796  1.00  0.00     0.037 A 
HETATM   26  C   UNL     1       8.764  23.541  56.178  1.00  0.00     0.004 A 
HETATM   27  C   UNL     1       8.118  24.422  55.309  1.00  0.00     0.014 A 
BRANCH  24  28
HETATM   28  O   UNL     1       8.746  20.503  54.049  1.00  0.00    -0.356 OA
HETATM   29  C   UNL     1       8.349  20.281  52.702  1.00  0.00     0.210 C 
ENDBRANCH  24  28
ENDBRANCH   1  22
TORSDOF 5
ENDMDL
MODEL 5
REMARK VINA RESULT:      -8.5      2.255      2.869
REMARK  5 active torsions:
REMARK  status: ('A' for Active; 'I' for Inactive)
REMARK    1  A    between atoms: O_2  and  C_3 
REMARK    2  A    between atoms: C_5  and  C_6 
REMARK    3  A    between atoms: C_12  and  C_13 
REMARK    4  A    between atoms: C_15  and  O_16 
REMARK    5  A    between atoms: C_18  and  O_19 
ROOT
HETATM    1  C   UNL     1       7.312  24.611  53.445  1.00  0.00     0.098 A 
HETATM    2  N   UNL     1       8.126  24.549  52.361  1.00  0.00    -0.173 NA
HETATM    3  N   UNL     1       7.464  25.198  51.373  1.00  0.00    -0.272 N 
HETATM    4  H   UNL     1       7.892  25.269  50.454  1.00  0.00     0.189 HD
HETATM    5  C   UNL     1       6.286  25.670  51.802  1.00  0.00     0.128 A 
HETATM    6  C   UNL     1       6.151  25.332  53.118  1.00  0.00     0.034 A 
HETATM    7  C   UNL     1       4.864  25.839  53.635  1.00  0.00     0.156 A 
HETATM    8  N   UNL     1       4.343  26.496  52.421  1.00  0.00    -0.343 N 
HETATM    9  C   UNL     1       5.182  26.406  51.316  1.00  0.00     0.271 A 
HETATM   10  O   UNL     1       4.999  26.873  50.208  1.00  0.00    -0.266 OA
HETATM   11  H   UNL     1       3.471  27.002  52.380  1.00  0.00     0.163 HD
ENDROOT
BRANCH   7  12
HETATM   12  C   UNL     1       5.137  26.811  54.756  1.00  0.00    -0.028 A 
HETATM   13  C   UNL     1       5.256  28.203  54.541  1.00  0.00     0.049 A 
HETATM   14  C   UNL     1       5.499  29.076  55.603  1.00  0.00     0.101 A 
HETATM   15  C   UNL     1       5.618  28.549  56.892  1.00  0.00     0.099 A 
HETATM   16  C   UNL     1       5.504  27.189  57.136  1.00  0.00     0.040 A 
HETATM   17  C   UNL     1       5.263  26.322  56.070  1.00  0.00     0.012 A 
BRANCH  14  18
HETATM   18  O   UNL     1       5.632  30.438  55.519  1.00  0.00    -0.353 OA
HETATM   19  C   UNL     1       4.468  31.172  55.156  1.00  0.00     0.210 C 
ENDBRANCH  14  18
BRANCH  15  20
HETATM   20  O   UNL     1       5.851  29.379  57.956  1.00  0.00    -0.358 OA
HETATM   21  H   UNL     1       6.707  29.807  57.756  1.00  0.00     0.218 HD
ENDBRANCH  15  20
ENDBRANCH   7  12
BRANCH   1  22
HETATM   22  C   UNL     1       7.690  23.993  54.714  1.00  0.00    -0.002 A 
HETATM   23  C   UNL     1       7.597  22.601  54.876  1.00  0.00     0.050 A 
HETATM   24  C   UNL     1       7.958  21.985  56.079  1.00  0.00     0.069 A 
HETATM   25  C   UNL     1       8.417  22.769  57.137  1.00  0.00     0.037 A 
HETATM   26  C   UNL     1       8.504  24.155  56.994  1.00  0.00     0.004 A 
HETATM   27  C   UNL     1       8.138  24.765  55.792  1.00  0.00     0.014 A 
BRANCH  24  28
HETATM   28  O   UNL     1       7.817  20.624  56.089  1.00  0.00    -0.356 OA
HETATM   29  C   UNL     1       8.649  19.883  55.207  1.00  0.00     0.210 C 
ENDBRANCH  24  28
ENDBRANCH   1  22
TORSDOF 5
ENDMDL
MODEL 6
REMARK VINA RESULT:      -8.3      8.414     10.865
REMARK  5 active torsions:
REMARK  status: ('A' for Active; 'I' for Inactive)
REMARK    1  A    between atoms: O_2  and  C_3 
REMARK    2  A    between atoms: C_5  and  C_6 
REMARK    3  A    between atoms: C_12  and  C_13 
REMARK    4  A    between atoms: C_15  and  O_16 
REMARK    5  A    between atoms: C_18  and  O_19 
ROOT
HETATM    1  C   UNL     1       7.318  33.352  63.340  1.00  0.00     0.098 A 
HETATM    2  N   UNL     1       7.555  33.445  64.672  1.00  0.00    -0.173 NA
HETATM    3  N   UNL     1       6.719  34.411  65.123  1.00  0.00    -0.272 N 
HETATM    4  H   UNL     1       6.733  34.656  66.109  1.00  0.00     0.189 HD
HETATM    5  C   UNL     1       5.967  34.908  64.132  1.00  0.00     0.128 A 
HETATM    6  C   UNL     1       6.304  34.256  62.981  1.00  0.00     0.034 A 
HETATM    7  C   UNL     1       5.491  34.769  61.859  1.00  0.00     0.156 A 
HETATM    8  N   UNL     1       4.678  35.772  62.573  1.00  0.00    -0.343 N 
HETATM    9  C   UNL     1       4.948  35.865  63.934  1.00  0.00     0.271 A 
HETATM   10  O   UNL     1       4.410  36.594  64.746  1.00  0.00    -0.266 OA
HETATM   11  H   UNL     1       3.957  36.330  62.140  1.00  0.00     0.163 HD
ENDROOT
BRANCH   7  12
HETATM   12  C   UNL     1       4.667  33.638  61.295  1.00  0.00    -0.028 A 
HETATM   13  C   UNL     1       4.336  33.552  59.924  1.00  0.00     0.049 A 
HETATM   14  C   UNL     1       3.580  32.485  59.434  1.00  0.00     0.101 A 
HETATM   15  C   UNL     1       3.157  31.495  60.325  1.00  0.00     0.099 A 
HETATM   16  C   UNL     1       3.468  31.551  61.675  1.00  0.00     0.040 A 
HETATM   17  C   UNL     1       4.222  32.620  62.159  1.00  0.00     0.012 A 
BRANCH  14  18
HETATM   18  O   UNL     1       3.198  32.293  58.131  1.00  0.00    -0.353 OA
HETATM   19  C   UNL     1       3.886  33.057  57.145  1.00  0.00     0.210 C 
ENDBRANCH  14  18
BRANCH  15  20
HETATM   20  O   UNL     1       2.418  30.434  59.875  1.00  0.00    -0.358 OA
HETATM   21  H   UNL     1       1.931  30.118  60.662  1.00  0.00     0.218 HD
ENDBRANCH  15  20
ENDBRANCH   7  12
BRANCH   1  22
HETATM   22  C   UNL     1       8.059  32.412  62.501  1.00  0.00    -0.002 A 
HETATM   23  C   UNL     1       8.442  32.778  61.201  1.00  0.00     0.050 A 
HETATM   24  C   UNL     1       9.156  31.900  60.380  1.00  0.00     0.069 A 
HETATM   25  C   UNL     1       9.492  30.635  60.863  1.00  0.00     0.037 A 
HETATM   26  C   UNL     1       9.108  30.253  62.150  1.00  0.00     0.004 A 
HETATM   27  C   UNL     1       8.391  31.133  62.963  1.00  0.00     0.014 A 
BRANCH  24  28
HETATM   28  O   UNL     1       9.462  32.394  59.141  1.00  0.00    -0.356 OA
HETATM   29  C   UNL     1      10.192  31.541  58.269  1.00  0.00     0.210 C 
ENDBRANCH  24  28
ENDBRANCH   1  22
TORSDOF 5
ENDMDL
MODEL 7
REMARK VINA RESULT:      -8.0      1.797      6.155
REMARK  5 active torsions:
REMARK  status: ('A' for Active; 'I' for Inactive)
REMARK    1  A    between atoms: O_2  and  C_3 
REMARK    2  A    between atoms: C_5  and  C_6 
REMARK    3  A    between atoms: C_12  and  C_13 
REMARK    4  A    between atoms: C_15  and  O_16 
REMARK    5  A    between atoms: C_18  and  O_19 
ROOT
HETATM    1  C   UNL     1       6.797  29.473  55.852  1.00  0.00     0.098 A 
HETATM    2  N   UNL     1       5.769  30.294  56.180  1.00  0.00    -0.173 NA
HETATM    3  N   UNL     1       4.720  29.883  55.428  1.00  0.00    -0.272 N 
HETATM    4  H   UNL     1       3.833  30.370  55.509  1.00  0.00     0.189 HD
HETATM    5  C   UNL     1       5.051  28.835  54.660  1.00  0.00     0.128 A 
HETATM    6  C   UNL     1       6.359  28.531  54.905  1.00  0.00     0.034 A 
HETATM    7  C   UNL     1       6.765  27.374  54.081  1.00  0.00     0.156 A 
HETATM    8  N   UNL     1       5.497  27.105  53.377  1.00  0.00    -0.343 N 
HETATM    9  C   UNL     1       4.461  27.969  53.714  1.00  0.00     0.271 A 
HETATM   10  O   UNL     1       3.319  27.953  53.295  1.00  0.00    -0.266 OA
HETATM   11  H   UNL     1       5.358  26.345  52.728  1.00  0.00     0.163 HD
ENDROOT
BRANCH   7  12
HETATM   12  C   UNL     1       7.180  26.246  54.994  1.00  0.00    -0.028 A 
HETATM   13  C   UNL     1       7.787  25.065  54.512  1.00  0.00     0.049 A 
HETATM   14  C   UNL     1       8.169  24.045  55.386  1.00  0.00     0.101 A 
HETATM   15  C   UNL     1       7.943  24.213  56.755  1.00  0.00     0.099 A 
HETATM   16  C   UNL     1       7.351  25.362  57.258  1.00  0.00     0.040 A 
HETATM   17  C   UNL     1       6.971  26.376  56.380  1.00  0.00     0.012 A 
BRANCH  14  18
HETATM   18  O   UNL     1       8.764  22.860  55.039  1.00  0.00    -0.353 OA
HETATM   19  C   UNL     1       8.568  22.415  53.700  1.00  0.00     0.210 C 
ENDBRANCH  14  18
BRANCH  15  20
HETATM   20  O   UNL     1       8.309  23.234  57.639  1.00  0.00    -0.358 OA
HETATM   21  H   UNL     1       8.422  22.433  57.091  1.00  0.00     0.218 HD
ENDBRANCH  15  20
ENDBRANCH   7  12
BRANCH   1  22
HETATM   22  C   UNL     1       8.118  29.628  56.458  1.00  0.00    -0.002 A 
HETATM   23  C   UNL     1       8.237  30.076  57.783  1.00  0.00     0.050 A 
HETATM   24  C   UNL     1       9.489  30.228  58.388  1.00  0.00     0.069 A 
HETATM   25  C   UNL     1      10.640  29.929  57.659  1.00  0.00     0.037 A 
HETATM   26  C   UNL     1      10.537  29.493  56.337  1.00  0.00     0.004 A 
HETATM   27  C   UNL     1       9.285  29.348  55.737  1.00  0.00     0.014 A 
BRANCH  24  28
HETATM   28  O   UNL     1       9.450  30.670  59.682  1.00  0.00    -0.356 OA
HETATM   29  C   UNL     1       8.165  30.837  60.267  1.00  0.00     0.210 C 
ENDBRANCH  24  28
ENDBRANCH   1  22
TORSDOF 5
ENDMDL
MODEL 8
REMARK VINA RESULT:      -8.0      1.959      2.873
REMARK  5 active torsions:
REMARK  status: ('A' for Active; 'I' for Inactive)
REMARK    1  A    between atoms: O_2  and  C_3 
REMARK    2  A    between atoms: C_5  and  C_6 
REMARK    3  A    between atoms: C_12  and  C_13 
REMARK    4  A    between atoms: C_15  and  O_16 
REMARK    5  A    between atoms: C_18  and  O_19 
ROOT
HETATM    1  C   UNL     1       5.177  27.533  54.720  1.00  0.00     0.098 A 
HETATM    2  N   UNL     1       4.244  27.943  53.825  1.00  0.00    -0.173 NA
HETATM    3  N   UNL     1       3.531  28.905  54.459  1.00  0.00    -0.272 N 
HETATM    4  H   UNL     1       2.763  29.354  53.970  1.00  0.00     0.189 HD
HETATM    5  C   UNL     1       3.991  29.118  55.699  1.00  0.00     0.128 A 
HETATM    6  C   UNL     1       5.047  28.276  55.906  1.00  0.00     0.034 A 
HETATM    7  C   UNL     1       5.591  28.481  57.264  1.00  0.00     0.156 A 
HETATM    8  N   UNL     1       4.688  29.546  57.741  1.00  0.00    -0.343 N 
HETATM    9  C   UNL     1       3.728  29.940  56.817  1.00  0.00     0.271 A 
HETATM   10  O   UNL     1       2.881  30.803  56.952  1.00  0.00    -0.266 OA
HETATM   11  H   UNL     1       4.763  29.990  58.644  1.00  0.00     0.163 HD
ENDROOT
BRANCH   7  12
HETATM   12  C   UNL     1       7.026  28.935  57.152  1.00  0.00    -0.028 A 
HETATM   13  C   UNL     1       7.719  29.531  58.229  1.00  0.00     0.049 A 
HETATM   14  C   UNL     1       9.050  29.930  58.095  1.00  0.00     0.101 A 
HETATM   15  C   UNL     1       9.693  29.724  56.870  1.00  0.00     0.099 A 
HETATM   16  C   UNL     1       9.040  29.139  55.795  1.00  0.00     0.040 A 
HETATM   17  C   UNL     1       7.710  28.745  55.937  1.00  0.00     0.012 A 
BRANCH  14  18
HETATM   18  O   UNL     1       9.823  30.515  59.063  1.00  0.00    -0.353 OA
HETATM   19  C   UNL     1       9.158  31.392  59.967  1.00  0.00     0.210 C 
ENDBRANCH  14  18
BRANCH  15  20
HETATM   20  O   UNL     1      10.999  30.099  56.707  1.00  0.00    -0.358 OA
HETATM   21  H   UNL     1      11.519  29.305  56.940  1.00  0.00     0.218 HD
ENDBRANCH  15  20
ENDBRANCH   7  12
BRANCH   1  22
HETATM   22  C   UNL     1       6.131  26.475  54.392  1.00  0.00    -0.002 A 
HETATM   23  C   UNL     1       6.246  25.347  55.220  1.00  0.00     0.050 A 
HETATM   24  C   UNL     1       7.146  24.319  54.926  1.00  0.00     0.069 A 
HETATM   25  C   UNL     1       7.947  24.418  53.788  1.00  0.00     0.037 A 
HETATM   26  C   UNL     1       7.852  25.539  52.961  1.00  0.00     0.004 A 
HETATM   27  C   UNL     1       6.953  26.565  53.263  1.00  0.00     0.014 A 
BRANCH  24  28
HETATM   28  O   UNL     1       7.146  23.284  55.820  1.00  0.00    -0.356 OA
HETATM   29  C   UNL     1       8.245  22.383  55.764  1.00  0.00     0.210 C 
ENDBRANCH  24  28
ENDBRANCH   1  22
TORSDOF 5
ENDMDL
MODEL 9
REMARK VINA RESULT:      -7.8      7.818     11.123
REMARK  5 active torsions:
REMARK  status: ('A' for Active; 'I' for Inactive)
REMARK    1  A    between atoms: O_2  and  C_3 
REMARK    2  A    between atoms: C_5  and  C_6 
REMARK    3  A    between atoms: C_12  and  C_13 
REMARK    4  A    between atoms: C_15  and  O_16 
REMARK    5  A    between atoms: C_18  and  O_19 
ROOT
HETATM    1  C   UNL     1       4.972  33.383  60.718  1.00  0.00     0.098 A 
HETATM    2  N   UNL     1       4.948  33.690  59.396  1.00  0.00    -0.173 NA
HETATM    3  N   UNL     1       3.683  34.105  59.143  1.00  0.00    -0.272 N 
HETATM    4  H   UNL     1       3.434  34.383  58.198  1.00  0.00     0.189 HD
HETATM    5  C   UNL     1       2.930  34.082  60.251  1.00  0.00     0.128 A 
HETATM    6  C   UNL     1       3.710  33.642  61.281  1.00  0.00     0.034 A 
HETATM    7  C   UNL     1       2.919  33.606  62.528  1.00  0.00     0.156 A 
HETATM    8  N   UNL     1       1.622  34.093  62.020  1.00  0.00    -0.343 N 
HETATM    9  C   UNL     1       1.613  34.385  60.660  1.00  0.00     0.271 A 
HETATM   10  O   UNL     1       0.684  34.815  60.003  1.00  0.00    -0.266 OA
HETATM   11  H   UNL     1       0.808  34.243  62.596  1.00  0.00     0.163 HD
ENDROOT
BRANCH   7  12
HETATM   12  C   UNL     1       3.546  34.543  63.531  1.00  0.00    -0.028 A 
HETATM   13  C   UNL     1       4.155  34.083  64.720  1.00  0.00     0.049 A 
HETATM   14  C   UNL     1       4.736  34.978  65.622  1.00  0.00     0.101 A 
HETATM   15  C   UNL     1       4.709  36.344  65.325  1.00  0.00     0.099 A 
HETATM   16  C   UNL     1       4.120  36.825  64.165  1.00  0.00     0.040 A 
HETATM   17  C   UNL     1       3.541  35.926  63.270  1.00  0.00     0.012 A 
BRANCH  14  18
HETATM   18  O   UNL     1       5.354  34.653  66.801  1.00  0.00    -0.353 OA
HETATM   19  C   UNL     1       4.540  34.053  67.804  1.00  0.00     0.210 C 
ENDBRANCH  14  18
BRANCH  15  20
HETATM   20  O   UNL     1       5.273  37.246  66.186  1.00  0.00    -0.358 OA
HETATM   21  H   UNL     1       5.913  37.745  65.641  1.00  0.00     0.218 HD
ENDBRANCH  15  20
ENDBRANCH   7  12
BRANCH   1  22
HETATM   22  C   UNL     1       6.184  32.875  61.358  1.00  0.00    -0.002 A 
HETATM   23  C   UNL     1       6.935  31.862  60.741  1.00  0.00     0.050 A 
HETATM   24  C   UNL     1       8.101  31.363  61.330  1.00  0.00     0.069 A 
HETATM   25  C   UNL     1       8.524  31.882  62.554  1.00  0.00     0.037 A 
HETATM   26  C   UNL     1       7.781  32.882  63.184  1.00  0.00     0.004 A 
HETATM   27  C   UNL     1       6.615  33.373  62.593  1.00  0.00     0.014 A 
BRANCH  24  28
HETATM   28  O   UNL     1       8.729  30.380  60.614  1.00  0.00    -0.356 OA
HETATM   29  C   UNL     1       9.167  30.717  59.304  1.00  0.00     0.210 C 
ENDBRANCH  24  28
ENDBRANCH   1  22
TORSDOF 5
ENDMDL
MODEL 10
REMARK VINA RESULT:      -7.7      5.129      8.141
REMARK  5 active torsions:
REMARK  status: ('A' for Active; 'I' for Inactive)
REMARK    1  A    between atoms: O_2  and  C_3 
REMARK    2  A    between atoms: C_5  and  C_6 
REMARK    3  A    between atoms: C_12  and  C_13 
REMARK    4  A    between atoms: C_15  and  O_16 
REMARK    5  A    between atoms: C_18  and  O_19 
ROOT
HETATM    1  C   UNL     1       8.581  30.700  60.475  1.00  0.00     0.098 A 
HETATM    2  N   UNL     1       8.983  29.996  61.563  1.00  0.00    -0.173 NA
HETATM    3  N   UNL     1       8.384  30.591  62.622  1.00  0.00    -0.272 N 
HETATM    4  H   UNL     1       8.552  30.226  63.555  1.00  0.00     0.189 HD
HETATM    5  C   UNL     1       7.620  31.622  62.236  1.00  0.00     0.128 A 
HETATM    6  C   UNL     1       7.705  31.722  60.877  1.00  0.00     0.034 A 
HETATM    7  C   UNL     1       6.871  32.847  60.405  1.00  0.00     0.156 A 
HETATM    8  N   UNL     1       6.330  33.320  61.694  1.00  0.00    -0.343 N 
HETATM    9  C   UNL     1       6.767  32.597  62.798  1.00  0.00     0.271 A 
HETATM   10  O   UNL     1       6.460  32.768  63.963  1.00  0.00    -0.266 OA
HETATM   11  H   UNL     1       5.673  34.079  61.788  1.00  0.00     0.163 HD
ENDROOT
BRANCH   7  12
HETATM   12  C   UNL     1       5.804  32.310  59.483  1.00  0.00    -0.028 A 
HETATM   13  C   UNL     1       6.056  32.008  58.126  1.00  0.00     0.049 A 
HETATM   14  C   UNL     1       5.048  31.502  57.303  1.00  0.00     0.101 A 
HETATM   15  C   UNL     1       3.777  31.293  57.848  1.00  0.00     0.099 A 
HETATM   16  C   UNL     1       3.500  31.578  59.176  1.00  0.00     0.040 A 
HETATM   17  C   UNL     1       4.511  32.085  59.992  1.00  0.00     0.012 A 
BRANCH  14  18
HETATM   18  O   UNL     1       5.171  31.172  55.978  1.00  0.00    -0.353 OA
HETATM   19  C   UNL     1       5.635  29.858  55.689  1.00  0.00     0.210 C 
ENDBRANCH  14  18
BRANCH  15  20
HETATM   20  O   UNL     1       2.768  30.794  57.069  1.00  0.00    -0.358 OA
HETATM   21  H   UNL     1       2.843  29.823  57.154  1.00  0.00     0.218 HD
ENDBRANCH  15  20
ENDBRANCH   7  12
BRANCH   1  22
HETATM   22  C   UNL     1       9.047  30.355  59.133  1.00  0.00    -0.002 A 
HETATM   23  C   UNL     1       8.477  29.271  58.446  1.00  0.00     0.050 A 
HETATM   24  C   UNL     1       8.901  28.925  57.159  1.00  0.00     0.069 A 
HETATM   25  C   UNL     1       9.909  29.670  56.548  1.00  0.00     0.037 A 
HETATM   26  C   UNL     1      10.493  30.744  57.224  1.00  0.00     0.004 A 
HETATM   27  C   UNL     1      10.068  31.082  58.511  1.00  0.00     0.014 A 
BRANCH  24  28
HETATM   28  O   UNL     1       8.254  27.849  56.613  1.00  0.00    -0.356 OA
HETATM   29  C   UNL     1       7.521  27.018  57.504  1.00  0.00     0.210 C 
ENDBRANCH  24  28
ENDBRANCH   1  22
TORSDOF 5
ENDMDL
