MODEL 1
REMARK VINA RESULT:      -8.7      0.000      0.000
REMARK  9 active torsions:
REMARK  status: ('A' for Active; 'I' for Inactive)
REMARK    1  A    between atoms: C_2  and  O_3 
REMARK    2  A    between atoms: O_3  and  C_4 
REMARK    3  A    between atoms: C_4  and  C_5 
REMARK    4  A    between atoms: C_7  and  C_8 
REMARK       I    between atoms: C_8  and  N_9 
REMARK    5  A    between atoms: N_9  and  N_10 
REMARK    6  A    between atoms: N_10  and  C_11 
REMARK    7  A    between atoms: C_11  and  N_12 
REMARK    8  A    between atoms: N_12  and  C_13 
REMARK    9  A    between atoms: C_13  and  C_14 
ROOT
HETATM    1  C   UNL     1      10.124  29.966  57.480  1.00  0.00     0.293 C 
HETATM    2  N   UNL     1       9.747  30.719  58.584  1.00  0.00    -0.262 N 
HETATM    3  O   UNL     1      11.278  30.124  57.077  1.00  0.00    -0.264 OA
HETATM    4  H   UNL     1      10.556  31.197  58.982  1.00  0.00     0.190 HD
ENDROOT
BRANCH   1   5
HETATM    5  C   UNL     1       9.167  29.105  56.810  1.00  0.00     0.145 A 
HETATM    6  O   UNL     1       8.851  27.927  57.448  1.00  0.00    -0.307 OA
HETATM    7  C   UNL     1       8.016  27.215  56.645  1.00  0.00     0.078 A 
HETATM    8  C   UNL     1       7.757  27.928  55.495  1.00  0.00     0.038 A 
HETATM    9  C   UNL     1       8.494  29.135  55.601  1.00  0.00     0.045 A 
BRANCH   7  10
HETATM   10  C   UNL     1       7.587  25.885  57.147  1.00  0.00     0.240 C 
BRANCH  10  11
HETATM   11  O   UNL     1       6.598  25.406  56.235  1.00  0.00    -0.345 OA
BRANCH  11  12
HETATM   12  C   UNL     1       6.957  24.369  55.419  1.00  0.00     0.069 A 
HETATM   13  C   UNL     1       6.908  24.367  54.024  1.00  0.00     0.038 A 
HETATM   14  C   UNL     1       7.320  23.236  53.308  1.00  0.00     0.022 A 
HETATM   15  C   UNL     1       7.778  22.109  53.989  1.00  0.00     0.011 A 
HETATM   16  C   UNL     1       7.830  22.102  55.380  1.00  0.00     0.022 A 
HETATM   17 BR   UNL     1       8.333  20.586  53.019  1.00  0.00    -0.051 Br
HETATM   18  C   UNL     1       7.421  23.234  56.090  1.00  0.00     0.038 A 
ENDBRANCH  11  12
ENDBRANCH  10  11
ENDBRANCH   7  10
ENDBRANCH   1   5
BRANCH   2  19
HETATM   19  N   UNL     1       8.818  30.271  59.560  1.00  0.00    -0.274 N 
HETATM   20  H   UNL     1       8.731  29.255  59.622  1.00  0.00     0.189 HD
BRANCH  19  21
HETATM   21  C   UNL     1       7.667  31.002  59.733  1.00  0.00     0.186 C 
HETATM   22  S   UNL     1       6.635  31.477  58.502  1.00  0.00    -0.040 SA
BRANCH  21  23
HETATM   23  N   UNL     1       7.331  31.372  60.996  1.00  0.00    -0.364 N 
HETATM   24  H   UNL     1       7.820  30.829  61.702  1.00  0.00     0.162 HD
BRANCH  23  25
HETATM   25  C   UNL     1       6.279  32.260  61.482  1.00  0.00     0.154 C 
BRANCH  25  26
HETATM   26  C   UNL     1       6.758  33.307  62.497  1.00  0.00     0.139 C 
HETATM   27  O   UNL     1       5.625  33.754  63.281  1.00  0.00    -0.384 OA
HETATM   28  C   UNL     1       5.900  33.477  64.663  1.00  0.00     0.168 C 
HETATM   29  C   UNL     1       7.404  33.432  64.775  1.00  0.00     0.029 C 
HETATM   30  C   UNL     1       7.780  32.752  63.483  1.00  0.00     0.035 C 
ENDBRANCH  25  26
ENDBRANCH  23  25
ENDBRANCH  21  23
ENDBRANCH  19  21
ENDBRANCH   2  19
TORSDOF 9
ENDMDL
MODEL 2
REMARK VINA RESULT:      -8.6      2.102      2.576
REMARK  9 active torsions:
REMARK  status: ('A' for Active; 'I' for Inactive)
REMARK    1  A    between atoms: C_2  and  O_3 
REMARK    2  A    between atoms: O_3  and  C_4 
REMARK    3  A    between atoms: C_4  and  C_5 
REMARK    4  A    between atoms: C_7  and  C_8 
REMARK       I    between atoms: C_8  and  N_9 
REMARK    5  A    between atoms: N_9  and  N_10 
REMARK    6  A    between atoms: N_10  and  C_11 
REMARK    7  A    between atoms: C_11  and  N_12 
REMARK    8  A    between atoms: N_12  and  C_13 
REMARK    9  A    between atoms: C_13  and  C_14 
ROOT
HETATM    1  C   UNL     1       6.034  31.062  57.821  1.00  0.00     0.293 C 
HETATM    2  N   UNL     1       6.632  31.168  59.070  1.00  0.00    -0.262 N 
HETATM    3  O   UNL     1       5.746  32.121  57.260  1.00  0.00    -0.264 OA
HETATM    4  H   UNL     1       6.871  32.140  59.269  1.00  0.00     0.190 HD
ENDROOT
BRANCH   1   5
HETATM    5  C   UNL     1       5.706  29.763  57.265  1.00  0.00     0.145 A 
HETATM    6  O   UNL     1       6.699  28.811  57.305  1.00  0.00    -0.307 OA
HETATM    7  C   UNL     1       6.249  27.694  56.672  1.00  0.00     0.078 A 
HETATM    8  C   UNL     1       4.957  27.894  56.239  1.00  0.00     0.038 A 
HETATM    9  C   UNL     1       4.611  29.216  56.618  1.00  0.00     0.045 A 
BRANCH   7  10
HETATM   10  C   UNL     1       7.200  26.557  56.577  1.00  0.00     0.240 C 
BRANCH  10  11
HETATM   11  O   UNL     1       7.389  26.301  55.185  1.00  0.00    -0.345 OA
BRANCH  11  12
HETATM   12  C   UNL     1       7.542  24.996  54.808  1.00  0.00     0.069 A 
HETATM   13  C   UNL     1       7.542  23.890  55.659  1.00  0.00     0.038 A 
HETATM   14  C   UNL     1       7.697  22.600  55.135  1.00  0.00     0.022 A 
HETATM   15  C   UNL     1       7.851  22.421  53.761  1.00  0.00     0.011 A 
HETATM   16  C   UNL     1       7.853  23.517  52.905  1.00  0.00     0.022 A 
HETATM   17 BR   UNL     1       8.057  20.679  53.059  1.00  0.00    -0.051 Br
HETATM   18  C   UNL     1       7.696  24.802  53.432  1.00  0.00     0.038 A 
ENDBRANCH  11  12
ENDBRANCH  10  11
ENDBRANCH   7  10
ENDBRANCH   1   5
BRANCH   2  19
HETATM   19  N   UNL     1       7.584  30.238  59.565  1.00  0.00    -0.274 N 
HETATM   20  H   UNL     1       7.217  29.597  60.272  1.00  0.00     0.189 HD
BRANCH  19  21
HETATM   21  C   UNL     1       8.877  30.672  59.736  1.00  0.00     0.186 C 
HETATM   22  S   UNL     1       9.891  31.179  58.504  1.00  0.00    -0.040 SA
BRANCH  21  23
HETATM   23  N   UNL     1       9.380  30.694  60.997  1.00  0.00    -0.364 N 
HETATM   24  H   UNL     1      10.354  30.410  61.031  1.00  0.00     0.162 HD
BRANCH  23  25
HETATM   25  C   UNL     1       8.717  30.870  62.287  1.00  0.00     0.154 C 
BRANCH  25  26
HETATM   26  C   UNL     1       7.899  32.163  62.403  1.00  0.00     0.139 C 
HETATM   27  O   UNL     1       6.518  31.877  62.073  1.00  0.00    -0.384 OA
HETATM   28  C   UNL     1       5.707  32.224  63.206  1.00  0.00     0.168 C 
HETATM   29  C   UNL     1       6.494  33.263  63.966  1.00  0.00     0.029 C 
HETATM   30  C   UNL     1       7.901  32.741  63.814  1.00  0.00     0.035 C 
ENDBRANCH  25  26
ENDBRANCH  23  25
ENDBRANCH  21  23
ENDBRANCH  19  21
ENDBRANCH   2  19
TORSDOF 9
ENDMDL
MODEL 3
REMARK VINA RESULT:      -8.4      4.583      9.923
REMARK  9 active torsions:
REMARK  status: ('A' for Active; 'I' for Inactive)
REMARK    1  A    between atoms: C_2  and  O_3 
REMARK    2  A    between atoms: O_3  and  C_4 
REMARK    3  A    between atoms: C_4  and  C_5 
REMARK    4  A    between atoms: C_7  and  C_8 
REMARK       I    between atoms: C_8  and  N_9 
REMARK    5  A    between atoms: N_9  and  N_10 
REMARK    6  A    between atoms: N_10  and  C_11 
REMARK    7  A    between atoms: C_11  and  N_12 
REMARK    8  A    between atoms: N_12  and  C_13 
REMARK    9  A    between atoms: C_13  and  C_14 
ROOT
HETATM    1  C   UNL     1       5.799  26.447  57.004  1.00  0.00     0.293 C 
HETATM    2  N   UNL     1       4.540  26.702  56.475  1.00  0.00    -0.262 N 
HETATM    3  O   UNL     1       6.034  25.279  57.320  1.00  0.00    -0.264 OA
HETATM    4  H   UNL     1       4.044  25.827  56.300  1.00  0.00     0.190 HD
ENDROOT
BRANCH   1   5
HETATM    5  C   UNL     1       6.739  27.528  57.233  1.00  0.00     0.145 A 
HETATM    6  O   UNL     1       6.202  28.730  57.634  1.00  0.00    -0.307 OA
HETATM    7  C   UNL     1       7.209  29.642  57.719  1.00  0.00     0.078 A 
HETATM    8  C   UNL     1       8.407  29.042  57.403  1.00  0.00     0.038 A 
HETATM    9  C   UNL     1       8.106  27.691  57.092  1.00  0.00     0.045 A 
BRANCH   7  10
HETATM   10  C   UNL     1       6.822  31.023  58.106  1.00  0.00     0.240 C 
BRANCH  10  11
HETATM   11  O   UNL     1       7.987  31.629  58.665  1.00  0.00    -0.345 OA
BRANCH  11  12
HETATM   12  C   UNL     1       7.941  31.959  59.991  1.00  0.00     0.069 A 
HETATM   13  C   UNL     1       9.001  31.881  60.895  1.00  0.00     0.038 A 
HETATM   14  C   UNL     1       8.817  32.265  62.229  1.00  0.00     0.022 A 
HETATM   15  C   UNL     1       7.573  32.726  62.656  1.00  0.00     0.011 A 
HETATM   16  C   UNL     1       6.509  32.807  61.762  1.00  0.00     0.022 A 
HETATM   17 BR   UNL     1       7.330  33.245  64.456  1.00  0.00    -0.051 Br
HETATM   18  C   UNL     1       6.698  32.425  60.431  1.00  0.00     0.038 A 
ENDBRANCH  11  12
ENDBRANCH  10  11
ENDBRANCH   7  10
ENDBRANCH   1   5
BRANCH   2  19
HETATM   19  N   UNL     1       4.287  27.702  55.501  1.00  0.00    -0.274 N 
HETATM   20  H   UNL     1       3.368  28.142  55.579  1.00  0.00     0.189 HD
BRANCH  19  21
HETATM   21  C   UNL     1       4.767  27.496  54.229  1.00  0.00     0.186 C 
HETATM   22  S   UNL     1       5.947  28.424  53.485  1.00  0.00    -0.040 SA
BRANCH  21  23
HETATM   23  N   UNL     1       4.251  26.464  53.513  1.00  0.00    -0.364 N 
HETATM   24  H   UNL     1       3.283  26.622  53.248  1.00  0.00     0.162 HD
BRANCH  23  25
HETATM   25  C   UNL     1       4.784  25.133  53.237  1.00  0.00     0.154 C 
BRANCH  25  26
HETATM   26  C   UNL     1       6.282  24.983  53.529  1.00  0.00     0.139 C 
HETATM   27  O   UNL     1       6.475  23.870  54.437  1.00  0.00    -0.384 OA
HETATM   28  C   UNL     1       7.333  22.913  53.798  1.00  0.00     0.168 C 
HETATM   29  C   UNL     1       8.134  23.698  52.788  1.00  0.00     0.029 C 
HETATM   30  C   UNL     1       7.102  24.673  52.281  1.00  0.00     0.035 C 
ENDBRANCH  25  26
ENDBRANCH  23  25
ENDBRANCH  21  23
ENDBRANCH  19  21
ENDBRANCH   2  19
TORSDOF 9
ENDMDL
MODEL 4
REMARK VINA RESULT:      -8.3      1.809      2.339
REMARK  9 active torsions:
REMARK  status: ('A' for Active; 'I' for Inactive)
REMARK    1  A    between atoms: C_2  and  O_3 
REMARK    2  A    between atoms: O_3  and  C_4 
REMARK    3  A    between atoms: C_4  and  C_5 
REMARK    4  A    between atoms: C_7  and  C_8 
REMARK       I    between atoms: C_8  and  N_9 
REMARK    5  A    between atoms: N_9  and  N_10 
REMARK    6  A    between atoms: N_10  and  C_11 
REMARK    7  A    between atoms: C_11  and  N_12 
REMARK    8  A    between atoms: N_12  and  C_13 
REMARK    9  A    between atoms: C_13  and  C_14 
ROOT
HETATM    1  C   UNL     1       8.677  31.726  59.252  1.00  0.00     0.293 C 
HETATM    2  N   UNL     1       7.398  32.245  59.407  1.00  0.00    -0.262 N 
HETATM    3  O   UNL     1       9.583  32.318  59.842  1.00  0.00    -0.264 OA
HETATM    4  H   UNL     1       7.395  32.977  60.119  1.00  0.00     0.190 HD
ENDROOT
BRANCH   1   5
HETATM    5  C   UNL     1       8.915  30.595  58.375  1.00  0.00     0.145 A 
HETATM    6  O   UNL     1       7.998  29.571  58.435  1.00  0.00    -0.307 OA
HETATM    7  C   UNL     1       8.422  28.569  57.618  1.00  0.00     0.078 A 
HETATM    8  C   UNL     1       9.595  28.937  57.000  1.00  0.00     0.038 A 
HETATM    9  C   UNL     1       9.911  30.232  57.485  1.00  0.00     0.045 A 
BRANCH   7  10
HETATM   10  C   UNL     1       7.576  27.348  57.573  1.00  0.00     0.240 C 
BRANCH  10  11
HETATM   11  O   UNL     1       7.638  26.861  56.232  1.00  0.00    -0.345 OA
BRANCH  11  12
HETATM   12  C   UNL     1       7.665  25.505  56.064  1.00  0.00     0.069 A 
HETATM   13  C   UNL     1       7.105  24.797  55.000  1.00  0.00     0.038 A 
HETATM   14  C   UNL     1       7.218  23.402  54.946  1.00  0.00     0.022 A 
HETATM   15  C   UNL     1       7.892  22.719  55.956  1.00  0.00     0.011 A 
HETATM   16  C   UNL     1       8.454  23.415  57.022  1.00  0.00     0.022 A 
HETATM   17 BR   UNL     1       8.044  20.837  55.878  1.00  0.00    -0.051 Br
HETATM   18  C   UNL     1       8.341  24.807  57.071  1.00  0.00     0.038 A 
ENDBRANCH  11  12
ENDBRANCH  10  11
ENDBRANCH   7  10
ENDBRANCH   1   5
BRANCH   2  19
HETATM   19  N   UNL     1       6.223  31.449  59.407  1.00  0.00    -0.274 N 
HETATM   20  H   UNL     1       6.217  30.708  58.703  1.00  0.00     0.189 HD
BRANCH  19  21
HETATM   21  C   UNL     1       5.024  32.074  59.657  1.00  0.00     0.186 C 
HETATM   22  S   UNL     1       4.122  32.913  58.522  1.00  0.00    -0.040 SA
BRANCH  21  23
HETATM   23  N   UNL     1       4.524  32.012  60.918  1.00  0.00    -0.364 N 
HETATM   24  H   UNL     1       3.797  31.310  61.013  1.00  0.00     0.162 HD
BRANCH  23  25
HETATM   25  C   UNL     1       4.722  32.892  62.067  1.00  0.00     0.154 C 
BRANCH  25  26
HETATM   26  C   UNL     1       5.655  32.321  63.143  1.00  0.00     0.139 C 
HETATM   27  O   UNL     1       6.827  31.761  62.500  1.00  0.00    -0.384 OA
HETATM   28  C   UNL     1       7.984  32.439  63.011  1.00  0.00     0.168 C 
HETATM   29  C   UNL     1       7.583  32.961  64.369  1.00  0.00     0.029 C 
HETATM   30  C   UNL     1       6.157  33.383  64.117  1.00  0.00     0.035 C 
ENDBRANCH  25  26
ENDBRANCH  23  25
ENDBRANCH  21  23
ENDBRANCH  19  21
ENDBRANCH   2  19
TORSDOF 9
ENDMDL
MODEL 5
REMARK VINA RESULT:      -8.3      4.869     10.447
REMARK  9 active torsions:
REMARK  status: ('A' for Active; 'I' for Inactive)
REMARK    1  A    between atoms: C_2  and  O_3 
REMARK    2  A    between atoms: O_3  and  C_4 
REMARK    3  A    between atoms: C_4  and  C_5 
REMARK    4  A    between atoms: C_7  and  C_8 
REMARK       I    between atoms: C_8  and  N_9 
REMARK    5  A    between atoms: N_9  and  N_10 
REMARK    6  A    between atoms: N_10  and  C_11 
REMARK    7  A    between atoms: C_11  and  N_12 
REMARK    8  A    between atoms: N_12  and  C_13 
REMARK    9  A    between atoms: C_13  and  C_14 
ROOT
HETATM    1  C   UNL     1       5.399  26.324  56.659  1.00  0.00     0.293 C 
HETATM    2  N   UNL     1       5.094  26.270  55.306  1.00  0.00    -0.262 N 
HETATM    3  O   UNL     1       4.787  25.542  57.390  1.00  0.00    -0.264 OA
HETATM    4  H   UNL     1       4.491  25.471  55.108  1.00  0.00     0.190 HD
ENDROOT
BRANCH   1   5
HETATM    5  C   UNL     1       6.334  27.309  57.170  1.00  0.00     0.145 A 
HETATM    6  O   UNL     1       5.836  28.574  57.380  1.00  0.00    -0.307 OA
HETATM    7  C   UNL     1       6.860  29.378  57.774  1.00  0.00     0.078 A 
HETATM    8  C   UNL     1       8.023  28.645  57.851  1.00  0.00     0.038 A 
HETATM    9  C   UNL     1       7.686  27.323  57.464  1.00  0.00     0.045 A 
BRANCH   7  10
HETATM   10  C   UNL     1       6.527  30.806  58.017  1.00  0.00     0.240 C 
BRANCH  10  11
HETATM   11  O   UNL     1       7.728  31.430  58.471  1.00  0.00    -0.345 OA
BRANCH  11  12
HETATM   12  C   UNL     1       7.782  31.787  59.790  1.00  0.00     0.069 A 
HETATM   13  C   UNL     1       8.886  31.654  60.632  1.00  0.00     0.038 A 
HETATM   14  C   UNL     1       8.808  32.074  61.966  1.00  0.00     0.022 A 
HETATM   15  C   UNL     1       7.625  32.627  62.453  1.00  0.00     0.011 A 
HETATM   16  C   UNL     1       6.518  32.764  61.621  1.00  0.00     0.022 A 
HETATM   17 BR   UNL     1       7.525  33.194  64.253  1.00  0.00    -0.051 Br
HETATM   18  C   UNL     1       6.602  32.345  60.290  1.00  0.00     0.038 A 
ENDBRANCH  11  12
ENDBRANCH  10  11
ENDBRANCH   7  10
ENDBRANCH   1   5
BRANCH   2  19
HETATM   19  N   UNL     1       6.037  26.538  54.278  1.00  0.00    -0.274 N 
HETATM   20  H   UNL     1       6.028  27.502  53.940  1.00  0.00     0.189 HD
BRANCH  19  21
HETATM   21  C   UNL     1       6.261  25.556  53.342  1.00  0.00     0.186 C 
HETATM   22  S   UNL     1       6.134  25.761  51.684  1.00  0.00    -0.040 SA
BRANCH  21  23
HETATM   23  N   UNL     1       6.614  24.322  53.785  1.00  0.00    -0.364 N 
HETATM   24  H   UNL     1       5.904  23.622  53.591  1.00  0.00     0.162 HD
BRANCH  23  25
HETATM   25  C   UNL     1       7.723  23.893  54.633  1.00  0.00     0.154 C 
BRANCH  25  26
HETATM   26  C   UNL     1       8.535  22.722  54.064  1.00  0.00     0.139 C 
HETATM   27  O   UNL     1       8.769  21.757  55.118  1.00  0.00    -0.384 OA
HETATM   28  C   UNL     1       8.204  20.502  54.709  1.00  0.00     0.168 C 
HETATM   29  C   UNL     1       8.175  20.542  53.201  1.00  0.00     0.029 C 
HETATM   30  C   UNL     1       7.804  21.982  52.948  1.00  0.00     0.035 C 
ENDBRANCH  25  26
ENDBRANCH  23  25
ENDBRANCH  21  23
ENDBRANCH  19  21
ENDBRANCH   2  19
TORSDOF 9
ENDMDL
MODEL 6
REMARK VINA RESULT:      -8.3      1.941      2.231
REMARK  9 active torsions:
REMARK  status: ('A' for Active; 'I' for Inactive)
REMARK    1  A    between atoms: C_2  and  O_3 
REMARK    2  A    between atoms: O_3  and  C_4 
REMARK    3  A    between atoms: C_4  and  C_5 
REMARK    4  A    between atoms: C_7  and  C_8 
REMARK       I    between atoms: C_8  and  N_9 
REMARK    5  A    between atoms: N_9  and  N_10 
REMARK    6  A    between atoms: N_10  and  C_11 
REMARK    7  A    between atoms: C_11  and  N_12 
REMARK    8  A    between atoms: N_12  and  C_13 
REMARK    9  A    between atoms: C_13  and  C_14 
ROOT
HETATM    1  C   UNL     1       6.137  31.161  57.928  1.00  0.00     0.293 C 
HETATM    2  N   UNL     1       6.576  31.414  59.221  1.00  0.00    -0.262 N 
HETATM    3  O   UNL     1       5.864  32.147  57.240  1.00  0.00    -0.264 OA
HETATM    4  H   UNL     1       6.738  32.413  59.353  1.00  0.00     0.190 HD
ENDROOT
BRANCH   1   5
HETATM    5  C   UNL     1       5.945  29.800  57.464  1.00  0.00     0.145 A 
HETATM    6  O   UNL     1       7.083  29.045  57.296  1.00  0.00    -0.307 OA
HETATM    7  C   UNL     1       6.725  27.838  56.781  1.00  0.00     0.078 A 
HETATM    8  C   UNL     1       5.357  27.783  56.635  1.00  0.00     0.038 A 
HETATM    9  C   UNL     1       4.859  29.037  57.071  1.00  0.00     0.045 A 
BRANCH   7  10
HETATM   10  C   UNL     1       7.828  26.886  56.492  1.00  0.00     0.240 C 
BRANCH  10  11
HETATM   11  O   UNL     1       7.367  25.596  56.895  1.00  0.00    -0.345 OA
BRANCH  11  12
HETATM   12  C   UNL     1       7.478  24.584  55.983  1.00  0.00     0.069 A 
HETATM   13  C   UNL     1       7.145  24.658  54.630  1.00  0.00     0.038 A 
HETATM   14  C   UNL     1       7.321  23.542  53.801  1.00  0.00     0.022 A 
HETATM   15  C   UNL     1       7.830  22.356  54.328  1.00  0.00     0.011 A 
HETATM   16  C   UNL     1       8.164  22.273  55.676  1.00  0.00     0.022 A 
HETATM   17 BR   UNL     1       8.067  20.855  53.206  1.00  0.00    -0.051 Br
HETATM   18  C   UNL     1       7.988  23.389  56.499  1.00  0.00     0.038 A 
ENDBRANCH  11  12
ENDBRANCH  10  11
ENDBRANCH   7  10
ENDBRANCH   1   5
BRANCH   2  19
HETATM   19  N   UNL     1       7.508  30.593  59.908  1.00  0.00    -0.274 N 
HETATM   20  H   UNL     1       7.301  29.593  59.863  1.00  0.00     0.189 HD
BRANCH  19  21
HETATM   21  C   UNL     1       8.030  31.064  61.089  1.00  0.00     0.186 C 
HETATM   22  S   UNL     1       9.523  31.807  61.252  1.00  0.00    -0.040 SA
BRANCH  21  23
HETATM   23  N   UNL     1       7.287  30.920  62.217  1.00  0.00    -0.364 N 
HETATM   24  H   UNL     1       7.518  30.074  62.728  1.00  0.00     0.162 HD
BRANCH  23  25
HETATM   25  C   UNL     1       6.120  31.659  62.692  1.00  0.00     0.154 C 
BRANCH  25  26
HETATM   26  C   UNL     1       6.448  33.033  63.292  1.00  0.00     0.139 C 
HETATM   27  O   UNL     1       5.278  33.534  63.984  1.00  0.00    -0.384 OA
HETATM   28  C   UNL     1       5.631  33.754  65.358  1.00  0.00     0.168 C 
HETATM   29  C   UNL     1       7.125  33.969  65.363  1.00  0.00     0.029 C 
HETATM   30  C   UNL     1       7.573  32.978  64.320  1.00  0.00     0.035 C 
ENDBRANCH  25  26
ENDBRANCH  23  25
ENDBRANCH  21  23
ENDBRANCH  19  21
ENDBRANCH   2  19
TORSDOF 9
ENDMDL
MODEL 7
REMARK VINA RESULT:      -8.0      2.834      4.729
REMARK  9 active torsions:
REMARK  status: ('A' for Active; 'I' for Inactive)
REMARK    1  A    between atoms: C_2  and  O_3 
REMARK    2  A    between atoms: O_3  and  C_4 
REMARK    3  A    between atoms: C_4  and  C_5 
REMARK    4  A    between atoms: C_7  and  C_8 
REMARK       I    between atoms: C_8  and  N_9 
REMARK    5  A    between atoms: N_9  and  N_10 
REMARK    6  A    between atoms: N_10  and  C_11 
REMARK    7  A    between atoms: C_11  and  N_12 
REMARK    8  A    between atoms: N_12  and  C_13 
REMARK    9  A    between atoms: C_13  and  C_14 
ROOT
HETATM    1  C   UNL     1       3.222  30.419  56.487  1.00  0.00     0.293 C 
HETATM    2  N   UNL     1       3.527  30.591  57.831  1.00  0.00    -0.262 N 
HETATM    3  O   UNL     1       2.257  31.055  56.058  1.00  0.00    -0.264 OA
HETATM    4  H   UNL     1       2.968  31.346  58.229  1.00  0.00     0.190 HD
ENDROOT
BRANCH   1   5
HETATM    5  C   UNL     1       3.967  29.477  55.673  1.00  0.00     0.145 A 
HETATM    6  O   UNL     1       4.424  28.346  56.310  1.00  0.00    -0.307 OA
HETATM    7  C   UNL     1       5.165  27.626  55.425  1.00  0.00     0.078 A 
HETATM    8  C   UNL     1       5.176  28.260  54.203  1.00  0.00     0.038 A 
HETATM    9  C   UNL     1       4.410  29.443  54.362  1.00  0.00     0.045 A 
BRANCH   7  10
HETATM   10  C   UNL     1       5.781  26.375  55.939  1.00  0.00     0.240 C 
BRANCH  10  11
HETATM   11  O   UNL     1       6.970  26.166  55.177  1.00  0.00    -0.345 OA
BRANCH  11  12
HETATM   12  C   UNL     1       7.250  24.882  54.801  1.00  0.00     0.069 A 
HETATM   13  C   UNL     1       7.364  23.783  55.653  1.00  0.00     0.038 A 
HETATM   14  C   UNL     1       7.642  22.514  55.130  1.00  0.00     0.022 A 
HETATM   15  C   UNL     1       7.806  22.347  53.756  1.00  0.00     0.011 A 
HETATM   16  C   UNL     1       7.695  23.437  52.898  1.00  0.00     0.022 A 
HETATM   17 BR   UNL     1       8.180  20.633  53.056  1.00  0.00    -0.051 Br
HETATM   18  C   UNL     1       7.414  24.701  53.424  1.00  0.00     0.038 A 
ENDBRANCH  11  12
ENDBRANCH  10  11
ENDBRANCH   7  10
ENDBRANCH   1   5
BRANCH   2  19
HETATM   19  N   UNL     1       4.846  30.527  58.350  1.00  0.00    -0.274 N 
HETATM   20  H   UNL     1       4.995  29.777  59.028  1.00  0.00     0.189 HD
BRANCH  19  21
HETATM   21  C   UNL     1       5.501  31.712  58.585  1.00  0.00     0.186 C 
HETATM   22  S   UNL     1       4.759  33.203  58.762  1.00  0.00    -0.040 SA
BRANCH  21  23
HETATM   23  N   UNL     1       6.856  31.683  58.683  1.00  0.00    -0.364 N 
HETATM   24  H   UNL     1       7.313  31.960  57.820  1.00  0.00     0.162 HD
BRANCH  23  25
HETATM   25  C   UNL     1       7.726  31.153  59.730  1.00  0.00     0.154 C 
BRANCH  25  26
HETATM   26  C   UNL     1       8.779  30.157  59.227  1.00  0.00     0.139 C 
HETATM   27  O   UNL     1       8.106  28.992  58.689  1.00  0.00    -0.384 OA
HETATM   28  C   UNL     1       8.493  28.847  57.315  1.00  0.00     0.168 C 
HETATM   29  C   UNL     1       9.832  29.533  57.195  1.00  0.00     0.029 C 
HETATM   30  C   UNL     1       9.640  30.722  58.102  1.00  0.00     0.035 C 
ENDBRANCH  25  26
ENDBRANCH  23  25
ENDBRANCH  21  23
ENDBRANCH  19  21
ENDBRANCH   2  19
TORSDOF 9
ENDMDL
MODEL 8
REMARK VINA RESULT:      -8.0      4.441      9.683
REMARK  9 active torsions:
REMARK  status: ('A' for Active; 'I' for Inactive)
REMARK    1  A    between atoms: C_2  and  O_3 
REMARK    2  A    between atoms: O_3  and  C_4 
REMARK    3  A    between atoms: C_4  and  C_5 
REMARK    4  A    between atoms: C_7  and  C_8 
REMARK       I    between atoms: C_8  and  N_9 
REMARK    5  A    between atoms: N_9  and  N_10 
REMARK    6  A    between atoms: N_10  and  C_11 
REMARK    7  A    between atoms: C_11  and  N_12 
REMARK    8  A    between atoms: N_12  and  C_13 
REMARK    9  A    between atoms: C_13  and  C_14 
ROOT
HETATM    1  C   UNL     1       7.561  27.648  57.613  1.00  0.00     0.293 C 
HETATM    2  N   UNL     1       6.283  27.884  57.124  1.00  0.00    -0.262 N 
HETATM    3  O   UNL     1       7.791  26.505  58.014  1.00  0.00    -0.264 OA
HETATM    4  H   UNL     1       5.764  27.009  57.045  1.00  0.00     0.190 HD
ENDROOT
BRANCH   1   5
HETATM    5  C   UNL     1       8.528  28.725  57.707  1.00  0.00     0.145 A 
HETATM    6  O   UNL     1       8.428  29.542  58.810  1.00  0.00    -0.307 OA
HETATM    7  C   UNL     1       9.350  30.536  58.692  1.00  0.00     0.078 A 
HETATM    8  C   UNL     1      10.074  30.363  57.534  1.00  0.00     0.038 A 
HETATM    9  C   UNL     1       9.548  29.206  56.904  1.00  0.00     0.045 A 
BRANCH   7  10
HETATM   10  C   UNL     1       9.374  31.550  59.777  1.00  0.00     0.240 C 
BRANCH  10  11
HETATM   11  O   UNL     1       8.044  32.058  59.887  1.00  0.00    -0.345 OA
BRANCH  11  12
HETATM   12  C   UNL     1       7.655  32.519  61.113  1.00  0.00     0.069 A 
HETATM   13  C   UNL     1       6.544  33.323  61.374  1.00  0.00     0.038 A 
HETATM   14  C   UNL     1       6.252  33.714  62.687  1.00  0.00     0.022 A 
HETATM   15  C   UNL     1       7.072  33.300  63.736  1.00  0.00     0.011 A 
HETATM   16  C   UNL     1       8.182  32.499  63.485  1.00  0.00     0.022 A 
HETATM   17 BR   UNL     1       6.673  33.829  65.505  1.00  0.00    -0.051 Br
HETATM   18  C   UNL     1       8.468  32.109  62.174  1.00  0.00     0.038 A 
ENDBRANCH  11  12
ENDBRANCH  10  11
ENDBRANCH   7  10
ENDBRANCH   1   5
BRANCH   2  19
HETATM   19  N   UNL     1       5.999  28.806  56.082  1.00  0.00    -0.274 N 
HETATM   20  H   UNL     1       6.542  29.670  56.126  1.00  0.00     0.189 HD
BRANCH  19  21
HETATM   21  C   UNL     1       4.696  28.915  55.659  1.00  0.00     0.186 C 
HETATM   22  S   UNL     1       3.679  30.201  56.001  1.00  0.00    -0.040 SA
BRANCH  21  23
HETATM   23  N   UNL     1       4.185  27.909  54.904  1.00  0.00    -0.364 N 
HETATM   24  H   UNL     1       3.760  27.178  55.468  1.00  0.00     0.162 HD
BRANCH  23  25
HETATM   25  C   UNL     1       4.313  27.626  53.477  1.00  0.00     0.154 C 
BRANCH  25  26
HETATM   26  C   UNL     1       5.457  26.665  53.126  1.00  0.00     0.139 C 
HETATM   27  O   UNL     1       6.297  26.490  54.293  1.00  0.00    -0.384 OA
HETATM   28  C   UNL     1       6.313  25.094  54.627  1.00  0.00     0.168 C 
HETATM   29  C   UNL     1       5.998  24.366  53.343  1.00  0.00     0.029 C 
HETATM   30  C   UNL     1       4.964  25.277  52.730  1.00  0.00     0.035 C 
ENDBRANCH  25  26
ENDBRANCH  23  25
ENDBRANCH  21  23
ENDBRANCH  19  21
ENDBRANCH   2  19
TORSDOF 9
ENDMDL
MODEL 9
REMARK VINA RESULT:      -7.9      4.725     10.347
REMARK  9 active torsions:
REMARK  status: ('A' for Active; 'I' for Inactive)
REMARK    1  A    between atoms: C_2  and  O_3 
REMARK    2  A    between atoms: O_3  and  C_4 
REMARK    3  A    between atoms: C_4  and  C_5 
REMARK    4  A    between atoms: C_7  and  C_8 
REMARK       I    between atoms: C_8  and  N_9 
REMARK    5  A    between atoms: N_9  and  N_10 
REMARK    6  A    between atoms: N_10  and  C_11 
REMARK    7  A    between atoms: C_11  and  N_12 
REMARK    8  A    between atoms: N_12  and  C_13 
REMARK    9  A    between atoms: C_13  and  C_14 
ROOT
HETATM    1  C   UNL     1       7.604  26.220  57.583  1.00  0.00     0.293 C 
HETATM    2  N   UNL     1       7.345  25.398  56.494  1.00  0.00    -0.262 N 
HETATM    3  O   UNL     1       8.000  25.663  58.609  1.00  0.00    -0.264 OA
HETATM    4  H   UNL     1       7.666  24.447  56.682  1.00  0.00     0.190 HD
ENDROOT
BRANCH   1   5
HETATM    5  C   UNL     1       7.340  27.645  57.514  1.00  0.00     0.145 A 
HETATM    6  O   UNL     1       8.220  28.464  58.184  1.00  0.00    -0.307 OA
HETATM    7  C   UNL     1       7.775  29.745  58.083  1.00  0.00     0.078 A 
HETATM    8  C   UNL     1       6.624  29.780  57.328  1.00  0.00     0.038 A 
HETATM    9  C   UNL     1       6.346  28.437  56.965  1.00  0.00     0.045 A 
BRANCH   7  10
HETATM   10  C   UNL     1       8.578  30.783  58.779  1.00  0.00     0.240 C 
BRANCH  10  11
HETATM   11  O   UNL     1       7.710  31.898  58.985  1.00  0.00    -0.345 OA
BRANCH  11  12
HETATM   12  C   UNL     1       7.507  32.297  60.276  1.00  0.00     0.069 A 
HETATM   13  C   UNL     1       6.425  33.043  60.745  1.00  0.00     0.038 A 
HETATM   14  C   UNL     1       6.336  33.374  62.103  1.00  0.00     0.022 A 
HETATM   15  C   UNL     1       7.329  32.958  62.988  1.00  0.00     0.011 A 
HETATM   16  C   UNL     1       8.411  32.214  62.530  1.00  0.00     0.022 A 
HETATM   17 BR   UNL     1       7.202  33.406  64.820  1.00  0.00    -0.051 Br
HETATM   18  C   UNL     1       8.496  31.884  61.175  1.00  0.00     0.038 A 
ENDBRANCH  11  12
ENDBRANCH  10  11
ENDBRANCH   7  10
ENDBRANCH   1   5
BRANCH   2  19
HETATM   19  N   UNL     1       7.527  25.801  55.145  1.00  0.00    -0.274 N 
HETATM   20  H   UNL     1       7.909  26.743  55.036  1.00  0.00     0.189 HD
BRANCH  19  21
HETATM   21  C   UNL     1       6.587  25.405  54.224  1.00  0.00     0.186 C 
HETATM   22  S   UNL     1       5.267  26.318  53.744  1.00  0.00    -0.040 SA
BRANCH  21  23
HETATM   23  N   UNL     1       6.730  24.181  53.654  1.00  0.00    -0.364 N 
HETATM   24  H   UNL     1       5.872  23.852  53.221  1.00  0.00     0.162 HD
BRANCH  23  25
HETATM   25  C   UNL     1       7.823  23.215  53.728  1.00  0.00     0.154 C 
BRANCH  25  26
HETATM   26  C   UNL     1       7.626  22.123  54.789  1.00  0.00     0.139 C 
HETATM   27  O   UNL     1       7.711  20.826  54.149  1.00  0.00    -0.384 OA
HETATM   28  C   UNL     1       8.781  20.093  54.764  1.00  0.00     0.168 C 
HETATM   29  C   UNL     1       8.936  20.683  56.144  1.00  0.00     0.029 C 
HETATM   30  C   UNL     1       8.701  22.147  55.871  1.00  0.00     0.035 C 
ENDBRANCH  25  26
ENDBRANCH  23  25
ENDBRANCH  21  23
ENDBRANCH  19  21
ENDBRANCH   2  19
TORSDOF 9
ENDMDL
MODEL 10
REMARK VINA RESULT:      -7.9      4.271      9.889
REMARK  9 active torsions:
REMARK  status: ('A' for Active; 'I' for Inactive)
REMARK    1  A    between atoms: C_2  and  O_3 
REMARK    2  A    between atoms: O_3  and  C_4 
REMARK    3  A    between atoms: C_4  and  C_5 
REMARK    4  A    between atoms: C_7  and  C_8 
REMARK       I    between atoms: C_8  and  N_9 
REMARK    5  A    between atoms: N_9  and  N_10 
REMARK    6  A    between atoms: N_10  and  C_11 
REMARK    7  A    between atoms: C_11  and  N_12 
REMARK    8  A    between atoms: N_12  and  C_13 
REMARK    9  A    between atoms: C_13  and  C_14 
ROOT
HETATM    1  C   UNL     1      10.048  29.670  57.272  1.00  0.00     0.293 C 
HETATM    2  N   UNL     1       9.220  28.573  57.078  1.00  0.00    -0.262 N 
HETATM    3  O   UNL     1      10.978  29.803  56.473  1.00  0.00    -0.264 OA
HETATM    4  H   UNL     1       9.440  28.112  56.194  1.00  0.00     0.190 HD
ENDROOT
BRANCH   1   5
HETATM    5  C   UNL     1       9.853  30.554  58.406  1.00  0.00     0.145 A 
HETATM    6  O   UNL     1       9.257  30.001  59.516  1.00  0.00    -0.307 OA
HETATM    7  C   UNL     1       9.079  30.983  60.441  1.00  0.00     0.078 A 
HETATM    8  C   UNL     1       9.578  32.172  59.958  1.00  0.00     0.038 A 
HETATM    9  C   UNL     1      10.072  31.897  58.657  1.00  0.00     0.045 A 
BRANCH   7  10
HETATM   10  C   UNL     1       8.410  30.589  61.707  1.00  0.00     0.240 C 
BRANCH  10  11
HETATM   11  O   UNL     1       8.620  31.660  62.628  1.00  0.00    -0.345 OA
BRANCH  11  12
HETATM   12  C   UNL     1       7.508  32.234  63.177  1.00  0.00     0.069 A 
HETATM   13  C   UNL     1       6.189  32.016  62.779  1.00  0.00     0.038 A 
HETATM   14  C   UNL     1       5.138  32.663  63.441  1.00  0.00     0.022 A 
HETATM   15  C   UNL     1       5.410  33.528  64.500  1.00  0.00     0.011 A 
HETATM   16  C   UNL     1       6.722  33.753  64.904  1.00  0.00     0.022 A 
HETATM   17 BR   UNL     1       3.989  34.398  65.390  1.00  0.00    -0.051 Br
HETATM   18  C   UNL     1       7.768  33.103  64.242  1.00  0.00     0.038 A 
ENDBRANCH  11  12
ENDBRANCH  10  11
ENDBRANCH   7  10
ENDBRANCH   1   5
BRANCH   2  19
HETATM   19  N   UNL     1       7.835  28.570  57.389  1.00  0.00    -0.274 N 
HETATM   20  H   UNL     1       7.525  27.756  57.924  1.00  0.00     0.189 HD
BRANCH  19  21
HETATM   21  C   UNL     1       6.963  29.055  56.442  1.00  0.00     0.186 C 
HETATM   22  S   UNL     1       5.463  29.725  56.770  1.00  0.00    -0.040 SA
BRANCH  21  23
HETATM   23  N   UNL     1       7.338  28.990  55.139  1.00  0.00    -0.364 N 
HETATM   24  H   UNL     1       7.874  29.802  54.848  1.00  0.00     0.162 HD
BRANCH  23  25
HETATM   25  C   UNL     1       6.945  28.066  54.078  1.00  0.00     0.154 C 
BRANCH  25  26
HETATM   26  C   UNL     1       7.311  26.601  54.351  1.00  0.00     0.139 C 
HETATM   27  O   UNL     1       6.140  25.910  54.850  1.00  0.00    -0.384 OA
HETATM   28  C   UNL     1       5.849  24.822  53.959  1.00  0.00     0.168 C 
HETATM   29  C   UNL     1       7.159  24.486  53.288  1.00  0.00     0.029 C 
HETATM   30  C   UNL     1       7.756  25.857  53.096  1.00  0.00     0.035 C 
ENDBRANCH  25  26
ENDBRANCH  23  25
ENDBRANCH  21  23
ENDBRANCH  19  21
ENDBRANCH   2  19
TORSDOF 9
ENDMDL
