MODEL 1
REMARK VINA RESULT:      -8.9      0.000      0.000
REMARK  3 active torsions:
REMARK  status: ('A' for Active; 'I' for Inactive)
REMARK    1  A    between atoms: C_3  and  N_4 
REMARK       I    between atoms: N_4  and  C_5 
REMARK    2  A    between atoms: C_5  and  C_6 
REMARK    3  A    between atoms: C_7  and  C_8 
ROOT
HETATM    1  C   UNL     1       6.261  26.297  52.992  1.00  0.00     0.063 A 
HETATM    2  C   UNL     1       6.452  27.449  53.972  1.00  0.00     0.216 A 
HETATM    3  N   UNL     1       5.281  28.317  54.013  1.00  0.00    -0.091 N 
HETATM    4  C   UNL     1       4.192  28.183  53.198  1.00  0.00     0.735 A 
HETATM    5  N   UNL     1       4.146  27.157  52.327  1.00  0.00    -0.191 N 
HETATM    6  N   UNL     1       5.172  29.436  54.748  1.00  0.00     0.012 NA
HETATM    7  N   UNL     1       3.984  29.936  54.420  1.00  0.00     0.033 NA
HETATM    8  N   UNL     1       3.365  29.166  53.454  1.00  0.00     0.030 NA
HETATM    9  C   UNL     1       5.147  26.196  52.225  1.00  0.00     0.037 A 
HETATM   10  C   UNL     1       4.897  25.094  51.224  1.00  0.00     0.070 C 
HETATM   11  H   UNL     1       3.321  27.040  51.742  1.00  0.00     0.184 HD
ENDROOT
BRANCH   1  12
HETATM   12  C   UNL     1       7.278  25.207  52.998  1.00  0.00     0.256 C 
HETATM   13  N   UNL     1       6.862  24.069  53.651  1.00  0.00    -0.323 N 
HETATM   14  H   UNL     1       5.936  24.073  54.050  1.00  0.00     0.169 HD
HETATM   15  O   UNL     1       8.355  25.404  52.447  1.00  0.00    -0.267 OA
BRANCH  13  16
HETATM   16  C   UNL     1       7.568  22.846  53.791  1.00  0.00     0.041 A 
HETATM   17  C   UNL     1       8.475  22.705  54.866  1.00  0.00    -0.035 A 
HETATM   18  C   UNL     1       8.716  23.799  55.871  1.00  0.00     0.050 C 
HETATM   19  C   UNL     1       9.178  21.496  55.023  1.00  0.00     0.009 A 
HETATM   20  C   UNL     1       8.994  20.440  54.134  1.00  0.00     0.001 A 
HETATM   21  C   UNL     1       8.104  20.579  53.078  1.00  0.00     0.002 A 
HETATM   22  C   UNL     1       7.397  21.773  52.908  1.00  0.00     0.030 A 
ENDBRANCH  13  16
ENDBRANCH   1  12
BRANCH   2  23
HETATM   23  C   UNL     1       6.847  26.990  55.363  1.00  0.00     0.064 A 
HETATM   24  N   UNL     1       5.975  26.142  55.976  1.00  0.00    -0.263 NA
HETATM   25  C   UNL     1       6.260  25.758  57.240  1.00  0.00     0.117 A 
HETATM   26  C   UNL     1       7.376  26.180  57.938  1.00  0.00     0.019 A 
HETATM   27  C   UNL     1       8.255  27.051  57.306  1.00  0.00     0.003 A 
HETATM   28  C   UNL     1       7.990  27.469  56.005  1.00  0.00     0.030 A 
ENDBRANCH   2  23
TORSDOF 3
ENDMDL
MODEL 2
REMARK VINA RESULT:      -8.7      1.557      3.724
REMARK  3 active torsions:
REMARK  status: ('A' for Active; 'I' for Inactive)
REMARK    1  A    between atoms: C_3  and  N_4 
REMARK       I    between atoms: N_4  and  C_5 
REMARK    2  A    between atoms: C_5  and  C_6 
REMARK    3  A    between atoms: C_7  and  C_8 
ROOT
HETATM    1  C   UNL     1       6.734  26.039  55.550  1.00  0.00     0.063 A 
HETATM    2  C   UNL     1       5.423  26.586  54.998  1.00  0.00     0.216 A 
HETATM    3  N   UNL     1       4.980  27.763  55.735  1.00  0.00    -0.091 N 
HETATM    4  C   UNL     1       5.601  28.254  56.850  1.00  0.00     0.735 A 
HETATM    5  N   UNL     1       6.729  27.663  57.287  1.00  0.00    -0.191 N 
HETATM    6  N   UNL     1       3.839  28.434  55.509  1.00  0.00     0.012 NA
HETATM    7  N   UNL     1       3.812  29.372  56.452  1.00  0.00     0.033 NA
HETATM    8  N   UNL     1       4.901  29.269  57.294  1.00  0.00     0.030 NA
HETATM    9  C   UNL     1       7.324  26.582  56.644  1.00  0.00     0.037 A 
HETATM   10  C   UNL     1       8.611  26.085  57.256  1.00  0.00     0.070 C 
HETATM   11  H   UNL     1       7.207  28.048  58.099  1.00  0.00     0.184 HD
ENDROOT
BRANCH   1  12
HETATM   12  C   UNL     1       7.424  24.973  54.768  1.00  0.00     0.256 C 
HETATM   13  N   UNL     1       7.176  23.701  55.233  1.00  0.00    -0.323 N 
HETATM   14  H   UNL     1       6.566  23.608  56.031  1.00  0.00     0.169 HD
HETATM   15  O   UNL     1       8.127  25.301  53.819  1.00  0.00    -0.267 OA
BRANCH  13  16
HETATM   16  C   UNL     1       7.637  22.477  54.686  1.00  0.00     0.041 A 
HETATM   17  C   UNL     1       8.198  21.513  55.555  1.00  0.00    -0.035 A 
HETATM   18  C   UNL     1       8.320  21.734  57.039  1.00  0.00     0.050 C 
HETATM   19  C   UNL     1       8.654  20.290  55.030  1.00  0.00     0.009 A 
HETATM   20  C   UNL     1       8.562  20.017  53.667  1.00  0.00     0.001 A 
HETATM   21  C   UNL     1       8.011  20.963  52.814  1.00  0.00     0.002 A 
HETATM   22  C   UNL     1       7.553  22.183  53.320  1.00  0.00     0.030 A 
ENDBRANCH  13  16
ENDBRANCH   1  12
BRANCH   2  23
HETATM   23  C   UNL     1       5.469  26.855  53.505  1.00  0.00     0.064 A 
HETATM   24  N   UNL     1       5.943  28.078  53.140  1.00  0.00    -0.263 NA
HETATM   25  C   UNL     1       5.944  28.381  51.823  1.00  0.00     0.117 A 
HETATM   26  C   UNL     1       5.489  27.525  50.838  1.00  0.00     0.019 A 
HETATM   27  C   UNL     1       5.000  26.283  51.222  1.00  0.00     0.003 A 
HETATM   28  C   UNL     1       4.983  25.940  52.571  1.00  0.00     0.030 A 
ENDBRANCH   2  23
TORSDOF 3
ENDMDL
MODEL 3
REMARK VINA RESULT:      -8.5      3.803      5.818
REMARK  3 active torsions:
REMARK  status: ('A' for Active; 'I' for Inactive)
REMARK    1  A    between atoms: C_3  and  N_4 
REMARK       I    between atoms: N_4  and  C_5 
REMARK    2  A    between atoms: C_5  and  C_6 
REMARK    3  A    between atoms: C_7  and  C_8 
ROOT
HETATM    1  C   UNL     1       8.485  29.419  57.311  1.00  0.00     0.063 A 
HETATM    2  C   UNL     1       7.287  29.901  58.121  1.00  0.00     0.216 A 
HETATM    3  N   UNL     1       7.627  31.055  58.946  1.00  0.00    -0.091 N 
HETATM    4  C   UNL     1       8.885  31.575  59.064  1.00  0.00     0.735 A 
HETATM    5  N   UNL     1       9.888  31.040  58.341  1.00  0.00    -0.191 N 
HETATM    6  N   UNL     1       6.792  31.669  59.799  1.00  0.00     0.012 NA
HETATM    7  N   UNL     1       7.538  32.605  60.380  1.00  0.00     0.033 NA
HETATM    8  N   UNL     1       8.844  32.554  59.933  1.00  0.00     0.030 NA
HETATM    9  C   UNL     1       9.708  29.990  57.446  1.00  0.00     0.037 A 
HETATM   10  C   UNL     1      10.941  29.556  56.690  1.00  0.00     0.070 C 
HETATM   11  H   UNL     1      10.818  31.448  58.406  1.00  0.00     0.184 HD
ENDROOT
BRANCH   1  12
HETATM   12  C   UNL     1       8.242  28.388  56.261  1.00  0.00     0.256 C 
HETATM   13  N   UNL     1       7.882  27.160  56.768  1.00  0.00    -0.323 N 
HETATM   14  H   UNL     1       7.813  27.072  57.770  1.00  0.00     0.169 HD
HETATM   15  O   UNL     1       8.378  28.703  55.085  1.00  0.00    -0.267 OA
BRANCH  13  16
HETATM   16  C   UNL     1       7.537  25.993  56.040  1.00  0.00     0.041 A 
HETATM   17  C   UNL     1       8.111  24.759  56.423  1.00  0.00    -0.035 A 
HETATM   18  C   UNL     1       9.071  24.636  57.576  1.00  0.00     0.050 C 
HETATM   19  C   UNL     1       7.775  23.590  55.715  1.00  0.00     0.009 A 
HETATM   20  C   UNL     1       6.885  23.633  54.644  1.00  0.00     0.001 A 
HETATM   21  C   UNL     1       6.321  24.845  54.268  1.00  0.00     0.002 A 
HETATM   22  C   UNL     1       6.645  26.015  54.961  1.00  0.00     0.030 A 
ENDBRANCH  13  16
ENDBRANCH   1  12
BRANCH   2  23
HETATM   23  C   UNL     1       6.061  30.173  57.270  1.00  0.00     0.064 A 
HETATM   24  N   UNL     1       6.083  31.332  56.556  1.00  0.00    -0.263 NA
HETATM   25  C   UNL     1       4.984  31.641  55.832  1.00  0.00     0.117 A 
HETATM   26  C   UNL     1       3.849  30.853  55.784  1.00  0.00     0.019 A 
HETATM   27  C   UNL     1       3.834  29.677  56.524  1.00  0.00     0.003 A 
HETATM   28  C   UNL     1       4.948  29.330  57.282  1.00  0.00     0.030 A 
ENDBRANCH   2  23
TORSDOF 3
ENDMDL
MODEL 4
REMARK VINA RESULT:      -8.4      1.678      4.015
REMARK  3 active torsions:
REMARK  status: ('A' for Active; 'I' for Inactive)
REMARK    1  A    between atoms: C_3  and  N_4 
REMARK       I    between atoms: N_4  and  C_5 
REMARK    2  A    between atoms: C_5  and  C_6 
REMARK    3  A    between atoms: C_7  and  C_8 
ROOT
HETATM    1  C   UNL     1       6.484  27.940  54.549  1.00  0.00     0.063 A 
HETATM    2  C   UNL     1       5.142  28.170  53.864  1.00  0.00     0.216 A 
HETATM    3  N   UNL     1       4.545  29.438  54.267  1.00  0.00    -0.091 N 
HETATM    4  C   UNL     1       5.065  30.268  55.220  1.00  0.00     0.735 A 
HETATM    5  N   UNL     1       6.235  29.944  55.805  1.00  0.00    -0.191 N 
HETATM    6  N   UNL     1       3.346  29.891  53.866  1.00  0.00     0.012 NA
HETATM    7  N   UNL     1       3.181  31.030  54.532  1.00  0.00     0.033 NA
HETATM    8  N   UNL     1       4.243  31.274  55.381  1.00  0.00     0.030 NA
HETATM    9  C   UNL     1       6.969  28.810  55.470  1.00  0.00     0.037 A 
HETATM   10  C   UNL     1       8.280  28.640  56.199  1.00  0.00     0.070 C 
HETATM   11  H   UNL     1       6.637  30.578  56.492  1.00  0.00     0.184 HD
ENDROOT
BRANCH   1  12
HETATM   12  C   UNL     1       7.316  26.796  54.077  1.00  0.00     0.256 C 
HETATM   13  N   UNL     1       6.984  25.595  54.662  1.00  0.00    -0.323 N 
HETATM   14  H   UNL     1       6.230  25.596  55.332  1.00  0.00     0.169 HD
HETATM   15  O   UNL     1       8.190  27.008  53.245  1.00  0.00    -0.267 OA
BRANCH  13  16
HETATM   16  C   UNL     1       7.546  24.320  54.396  1.00  0.00     0.041 A 
HETATM   17  C   UNL     1       8.373  23.724  55.376  1.00  0.00    -0.035 A 
HETATM   18  C   UNL     1       8.675  24.388  56.692  1.00  0.00     0.050 C 
HETATM   19  C   UNL     1       8.933  22.457  55.130  1.00  0.00     0.009 A 
HETATM   20  C   UNL     1       8.685  21.784  53.937  1.00  0.00     0.001 A 
HETATM   21  C   UNL     1       7.874  22.369  52.974  1.00  0.00     0.002 A 
HETATM   22  C   UNL     1       7.309  23.627  53.203  1.00  0.00     0.030 A 
ENDBRANCH  13  16
ENDBRANCH   1  12
BRANCH   2  23
HETATM   23  C   UNL     1       5.214  28.050  52.353  1.00  0.00     0.064 A 
HETATM   24  N   UNL     1       5.592  29.176  51.689  1.00  0.00    -0.263 NA
HETATM   25  C   UNL     1       5.610  29.129  50.338  1.00  0.00     0.117 A 
HETATM   26  C   UNL     1       5.263  28.010  49.604  1.00  0.00     0.019 A 
HETATM   27  C   UNL     1       4.871  26.869  50.292  1.00  0.00     0.003 A 
HETATM   28  C   UNL     1       4.839  26.884  51.683  1.00  0.00     0.030 A 
ENDBRANCH   2  23
TORSDOF 3
ENDMDL
MODEL 5
REMARK VINA RESULT:      -8.4      7.265      9.744
REMARK  3 active torsions:
REMARK  status: ('A' for Active; 'I' for Inactive)
REMARK    1  A    between atoms: C_3  and  N_4 
REMARK       I    between atoms: N_4  and  C_5 
REMARK    2  A    between atoms: C_5  and  C_6 
REMARK    3  A    between atoms: C_7  and  C_8 
ROOT
HETATM    1  C   UNL     1       7.203  31.917  61.230  1.00  0.00     0.063 A 
HETATM    2  C   UNL     1       5.783  32.056  61.766  1.00  0.00     0.216 A 
HETATM    3  N   UNL     1       5.774  32.570  63.131  1.00  0.00    -0.091 N 
HETATM    4  C   UNL     1       6.896  32.796  63.878  1.00  0.00     0.735 A 
HETATM    5  N   UNL     1       8.106  32.591  63.324  1.00  0.00    -0.191 N 
HETATM    6  N   UNL     1       4.676  32.756  63.881  1.00  0.00     0.012 NA
HETATM    7  N   UNL     1       5.141  33.159  65.060  1.00  0.00     0.033 NA
HETATM    8  N   UNL     1       6.521  33.185  65.072  1.00  0.00     0.030 NA
HETATM    9  C   UNL     1       8.283  32.181  62.006  1.00  0.00     0.037 A 
HETATM   10  C   UNL     1       9.716  32.050  61.549  1.00  0.00     0.070 C 
HETATM   11  H   UNL     1       8.941  32.789  63.871  1.00  0.00     0.184 HD
ENDROOT
BRANCH   1  12
HETATM   12  C   UNL     1       7.368  31.612  59.780  1.00  0.00     0.256 C 
HETATM   13  N   UNL     1       7.572  30.275  59.518  1.00  0.00    -0.323 N 
HETATM   14  H   UNL     1       7.587  29.644  60.304  1.00  0.00     0.169 HD
HETATM   15  O   UNL     1       7.314  32.534  58.975  1.00  0.00    -0.267 OA
BRANCH  13  16
HETATM   16  C   UNL     1       7.715  29.656  58.250  1.00  0.00     0.041 A 
HETATM   17  C   UNL     1       8.962  29.742  57.589  1.00  0.00    -0.035 A 
HETATM   18  C   UNL     1      10.144  30.461  58.181  1.00  0.00     0.050 C 
HETATM   19  C   UNL     1       9.123  29.128  56.333  1.00  0.00     0.009 A 
HETATM   20  C   UNL     1       8.072  28.438  55.734  1.00  0.00     0.001 A 
HETATM   21  C   UNL     1       6.847  28.354  56.383  1.00  0.00     0.002 A 
HETATM   22  C   UNL     1       6.671  28.959  57.631  1.00  0.00     0.030 A 
ENDBRANCH  13  16
ENDBRANCH   1  12
BRANCH   2  23
HETATM   23  C   UNL     1       4.881  32.876  60.862  1.00  0.00     0.064 A 
HETATM   24  N   UNL     1       5.034  34.226  60.942  1.00  0.00    -0.263 NA
HETATM   25  C   UNL     1       4.207  34.994  60.198  1.00  0.00     0.117 A 
HETATM   26  C   UNL     1       3.221  34.485  59.373  1.00  0.00     0.019 A 
HETATM   27  C   UNL     1       3.068  33.106  59.306  1.00  0.00     0.003 A 
HETATM   28  C   UNL     1       3.901  32.286  60.061  1.00  0.00     0.030 A 
ENDBRANCH   2  23
TORSDOF 3
ENDMDL
MODEL 6
REMARK VINA RESULT:      -8.3      1.963      4.115
REMARK  3 active torsions:
REMARK  status: ('A' for Active; 'I' for Inactive)
REMARK    1  A    between atoms: C_3  and  N_4 
REMARK       I    between atoms: N_4  and  C_5 
REMARK    2  A    between atoms: C_5  and  C_6 
REMARK    3  A    between atoms: C_7  and  C_8 
ROOT
HETATM    1  C   UNL     1       6.588  26.403  56.591  1.00  0.00     0.063 A 
HETATM    2  C   UNL     1       5.717  27.595  56.212  1.00  0.00     0.216 A 
HETATM    3  N   UNL     1       6.196  28.827  56.830  1.00  0.00    -0.091 N 
HETATM    4  C   UNL     1       7.228  28.892  57.723  1.00  0.00     0.735 A 
HETATM    5  N   UNL     1       7.901  27.767  58.031  1.00  0.00    -0.191 N 
HETATM    6  N   UNL     1       5.607  30.028  56.717  1.00  0.00     0.012 NA
HETATM    7  N   UNL     1       6.332  30.829  57.493  1.00  0.00     0.033 NA
HETATM    8  N   UNL     1       7.342  30.132  58.128  1.00  0.00     0.030 NA
HETATM    9  C   UNL     1       7.620  26.528  57.463  1.00  0.00     0.037 A 
HETATM   10  C   UNL     1       8.514  25.391  57.897  1.00  0.00     0.070 C 
HETATM   11  H   UNL     1       8.689  27.821  58.673  1.00  0.00     0.184 HD
ENDROOT
BRANCH   1  12
HETATM   12  C   UNL     1       6.358  25.120  55.869  1.00  0.00     0.256 C 
HETATM   13  N   UNL     1       7.519  24.494  55.474  1.00  0.00    -0.323 N 
HETATM   14  H   UNL     1       8.392  24.942  55.705  1.00  0.00     0.169 HD
HETATM   15  O   UNL     1       5.206  24.743  55.691  1.00  0.00    -0.267 OA
BRANCH  13  16
HETATM   16  C   UNL     1       7.645  23.244  54.815  1.00  0.00     0.041 A 
HETATM   17  C   UNL     1       7.784  23.228  53.409  1.00  0.00    -0.035 A 
HETATM   18  C   UNL     1       7.810  24.487  52.584  1.00  0.00     0.050 C 
HETATM   19  C   UNL     1       7.918  21.997  52.740  1.00  0.00     0.009 A 
HETATM   20  C   UNL     1       7.912  20.796  53.445  1.00  0.00     0.001 A 
HETATM   21  C   UNL     1       7.774  20.811  54.826  1.00  0.00     0.002 A 
HETATM   22  C   UNL     1       7.641  22.026  55.506  1.00  0.00     0.030 A 
ENDBRANCH  13  16
ENDBRANCH   1  12
BRANCH   2  23
HETATM   23  C   UNL     1       5.549  27.759  54.713  1.00  0.00     0.064 A 
HETATM   24  N   UNL     1       4.266  27.740  54.257  1.00  0.00    -0.263 NA
HETATM   25  C   UNL     1       4.076  27.822  52.922  1.00  0.00     0.117 A 
HETATM   26  C   UNL     1       5.105  27.919  52.004  1.00  0.00     0.019 A 
HETATM   27  C   UNL     1       6.410  27.929  52.479  1.00  0.00     0.003 A 
HETATM   28  C   UNL     1       6.642  27.844  53.849  1.00  0.00     0.030 A 
ENDBRANCH   2  23
TORSDOF 3
ENDMDL
MODEL 7
REMARK VINA RESULT:      -8.2      2.726      5.962
REMARK  3 active torsions:
REMARK  status: ('A' for Active; 'I' for Inactive)
REMARK    1  A    between atoms: C_3  and  N_4 
REMARK       I    between atoms: N_4  and  C_5 
REMARK    2  A    between atoms: C_5  and  C_6 
REMARK    3  A    between atoms: C_7  and  C_8 
ROOT
HETATM    1  C   UNL     1       5.328  28.915  53.219  1.00  0.00     0.063 A 
HETATM    2  C   UNL     1       6.415  28.125  53.937  1.00  0.00     0.216 A 
HETATM    3  N   UNL     1       6.239  28.165  55.384  1.00  0.00    -0.091 N 
HETATM    4  C   UNL     1       5.286  28.905  56.025  1.00  0.00     0.735 A 
HETATM    5  N   UNL     1       4.402  29.612  55.295  1.00  0.00    -0.191 N 
HETATM    6  N   UNL     1       7.065  27.601  56.280  1.00  0.00     0.012 NA
HETATM    7  N   UNL     1       6.563  27.949  57.462  1.00  0.00     0.033 NA
HETATM    8  N   UNL     1       5.458  28.764  57.316  1.00  0.00     0.030 NA
HETATM    9  C   UNL     1       4.387  29.612  53.904  1.00  0.00     0.037 A 
HETATM   10  C   UNL     1       3.292  30.427  53.261  1.00  0.00     0.070 C 
HETATM   11  H   UNL     1       3.674  30.139  55.773  1.00  0.00     0.184 HD
ENDROOT
BRANCH   1  12
HETATM   12  C   UNL     1       5.246  28.790  51.735  1.00  0.00     0.256 C 
HETATM   13  N   UNL     1       4.327  27.856  51.311  1.00  0.00    -0.323 N 
HETATM   14  H   UNL     1       3.806  27.361  52.018  1.00  0.00     0.169 HD
HETATM   15  O   UNL     1       5.973  29.494  51.044  1.00  0.00    -0.267 OA
BRANCH  13  16
HETATM   16  C   UNL     1       3.977  27.535  49.974  1.00  0.00     0.041 A 
HETATM   17  C   UNL     1       2.819  28.123  49.416  1.00  0.00    -0.035 A 
HETATM   18  C   UNL     1       1.946  29.080  50.184  1.00  0.00     0.050 C 
HETATM   19  C   UNL     1       2.460  27.822  48.090  1.00  0.00     0.009 A 
HETATM   20  C   UNL     1       3.230  26.952  47.320  1.00  0.00     0.001 A 
HETATM   21  C   UNL     1       4.367  26.374  47.869  1.00  0.00     0.002 A 
HETATM   22  C   UNL     1       4.737  26.664  49.185  1.00  0.00     0.030 A 
ENDBRANCH  13  16
ENDBRANCH   1  12
BRANCH   2  23
HETATM   23  C   UNL     1       6.547  26.699  53.437  1.00  0.00     0.064 A 
HETATM   24  N   UNL     1       5.454  25.907  53.614  1.00  0.00    -0.263 NA
HETATM   25  C   UNL     1       5.552  24.613  53.237  1.00  0.00     0.117 A 
HETATM   26  C   UNL     1       6.693  24.056  52.691  1.00  0.00     0.019 A 
HETATM   27  C   UNL     1       7.805  24.871  52.522  1.00  0.00     0.003 A 
HETATM   28  C   UNL     1       7.740  26.208  52.902  1.00  0.00     0.030 A 
ENDBRANCH   2  23
TORSDOF 3
ENDMDL
MODEL 8
REMARK VINA RESULT:      -8.2      2.585      4.751
REMARK  3 active torsions:
REMARK  status: ('A' for Active; 'I' for Inactive)
REMARK    1  A    between atoms: C_3  and  N_4 
REMARK       I    between atoms: N_4  and  C_5 
REMARK    2  A    between atoms: C_5  and  C_6 
REMARK    3  A    between atoms: C_7  and  C_8 
ROOT
HETATM    1  C   UNL     1       6.393  28.796  56.660  1.00  0.00     0.063 A 
HETATM    2  C   UNL     1       4.893  29.045  56.553  1.00  0.00     0.216 A 
HETATM    3  N   UNL     1       4.474  30.167  57.386  1.00  0.00    -0.091 N 
HETATM    4  C   UNL     1       5.299  30.843  58.240  1.00  0.00     0.735 A 
HETATM    5  N   UNL     1       6.603  30.508  58.297  1.00  0.00    -0.191 N 
HETATM    6  N   UNL     1       3.210  30.592  57.532  1.00  0.00     0.012 NA
HETATM    7  N   UNL     1       3.289  31.573  58.427  1.00  0.00     0.033 NA
HETATM    8  N   UNL     1       4.584  31.736  58.878  1.00  0.00     0.030 NA
HETATM    9  C   UNL     1       7.172  29.516  57.505  1.00  0.00     0.037 A 
HETATM   10  C   UNL     1       8.659  29.316  57.676  1.00  0.00     0.070 C 
HETATM   11  H   UNL     1       7.222  31.033  58.911  1.00  0.00     0.184 HD
ENDROOT
BRANCH   1  12
HETATM   12  C   UNL     1       7.004  27.827  55.706  1.00  0.00     0.256 C 
HETATM   13  N   UNL     1       6.660  26.517  55.955  1.00  0.00    -0.323 N 
HETATM   14  H   UNL     1       6.042  26.337  56.732  1.00  0.00     0.169 HD
HETATM   15  O   UNL     1       7.733  28.255  54.819  1.00  0.00    -0.267 OA
BRANCH  13  16
HETATM   16  C   UNL     1       7.031  25.370  55.208  1.00  0.00     0.041 A 
HETATM   17  C   UNL     1       7.994  24.489  55.750  1.00  0.00    -0.035 A 
HETATM   18  C   UNL     1       8.636  24.717  57.092  1.00  0.00     0.050 C 
HETATM   19  C   UNL     1       8.368  23.342  55.025  1.00  0.00     0.009 A 
HETATM   20  C   UNL     1       7.804  23.066  53.782  1.00  0.00     0.001 A 
HETATM   21  C   UNL     1       6.859  23.932  53.249  1.00  0.00     0.002 A 
HETATM   22  C   UNL     1       6.476  25.075  53.957  1.00  0.00     0.030 A 
ENDBRANCH  13  16
ENDBRANCH   1  12
BRANCH   2  23
HETATM   23  C   UNL     1       4.416  29.212  55.122  1.00  0.00     0.064 A 
HETATM   24  N   UNL     1       4.040  28.068  54.487  1.00  0.00    -0.263 NA
HETATM   25  C   UNL     1       3.666  28.165  53.192  1.00  0.00     0.117 A 
HETATM   26  C   UNL     1       3.651  29.352  52.484  1.00  0.00     0.019 A 
HETATM   27  C   UNL     1       4.044  30.513  53.140  1.00  0.00     0.003 A 
HETATM   28  C   UNL     1       4.437  30.447  54.473  1.00  0.00     0.030 A 
ENDBRANCH   2  23
TORSDOF 3
ENDMDL
MODEL 9
REMARK VINA RESULT:      -8.0      1.892      2.549
REMARK  3 active torsions:
REMARK  status: ('A' for Active; 'I' for Inactive)
REMARK    1  A    between atoms: C_3  and  N_4 
REMARK       I    between atoms: N_4  and  C_5 
REMARK    2  A    between atoms: C_5  and  C_6 
REMARK    3  A    between atoms: C_7  and  C_8 
ROOT
HETATM    1  C   UNL     1       5.859  25.750  53.125  1.00  0.00     0.063 A 
HETATM    2  C   UNL     1       6.385  27.171  53.297  1.00  0.00     0.216 A 
HETATM    3  N   UNL     1       5.910  28.050  52.234  1.00  0.00    -0.091 N 
HETATM    4  C   UNL     1       5.176  27.634  51.159  1.00  0.00     0.735 A 
HETATM    5  N   UNL     1       4.806  26.342  51.076  1.00  0.00    -0.191 N 
HETATM    6  N   UNL     1       6.242  29.343  52.094  1.00  0.00     0.012 NA
HETATM    7  N   UNL     1       5.648  29.719  50.965  1.00  0.00     0.033 NA
HETATM    8  N   UNL     1       4.984  28.664  50.372  1.00  0.00     0.030 NA
HETATM    9  C   UNL     1       5.110  25.396  52.051  1.00  0.00     0.037 A 
HETATM   10  C   UNL     1       4.569  24.008  51.807  1.00  0.00     0.070 C 
HETATM   11  H   UNL     1       4.234  26.040  50.291  1.00  0.00     0.184 HD
ENDROOT
BRANCH   1  12
HETATM   12  C   UNL     1       6.078  24.791  54.245  1.00  0.00     0.256 C 
HETATM   13  N   UNL     1       7.138  23.936  54.039  1.00  0.00    -0.323 N 
HETATM   14  H   UNL     1       7.656  24.036  53.180  1.00  0.00     0.169 HD
HETATM   15  O   UNL     1       5.329  24.836  55.214  1.00  0.00    -0.267 OA
BRANCH  13  16
HETATM   16  C   UNL     1       7.635  22.948  54.926  1.00  0.00     0.041 A 
HETATM   17  C   UNL     1       7.935  21.665  54.414  1.00  0.00    -0.035 A 
HETATM   18  C   UNL     1       7.753  21.309  52.963  1.00  0.00     0.050 C 
HETATM   19  C   UNL     1       8.436  20.675  55.280  1.00  0.00     0.009 A 
HETATM   20  C   UNL     1       8.638  20.941  56.632  1.00  0.00     0.001 A 
HETATM   21  C   UNL     1       8.343  22.201  57.135  1.00  0.00     0.002 A 
HETATM   22  C   UNL     1       7.845  23.196  56.288  1.00  0.00     0.030 A 
ENDBRANCH  13  16
ENDBRANCH   1  12
BRANCH   2  23
HETATM   23  C   UNL     1       6.094  27.754  54.667  1.00  0.00     0.064 A 
HETATM   24  N   UNL     1       4.791  28.062  54.913  1.00  0.00    -0.263 NA
HETATM   25  C   UNL     1       4.498  28.640  56.099  1.00  0.00     0.117 A 
HETATM   26  C   UNL     1       5.444  28.936  57.063  1.00  0.00     0.019 A 
HETATM   27  C   UNL     1       6.771  28.625  56.798  1.00  0.00     0.003 A 
HETATM   28  C   UNL     1       7.108  28.032  55.585  1.00  0.00     0.030 A 
ENDBRANCH   2  23
TORSDOF 3
ENDMDL
MODEL 10
REMARK VINA RESULT:      -7.9      2.821      5.785
REMARK  3 active torsions:
REMARK  status: ('A' for Active; 'I' for Inactive)
REMARK    1  A    between atoms: C_3  and  N_4 
REMARK       I    between atoms: N_4  and  C_5 
REMARK    2  A    between atoms: C_5  and  C_6 
REMARK    3  A    between atoms: C_7  and  C_8 
ROOT
HETATM    1  C   UNL     1       5.712  28.590  54.408  1.00  0.00     0.063 A 
HETATM    2  C   UNL     1       7.077  28.008  54.756  1.00  0.00     0.216 A 
HETATM    3  N   UNL     1       7.505  28.408  56.091  1.00  0.00    -0.091 N 
HETATM    4  C   UNL     1       6.824  29.282  56.891  1.00  0.00     0.735 A 
HETATM    5  N   UNL     1       5.648  29.781  56.465  1.00  0.00    -0.191 N 
HETATM    6  N   UNL     1       8.681  28.088  56.655  1.00  0.00     0.012 NA
HETATM    7  N   UNL     1       8.673  28.720  57.825  1.00  0.00     0.033 NA
HETATM    8  N   UNL     1       7.523  29.469  57.983  1.00  0.00     0.030 NA
HETATM    9  C   UNL     1       5.064  29.432  55.251  1.00  0.00     0.037 A 
HETATM   10  C   UNL     1       3.720  30.058  54.967  1.00  0.00     0.070 C 
HETATM   11  H   UNL     1       5.126  30.408  57.074  1.00  0.00     0.184 HD
ENDROOT
BRANCH   1  12
HETATM   12  C   UNL     1       5.045  28.097  53.169  1.00  0.00     0.256 C 
HETATM   13  N   UNL     1       5.723  28.415  52.014  1.00  0.00    -0.323 N 
HETATM   14  H   UNL     1       6.584  28.931  52.106  1.00  0.00     0.169 HD
HETATM   15  O   UNL     1       3.992  27.479  53.274  1.00  0.00    -0.267 OA
BRANCH  13  16
HETATM   16  C   UNL     1       5.383  28.053  50.685  1.00  0.00     0.041 A 
HETATM   17  C   UNL     1       5.410  29.049  49.682  1.00  0.00    -0.035 A 
HETATM   18  C   UNL     1       5.791  30.476  49.968  1.00  0.00     0.050 C 
HETATM   19  C   UNL     1       5.082  28.705  48.358  1.00  0.00     0.009 A 
HETATM   20  C   UNL     1       4.730  27.400  48.023  1.00  0.00     0.001 A 
HETATM   21  C   UNL     1       4.703  26.422  49.008  1.00  0.00     0.002 A 
HETATM   22  C   UNL     1       5.027  26.747  50.329  1.00  0.00     0.030 A 
ENDBRANCH  13  16
ENDBRANCH   1  12
BRANCH   2  23
HETATM   23  C   UNL     1       7.147  26.502  54.582  1.00  0.00     0.064 A 
HETATM   24  N   UNL     1       7.721  26.067  53.427  1.00  0.00    -0.263 NA
HETATM   25  C   UNL     1       7.747  24.734  53.205  1.00  0.00     0.117 A 
HETATM   26  C   UNL     1       7.224  23.800  54.079  1.00  0.00     0.019 A 
HETATM   27  C   UNL     1       6.634  24.255  55.251  1.00  0.00     0.003 A 
HETATM   28  C   UNL     1       6.587  25.622  55.509  1.00  0.00     0.030 A 
ENDBRANCH   2  23
TORSDOF 3
ENDMDL
