MODEL 1
REMARK VINA RESULT:      -8.6      0.000      0.000
REMARK  8 active torsions:
REMARK  status: ('A' for Active; 'I' for Inactive)
REMARK    1  A    between atoms: C_5  and  C_6 
REMARK       I    between atoms: C_6  and  N_7 
REMARK    2  A    between atoms: N_7  and  C_8 
REMARK    3  A    between atoms: C_8  and  N_9 
REMARK    4  A    between atoms: C_8  and  C_25 
REMARK    5  A    between atoms: C_8  and  C_29 
REMARK    6  A    between atoms: N_9  and  C_10 
REMARK    7  A    between atoms: C_20  and  C_21 
REMARK    8  A    between atoms: C_21  and  O_22 
ROOT
HETATM    1  C   UNL     1       6.538  27.498  55.782  1.00  0.00     0.307 C 
ENDROOT
BRANCH   1   2
HETATM    2  N   UNL     1       7.050  28.432  56.804  1.00  0.00    -0.315 N 
HETATM    3  C   UNL     1       8.211  29.138  56.632  1.00  0.00     0.254 C 
HETATM    4  O   UNL     1       8.864  29.096  55.603  1.00  0.00    -0.268 OA
HETATM    5  H   UNL     1       6.699  28.304  57.740  1.00  0.00     0.165 HD
BRANCH   3   6
HETATM    6  C   UNL     1       8.650  29.944  57.795  1.00  0.00     0.032 A 
HETATM    7  C   UNL     1       9.778  30.771  57.715  1.00  0.00     0.017 A 
HETATM    8  C   UNL     1      10.175  31.515  58.827  1.00  0.00     0.007 A 
HETATM    9  C   UNL     1       9.458  31.433  60.028  1.00  0.00    -0.062 A 
HETATM   10  C   UNL     1       9.867  32.251  61.218  1.00  0.00     0.048 C 
HETATM   11  C   UNL     1       8.327  30.608  60.096  1.00  0.00     0.007 A 
HETATM   12  C   UNL     1       7.931  29.855  58.989  1.00  0.00     0.017 A 
ENDBRANCH   3   6
ENDBRANCH   1   2
BRANCH   1  13
HETATM   13  N   UNL     1       7.809  26.718  55.455  1.00  0.00    -0.342 N 
HETATM   14  H   UNL     1       8.609  27.250  55.819  1.00  0.00     0.163 HD
BRANCH  13  15
HETATM   15  C   UNL     1       7.935  25.357  55.519  1.00  0.00     0.089 A 
HETATM   16  S   UNL     1       8.262  24.531  56.988  1.00  0.00    -0.074 SA
HETATM   17  C   UNL     1       8.131  23.008  56.277  1.00  0.00     0.018 A 
HETATM   18  C   UNL     1       7.827  23.080  54.935  1.00  0.00    -0.023 A 
HETATM   19  C   UNL     1       8.291  21.755  57.068  1.00  0.00     0.281 C 
HETATM   20  C   UNL     1       7.659  21.826  54.115  1.00  0.00     0.068 C 
HETATM   21  C   UNL     1       7.733  24.454  54.470  1.00  0.00     0.080 A 
HETATM   22  C   UNL     1       7.496  20.572  54.995  1.00  0.00     0.239 C 
HETATM   23  N   UNL     1       8.480  20.547  56.158  1.00  0.00    -0.070 N 
HETATM   24  H   UNL     1       8.239  19.728  56.729  1.00  0.00     0.279 HD
HETATM   25  C   UNL     1       9.907  20.355  55.735  1.00  0.00     0.270 C 
BRANCH  21  26
HETATM   26  C   UNL     1       7.474  24.827  53.068  1.00  0.00     0.296 C 
HETATM   27  O   UNL     1       8.328  25.345  52.358  1.00  0.00    -0.259 OA
BRANCH  26  28
HETATM   28  O   UNL     1       6.191  24.587  52.667  1.00  0.00    -0.322 OA
HETATM   29  C   UNL     1       5.719  25.462  51.638  1.00  0.00     0.213 C 
ENDBRANCH  26  28
ENDBRANCH  21  26
ENDBRANCH  13  15
ENDBRANCH   1  13
BRANCH   1  30
HETATM   30  C   UNL     1       5.295  26.635  56.169  1.00  0.00     0.441 C 
HETATM   31  F   UNL     1       4.184  27.400  56.337  1.00  0.00    -0.166 F 
HETATM   32  F   UNL     1       4.976  25.679  55.274  1.00  0.00    -0.166 F 
HETATM   33  F   UNL     1       5.498  25.993  57.351  1.00  0.00    -0.166 F 
ENDBRANCH   1  30
BRANCH   1  34
HETATM   34  C   UNL     1       6.058  28.204  54.471  1.00  0.00     0.441 C 
HETATM   35  F   UNL     1       4.970  27.669  53.892  1.00  0.00    -0.166 F 
HETATM   36  F   UNL     1       5.737  29.500  54.772  1.00  0.00    -0.166 F 
HETATM   37  F   UNL     1       7.038  28.271  53.541  1.00  0.00    -0.166 F 
ENDBRANCH   1  34
TORSDOF 8
ENDMDL
MODEL 2
REMARK VINA RESULT:      -8.6      3.206      7.647
REMARK  8 active torsions:
REMARK  status: ('A' for Active; 'I' for Inactive)
REMARK    1  A    between atoms: C_5  and  C_6 
REMARK       I    between atoms: C_6  and  N_7 
REMARK    2  A    between atoms: N_7  and  C_8 
REMARK    3  A    between atoms: C_8  and  N_9 
REMARK    4  A    between atoms: C_8  and  C_25 
REMARK    5  A    between atoms: C_8  and  C_29 
REMARK    6  A    between atoms: N_9  and  C_10 
REMARK    7  A    between atoms: C_20  and  C_21 
REMARK    8  A    between atoms: C_21  and  O_22 
ROOT
HETATM    1  C   UNL     1       7.075  27.356  55.872  1.00  0.00     0.307 C 
ENDROOT
BRANCH   1   2
HETATM    2  N   UNL     1       7.365  26.077  55.192  1.00  0.00    -0.315 N 
HETATM    3  C   UNL     1       6.709  24.917  55.507  1.00  0.00     0.254 C 
HETATM    4  O   UNL     1       5.799  24.872  56.317  1.00  0.00    -0.268 OA
HETATM    5  H   UNL     1       8.256  26.015  54.724  1.00  0.00     0.165 HD
BRANCH   3   6
HETATM    6  C   UNL     1       7.195  23.698  54.818  1.00  0.00     0.032 A 
HETATM    7  C   UNL     1       7.468  22.526  55.534  1.00  0.00     0.017 A 
HETATM    8  C   UNL     1       7.931  21.393  54.863  1.00  0.00     0.007 A 
HETATM    9  C   UNL     1       8.134  21.424  53.477  1.00  0.00    -0.062 A 
HETATM   10  C   UNL     1       8.607  20.199  52.749  1.00  0.00     0.048 C 
HETATM   11  C   UNL     1       7.851  22.600  52.768  1.00  0.00     0.007 A 
HETATM   12  C   UNL     1       7.396  23.738  53.437  1.00  0.00     0.017 A 
ENDBRANCH   3   6
ENDBRANCH   1   2
BRANCH   1  13
HETATM   13  N   UNL     1       5.608  27.545  55.497  1.00  0.00    -0.342 N 
HETATM   14  H   UNL     1       5.115  27.910  56.321  1.00  0.00     0.163 HD
BRANCH  13  15
HETATM   15  C   UNL     1       5.157  28.012  54.293  1.00  0.00     0.089 A 
HETATM   16  S   UNL     1       5.274  27.093  52.848  1.00  0.00    -0.074 SA
HETATM   17  C   UNL     1       4.435  28.236  51.935  1.00  0.00     0.018 A 
HETATM   18  C   UNL     1       4.036  29.319  52.688  1.00  0.00    -0.023 A 
HETATM   19  C   UNL     1       4.144  28.027  50.488  1.00  0.00     0.281 C 
HETATM   20  C   UNL     1       3.264  30.452  52.061  1.00  0.00     0.068 C 
HETATM   21  C   UNL     1       4.476  29.213  54.070  1.00  0.00     0.080 A 
HETATM   22  C   UNL     1       2.692  30.073  50.682  1.00  0.00     0.239 C 
HETATM   23  N   UNL     1       3.702  29.323  49.821  1.00  0.00    -0.070 N 
HETATM   24  H   UNL     1       3.206  29.042  48.966  1.00  0.00     0.279 HD
HETATM   25  C   UNL     1       4.857  30.170  49.373  1.00  0.00     0.270 C 
BRANCH  21  26
HETATM   26  C   UNL     1       4.238  30.254  55.086  1.00  0.00     0.296 C 
HETATM   27  O   UNL     1       4.594  31.415  54.931  1.00  0.00    -0.259 OA
BRANCH  26  28
HETATM   28  O   UNL     1       3.636  29.784  56.219  1.00  0.00    -0.322 OA
HETATM   29  C   UNL     1       4.207  30.271  57.437  1.00  0.00     0.213 C 
ENDBRANCH  26  28
ENDBRANCH  21  26
ENDBRANCH  13  15
ENDBRANCH   1  13
BRANCH   1  30
HETATM   30  C   UNL     1       7.400  27.438  57.397  1.00  0.00     0.441 C 
HETATM   31  F   UNL     1       8.395  26.580  57.747  1.00  0.00    -0.166 F 
HETATM   32  F   UNL     1       7.774  28.660  57.825  1.00  0.00    -0.166 F 
HETATM   33  F   UNL     1       6.317  27.091  58.144  1.00  0.00    -0.166 F 
ENDBRANCH   1  30
BRANCH   1  34
HETATM   34  C   UNL     1       7.878  28.568  55.295  1.00  0.00     0.441 C 
HETATM   35  F   UNL     1       7.360  29.780  55.558  1.00  0.00    -0.166 F 
HETATM   36  F   UNL     1       9.131  28.556  55.844  1.00  0.00    -0.166 F 
HETATM   37  F   UNL     1       8.058  28.470  53.957  1.00  0.00    -0.166 F 
ENDBRANCH   1  34
TORSDOF 8
ENDMDL
MODEL 3
REMARK VINA RESULT:      -8.1      3.483      7.443
REMARK  8 active torsions:
REMARK  status: ('A' for Active; 'I' for Inactive)
REMARK    1  A    between atoms: C_5  and  C_6 
REMARK       I    between atoms: C_6  and  N_7 
REMARK    2  A    between atoms: N_7  and  C_8 
REMARK    3  A    between atoms: C_8  and  N_9 
REMARK    4  A    between atoms: C_8  and  C_25 
REMARK    5  A    between atoms: C_8  and  C_29 
REMARK    6  A    between atoms: N_9  and  C_10 
REMARK    7  A    between atoms: C_20  and  C_21 
REMARK    8  A    between atoms: C_21  and  O_22 
ROOT
HETATM    1  C   UNL     1       5.756  28.313  54.675  1.00  0.00     0.307 C 
ENDROOT
BRANCH   1   2
HETATM    2  N   UNL     1       6.129  26.886  54.718  1.00  0.00    -0.315 N 
HETATM    3  C   UNL     1       7.321  26.426  54.224  1.00  0.00     0.254 C 
HETATM    4  O   UNL     1       8.181  27.168  53.778  1.00  0.00    -0.268 OA
HETATM    5  H   UNL     1       5.370  26.231  54.830  1.00  0.00     0.165 HD
BRANCH   3   6
HETATM    6  C   UNL     1       7.496  24.955  54.235  1.00  0.00     0.032 A 
HETATM    7  C   UNL     1       7.200  24.202  55.378  1.00  0.00     0.017 A 
HETATM    8  C   UNL     1       7.380  22.818  55.365  1.00  0.00     0.007 A 
HETATM    9  C   UNL     1       7.867  22.177  54.218  1.00  0.00    -0.062 A 
HETATM   10  C   UNL     1       8.038  20.686  54.193  1.00  0.00     0.048 C 
HETATM   11  C   UNL     1       8.154  22.939  53.077  1.00  0.00     0.007 A 
HETATM   12  C   UNL     1       7.983  24.324  53.088  1.00  0.00     0.017 A 
ENDBRANCH   3   6
ENDBRANCH   1   2
BRANCH   1  13
HETATM   13  N   UNL     1       6.259  28.692  53.284  1.00  0.00    -0.342 N 
HETATM   14  H   UNL     1       7.126  28.169  53.108  1.00  0.00     0.163 HD
BRANCH  13  15
HETATM   15  C   UNL     1       5.465  28.892  52.188  1.00  0.00     0.089 A 
HETATM   16  S   UNL     1       4.951  30.454  51.698  1.00  0.00    -0.074 SA
HETATM   17  C   UNL     1       4.196  29.878  50.305  1.00  0.00     0.018 A 
HETATM   18  C   UNL     1       4.322  28.512  50.166  1.00  0.00    -0.023 A 
HETATM   19  C   UNL     1       3.519  30.793  49.342  1.00  0.00     0.281 C 
HETATM   20  C   UNL     1       3.722  27.800  48.981  1.00  0.00     0.068 C 
HETATM   21  C   UNL     1       5.044  27.917  51.278  1.00  0.00     0.080 A 
HETATM   22  C   UNL     1       3.331  28.773  47.853  1.00  0.00     0.239 C 
HETATM   23  N   UNL     1       2.628  30.019  48.378  1.00  0.00    -0.070 N 
HETATM   24  H   UNL     1       2.487  30.638  47.571  1.00  0.00     0.279 HD
HETATM   25  C   UNL     1       1.263  29.747  48.939  1.00  0.00     0.270 C 
BRANCH  21  26
HETATM   26  C   UNL     1       5.278  26.468  51.419  1.00  0.00     0.296 C 
HETATM   27  O   UNL     1       6.013  25.847  50.661  1.00  0.00    -0.259 OA
BRANCH  26  28
HETATM   28  O   UNL     1       4.563  25.894  52.430  1.00  0.00    -0.322 OA
HETATM   29  C   UNL     1       4.547  24.463  52.406  1.00  0.00     0.213 C 
ENDBRANCH  26  28
ENDBRANCH  21  26
ENDBRANCH  13  15
ENDBRANCH   1  13
BRANCH   1  30
HETATM   30  C   UNL     1       4.265  28.667  54.974  1.00  0.00     0.441 C 
HETATM   31  F   UNL     1       3.898  28.284  56.226  1.00  0.00    -0.166 F 
HETATM   32  F   UNL     1       3.967  29.977  54.866  1.00  0.00    -0.166 F 
HETATM   33  F   UNL     1       3.430  28.017  54.118  1.00  0.00    -0.166 F 
ENDBRANCH   1  30
BRANCH   1  34
HETATM   34  C   UNL     1       6.522  29.193  55.717  1.00  0.00     0.441 C 
HETATM   35  F   UNL     1       7.820  29.410  55.446  1.00  0.00    -0.166 F 
HETATM   36  F   UNL     1       5.926  30.424  55.764  1.00  0.00    -0.166 F 
HETATM   37  F   UNL     1       6.433  28.691  56.971  1.00  0.00    -0.166 F 
ENDBRANCH   1  34
TORSDOF 8
ENDMDL
MODEL 4
REMARK VINA RESULT:      -8.1      3.234      7.875
REMARK  8 active torsions:
REMARK  status: ('A' for Active; 'I' for Inactive)
REMARK    1  A    between atoms: C_5  and  C_6 
REMARK       I    between atoms: C_6  and  N_7 
REMARK    2  A    between atoms: N_7  and  C_8 
REMARK    3  A    between atoms: C_8  and  N_9 
REMARK    4  A    between atoms: C_8  and  C_25 
REMARK    5  A    between atoms: C_8  and  C_29 
REMARK    6  A    between atoms: N_9  and  C_10 
REMARK    7  A    between atoms: C_20  and  C_21 
REMARK    8  A    between atoms: C_21  and  O_22 
ROOT
HETATM    1  C   UNL     1       7.113  27.430  55.792  1.00  0.00     0.307 C 
ENDROOT
BRANCH   1   2
HETATM    2  N   UNL     1       7.390  26.133  55.143  1.00  0.00    -0.315 N 
HETATM    3  C   UNL     1       6.730  24.985  55.492  1.00  0.00     0.254 C 
HETATM    4  O   UNL     1       5.825  24.966  56.309  1.00  0.00    -0.268 OA
HETATM    5  H   UNL     1       8.277  26.053  54.670  1.00  0.00     0.165 HD
BRANCH   3   6
HETATM    6  C   UNL     1       7.204  23.746  54.831  1.00  0.00     0.032 A 
HETATM    7  C   UNL     1       7.468  22.589  55.574  1.00  0.00     0.017 A 
HETATM    8  C   UNL     1       7.920  21.437  54.929  1.00  0.00     0.007 A 
HETATM    9  C   UNL     1       8.120  21.433  53.542  1.00  0.00    -0.062 A 
HETATM   10  C   UNL     1       8.581  20.188  52.842  1.00  0.00     0.048 C 
HETATM   11  C   UNL     1       7.846  22.594  52.806  1.00  0.00     0.007 A 
HETATM   12  C   UNL     1       7.402  23.752  53.449  1.00  0.00     0.017 A 
ENDBRANCH   3   6
ENDBRANCH   1   2
BRANCH   1  13
HETATM   13  N   UNL     1       5.639  27.611  55.436  1.00  0.00    -0.342 N 
HETATM   14  H   UNL     1       5.101  26.901  55.948  1.00  0.00     0.163 HD
BRANCH  13  15
HETATM   15  C   UNL     1       5.011  28.815  55.273  1.00  0.00     0.089 A 
HETATM   16  S   UNL     1       4.621  29.835  56.597  1.00  0.00    -0.074 SA
HETATM   17  C   UNL     1       4.046  31.071  55.604  1.00  0.00     0.018 A 
HETATM   18  C   UNL     1       4.145  30.758  54.266  1.00  0.00    -0.023 A 
HETATM   19  C   UNL     1       3.540  32.356  56.163  1.00  0.00     0.281 C 
HETATM   20  C   UNL     1       3.691  31.733  53.210  1.00  0.00     0.068 C 
HETATM   21  C   UNL     1       4.687  29.425  54.057  1.00  0.00     0.080 A 
HETATM   22  C   UNL     1       3.491  33.152  53.776  1.00  0.00     0.239 C 
HETATM   23  N   UNL     1       2.765  33.147  55.115  1.00  0.00    -0.070 N 
HETATM   24  H   UNL     1       2.757  34.118  55.449  1.00  0.00     0.279 HD
HETATM   25  C   UNL     1       1.327  32.728  55.017  1.00  0.00     0.270 C 
BRANCH  21  26
HETATM   26  C   UNL     1       4.852  28.808  52.728  1.00  0.00     0.296 C 
HETATM   27  O   UNL     1       5.452  29.365  51.817  1.00  0.00    -0.259 OA
BRANCH  26  28
HETATM   28  O   UNL     1       4.232  27.597  52.607  1.00  0.00    -0.322 OA
HETATM   29  C   UNL     1       5.082  26.541  52.150  1.00  0.00     0.213 C 
ENDBRANCH  26  28
ENDBRANCH  21  26
ENDBRANCH  13  15
ENDBRANCH   1  13
BRANCH   1  30
HETATM   30  C   UNL     1       7.462  27.554  57.309  1.00  0.00     0.441 C 
HETATM   31  F   UNL     1       8.542  26.797  57.640  1.00  0.00    -0.166 F 
HETATM   32  F   UNL     1       7.727  28.809  57.722  1.00  0.00    -0.166 F 
HETATM   33  F   UNL     1       6.435  27.110  58.082  1.00  0.00    -0.166 F 
ENDBRANCH   1  30
BRANCH   1  34
HETATM   34  C   UNL     1       7.907  28.625  55.169  1.00  0.00     0.441 C 
HETATM   35  F   UNL     1       9.209  28.685  55.493  1.00  0.00    -0.166 F 
HETATM   36  F   UNL     1       7.853  28.515  53.806  1.00  0.00    -0.166 F 
HETATM   37  F   UNL     1       7.344  29.820  55.466  1.00  0.00    -0.166 F 
ENDBRANCH   1  34
TORSDOF 8
ENDMDL
MODEL 5
REMARK VINA RESULT:      -8.1      3.420      7.397
REMARK  8 active torsions:
REMARK  status: ('A' for Active; 'I' for Inactive)
REMARK    1  A    between atoms: C_5  and  C_6 
REMARK       I    between atoms: C_6  and  N_7 
REMARK    2  A    between atoms: N_7  and  C_8 
REMARK    3  A    between atoms: C_8  and  N_9 
REMARK    4  A    between atoms: C_8  and  C_25 
REMARK    5  A    between atoms: C_8  and  C_29 
REMARK    6  A    between atoms: N_9  and  C_10 
REMARK    7  A    between atoms: C_20  and  C_21 
REMARK    8  A    between atoms: C_21  and  O_22 
ROOT
HETATM    1  C   UNL     1       6.146  27.892  54.966  1.00  0.00     0.307 C 
ENDROOT
BRANCH   1   2
HETATM    2  N   UNL     1       6.493  26.537  54.494  1.00  0.00    -0.315 N 
HETATM    3  C   UNL     1       6.736  25.503  55.357  1.00  0.00     0.254 C 
HETATM    4  O   UNL     1       6.617  25.609  56.567  1.00  0.00    -0.268 OA
HETATM    5  H   UNL     1       6.848  26.472  53.552  1.00  0.00     0.165 HD
BRANCH   3   6
HETATM    6  C   UNL     1       7.185  24.236  54.732  1.00  0.00     0.032 A 
HETATM    7  C   UNL     1       7.471  24.170  53.362  1.00  0.00     0.017 A 
HETATM    8  C   UNL     1       7.886  22.963  52.797  1.00  0.00     0.007 A 
HETATM    9  C   UNL     1       8.010  21.814  53.588  1.00  0.00    -0.062 A 
HETATM   10  C   UNL     1       8.481  20.522  52.988  1.00  0.00     0.048 C 
HETATM   11  C   UNL     1       7.729  21.893  54.960  1.00  0.00     0.007 A 
HETATM   12  C   UNL     1       7.305  23.095  55.528  1.00  0.00     0.017 A 
ENDBRANCH   3   6
ENDBRANCH   1   2
BRANCH   1  13
HETATM   13  N   UNL     1       6.302  28.687  53.672  1.00  0.00    -0.342 N 
HETATM   14  H   UNL     1       7.294  28.934  53.569  1.00  0.00     0.163 HD
BRANCH  13  15
HETATM   15  C   UNL     1       5.642  28.425  52.503  1.00  0.00     0.089 A 
HETATM   16  S   UNL     1       5.853  26.958  51.637  1.00  0.00    -0.074 SA
HETATM   17  C   UNL     1       4.676  27.347  50.494  1.00  0.00     0.018 A 
HETATM   18  C   UNL     1       4.091  28.570  50.739  1.00  0.00    -0.023 A 
HETATM   19  C   UNL     1       4.317  26.415  49.388  1.00  0.00     0.281 C 
HETATM   20  C   UNL     1       3.007  29.100  49.835  1.00  0.00     0.068 C 
HETATM   21  C   UNL     1       4.666  29.226  51.902  1.00  0.00     0.080 A 
HETATM   22  C   UNL     1       2.425  28.007  48.920  1.00  0.00     0.239 C 
HETATM   23  N   UNL     1       3.507  27.124  48.309  1.00  0.00    -0.070 N 
HETATM   24  H   UNL     1       3.022  26.382  47.791  1.00  0.00     0.279 HD
HETATM   25  C   UNL     1       4.369  27.836  47.308  1.00  0.00     0.270 C 
BRANCH  21  26
HETATM   26  C   UNL     1       4.269  30.569  52.363  1.00  0.00     0.296 C 
HETATM   27  O   UNL     1       4.556  31.586  51.743  1.00  0.00    -0.259 OA
BRANCH  26  28
HETATM   28  O   UNL     1       3.607  30.563  53.557  1.00  0.00    -0.322 OA
HETATM   29  C   UNL     1       3.738  31.770  54.313  1.00  0.00     0.213 C 
ENDBRANCH  26  28
ENDBRANCH  21  26
ENDBRANCH  13  15
ENDBRANCH   1  13
BRANCH   1  30
HETATM   30  C   UNL     1       4.779  28.059  55.701  1.00  0.00     0.441 C 
HETATM   31  F   UNL     1       3.728  27.921  54.850  1.00  0.00    -0.166 F 
HETATM   32  F   UNL     1       4.576  27.189  56.711  1.00  0.00    -0.166 F 
HETATM   33  F   UNL     1       4.668  29.301  56.245  1.00  0.00    -0.166 F 
ENDBRANCH   1  30
BRANCH   1  34
HETATM   34  C   UNL     1       7.158  28.471  56.009  1.00  0.00     0.441 C 
HETATM   35  F   UNL     1       6.897  28.174  57.293  1.00  0.00    -0.166 F 
HETATM   36  F   UNL     1       8.397  27.958  55.738  1.00  0.00    -0.166 F 
HETATM   37  F   UNL     1       7.283  29.815  55.906  1.00  0.00    -0.166 F 
ENDBRANCH   1  34
TORSDOF 8
ENDMDL
MODEL 6
REMARK VINA RESULT:      -8.1      6.202      9.907
REMARK  8 active torsions:
REMARK  status: ('A' for Active; 'I' for Inactive)
REMARK    1  A    between atoms: C_5  and  C_6 
REMARK       I    between atoms: C_6  and  N_7 
REMARK    2  A    between atoms: N_7  and  C_8 
REMARK    3  A    between atoms: C_8  and  N_9 
REMARK    4  A    between atoms: C_8  and  C_25 
REMARK    5  A    between atoms: C_8  and  C_29 
REMARK    6  A    between atoms: N_9  and  C_10 
REMARK    7  A    between atoms: C_20  and  C_21 
REMARK    8  A    between atoms: C_21  and  O_22 
ROOT
HETATM    1  C   UNL     1       4.639  27.356  49.227  1.00  0.00     0.307 C 
ENDROOT
BRANCH   1   2
HETATM    2  N   UNL     1       5.264  26.390  50.151  1.00  0.00    -0.315 N 
HETATM    3  C   UNL     1       5.348  26.617  51.499  1.00  0.00     0.254 C 
HETATM    4  O   UNL     1       4.856  27.595  52.036  1.00  0.00    -0.268 OA
HETATM    5  H   UNL     1       5.894  25.720  49.736  1.00  0.00     0.165 HD
BRANCH   3   6
HETATM    6  C   UNL     1       6.107  25.607  52.275  1.00  0.00     0.032 A 
HETATM    7  C   UNL     1       7.307  25.076  51.787  1.00  0.00     0.017 A 
HETATM    8  C   UNL     1       7.999  24.121  52.534  1.00  0.00     0.007 A 
HETATM    9  C   UNL     1       7.495  23.683  53.765  1.00  0.00    -0.062 A 
HETATM   10  C   UNL     1       8.250  22.675  54.583  1.00  0.00     0.048 C 
HETATM   11  C   UNL     1       6.296  24.226  54.249  1.00  0.00     0.007 A 
HETATM   12  C   UNL     1       5.597  25.175  53.501  1.00  0.00     0.017 A 
ENDBRANCH   3   6
ENDBRANCH   1   2
BRANCH   1  13
HETATM   13  N   UNL     1       3.283  27.550  49.901  1.00  0.00    -0.342 N 
HETATM   14  H   UNL     1       3.324  27.107  50.827  1.00  0.00     0.163 HD
BRANCH  13  15
HETATM   15  C   UNL     1       2.525  28.687  49.830  1.00  0.00     0.089 A 
HETATM   16  S   UNL     1       2.789  30.034  50.861  1.00  0.00    -0.074 SA
HETATM   17  C   UNL     1       1.624  30.978  50.090  1.00  0.00     0.018 A 
HETATM   18  C   UNL     1       1.023  30.317  49.040  1.00  0.00    -0.023 A 
HETATM   19  C   UNL     1       1.346  32.381  50.510  1.00  0.00     0.281 C 
HETATM   20  C   UNL     1      -0.043  30.991  48.215  1.00  0.00     0.068 C 
HETATM   21  C   UNL     1       1.525  28.961  48.892  1.00  0.00     0.080 A 
HETATM   22  C   UNL     1      -0.077  32.515  48.439  1.00  0.00     0.239 C 
HETATM   23  N   UNL     1       0.039  32.888  49.911  1.00  0.00    -0.070 N 
HETATM   24  H   UNL     1       0.094  33.913  49.951  1.00  0.00     0.279 HD
HETATM   25  C   UNL     1      -1.161  32.503  50.726  1.00  0.00     0.270 C 
BRANCH  21  26
HETATM   26  C   UNL     1       1.022  28.009  47.885  1.00  0.00     0.296 C 
HETATM   27  O   UNL     1       0.678  26.870  48.175  1.00  0.00    -0.259 OA
BRANCH  26  28
HETATM   28  O   UNL     1       1.030  28.504  46.612  1.00  0.00    -0.322 OA
HETATM   29  C   UNL     1      -0.057  28.056  45.797  1.00  0.00     0.213 C 
ENDBRANCH  26  28
ENDBRANCH  21  26
ENDBRANCH  13  15
ENDBRANCH   1  13
BRANCH   1  30
HETATM   30  C   UNL     1       5.436  28.663  48.921  1.00  0.00     0.441 C 
HETATM   31  F   UNL     1       4.706  29.536  48.177  1.00  0.00    -0.166 F 
HETATM   32  F   UNL     1       5.849  29.336  50.014  1.00  0.00    -0.166 F 
HETATM   33  F   UNL     1       6.556  28.391  48.199  1.00  0.00    -0.166 F 
ENDBRANCH   1  30
BRANCH   1  34
HETATM   34  C   UNL     1       4.384  26.779  47.795  1.00  0.00     0.441 C 
HETATM   35  F   UNL     1       3.957  27.667  46.882  1.00  0.00    -0.166 F 
HETATM   36  F   UNL     1       5.563  26.272  47.319  1.00  0.00    -0.166 F 
HETATM   37  F   UNL     1       3.515  25.742  47.811  1.00  0.00    -0.166 F 
ENDBRANCH   1  34
TORSDOF 8
ENDMDL
MODEL 7
REMARK VINA RESULT:      -8.0      2.948      5.562
REMARK  8 active torsions:
REMARK  status: ('A' for Active; 'I' for Inactive)
REMARK    1  A    between atoms: C_5  and  C_6 
REMARK       I    between atoms: C_6  and  N_7 
REMARK    2  A    between atoms: N_7  and  C_8 
REMARK    3  A    between atoms: C_8  and  N_9 
REMARK    4  A    between atoms: C_8  and  C_25 
REMARK    5  A    between atoms: C_8  and  C_29 
REMARK    6  A    between atoms: N_9  and  C_10 
REMARK    7  A    between atoms: C_20  and  C_21 
REMARK    8  A    between atoms: C_21  and  O_22 
ROOT
HETATM    1  C   UNL     1       5.840  28.315  55.064  1.00  0.00     0.307 C 
ENDROOT
BRANCH   1   2
HETATM    2  N   UNL     1       5.619  28.869  53.714  1.00  0.00    -0.315 N 
HETATM    3  C   UNL     1       4.419  28.752  53.064  1.00  0.00     0.254 C 
HETATM    4  O   UNL     1       3.436  28.244  53.577  1.00  0.00    -0.268 OA
HETATM    5  H   UNL     1       6.446  29.055  53.168  1.00  0.00     0.165 HD
BRANCH   3   6
HETATM    6  C   UNL     1       4.392  29.258  51.671  1.00  0.00     0.032 A 
HETATM    7  C   UNL     1       3.179  29.463  51.002  1.00  0.00     0.017 A 
HETATM    8  C   UNL     1       3.181  29.933  49.688  1.00  0.00     0.007 A 
HETATM    9  C   UNL     1       4.389  30.193  49.029  1.00  0.00    -0.062 A 
HETATM   10  C   UNL     1       4.394  30.724  47.625  1.00  0.00     0.048 C 
HETATM   11  C   UNL     1       5.599  29.991  49.710  1.00  0.00     0.007 A 
HETATM   12  C   UNL     1       5.602  29.512  51.021  1.00  0.00     0.017 A 
ENDBRANCH   3   6
ENDBRANCH   1   2
BRANCH   1  13
HETATM   13  N   UNL     1       5.220  26.929  54.903  1.00  0.00    -0.342 N 
HETATM   14  H   UNL     1       4.420  27.013  54.263  1.00  0.00     0.163 HD
BRANCH  13  15
HETATM   15  C   UNL     1       5.922  25.759  54.809  1.00  0.00     0.089 A 
HETATM   16  S   UNL     1       6.260  24.777  56.175  1.00  0.00    -0.074 SA
HETATM   17  C   UNL     1       6.976  23.563  55.250  1.00  0.00     0.018 A 
HETATM   18  C   UNL     1       6.967  23.855  53.904  1.00  0.00    -0.023 A 
HETATM   19  C   UNL     1       7.505  22.313  55.868  1.00  0.00     0.281 C 
HETATM   20  C   UNL     1       7.555  22.893  52.903  1.00  0.00     0.068 C 
HETATM   21  C   UNL     1       6.373  25.153  53.632  1.00  0.00     0.080 A 
HETATM   22  C   UNL     1       7.784  21.493  53.505  1.00  0.00     0.239 C 
HETATM   23  N   UNL     1       8.401  21.554  54.897  1.00  0.00    -0.070 N 
HETATM   24  H   UNL     1       8.434  20.588  55.245  1.00  0.00     0.279 HD
HETATM   25  C   UNL     1       9.818  22.049  54.905  1.00  0.00     0.270 C 
BRANCH  21  26
HETATM   26  C   UNL     1       6.282  25.745  52.284  1.00  0.00     0.296 C 
HETATM   27  O   UNL     1       7.226  26.318  51.755  1.00  0.00    -0.259 OA
BRANCH  26  28
HETATM   28  O   UNL     1       5.042  25.633  51.722  1.00  0.00    -0.322 OA
HETATM   29  C   UNL     1       4.983  26.007  50.342  1.00  0.00     0.213 C 
ENDBRANCH  26  28
ENDBRANCH  21  26
ENDBRANCH  13  15
ENDBRANCH   1  13
BRANCH   1  30
HETATM   30  C   UNL     1       7.302  28.342  55.611  1.00  0.00     0.441 C 
HETATM   31  F   UNL     1       7.714  29.608  55.886  1.00  0.00    -0.166 F 
HETATM   32  F   UNL     1       7.495  27.620  56.733  1.00  0.00    -0.166 F 
HETATM   33  F   UNL     1       8.175  27.849  54.691  1.00  0.00    -0.166 F 
ENDBRANCH   1  30
BRANCH   1  34
HETATM   34  C   UNL     1       5.051  29.066  56.187  1.00  0.00     0.441 C 
HETATM   35  F   UNL     1       4.836  30.373  55.966  1.00  0.00    -0.166 F 
HETATM   36  F   UNL     1       3.817  28.487  56.307  1.00  0.00    -0.166 F 
HETATM   37  F   UNL     1       5.640  28.936  57.398  1.00  0.00    -0.166 F 
ENDBRANCH   1  34
TORSDOF 8
ENDMDL
MODEL 8
REMARK VINA RESULT:      -7.9      4.771      8.543
REMARK  8 active torsions:
REMARK  status: ('A' for Active; 'I' for Inactive)
REMARK    1  A    between atoms: C_5  and  C_6 
REMARK       I    between atoms: C_6  and  N_7 
REMARK    2  A    between atoms: N_7  and  C_8 
REMARK    3  A    between atoms: C_8  and  N_9 
REMARK    4  A    between atoms: C_8  and  C_25 
REMARK    5  A    between atoms: C_8  and  C_29 
REMARK    6  A    between atoms: N_9  and  C_10 
REMARK    7  A    between atoms: C_20  and  C_21 
REMARK    8  A    between atoms: C_21  and  O_22 
ROOT
HETATM    1  C   UNL     1       4.855  27.374  50.224  1.00  0.00     0.307 C 
ENDROOT
BRANCH   1   2
HETATM    2  N   UNL     1       5.737  26.469  50.989  1.00  0.00    -0.315 N 
HETATM    3  C   UNL     1       5.265  25.662  51.989  1.00  0.00     0.254 C 
HETATM    4  O   UNL     1       4.081  25.584  52.272  1.00  0.00    -0.268 OA
HETATM    5  H   UNL     1       6.721  26.687  50.970  1.00  0.00     0.165 HD
BRANCH   3   6
HETATM    6  C   UNL     1       6.292  24.901  52.739  1.00  0.00     0.032 A 
HETATM    7  C   UNL     1       7.457  24.447  52.107  1.00  0.00     0.017 A 
HETATM    8  C   UNL     1       8.406  23.726  52.834  1.00  0.00     0.007 A 
HETATM    9  C   UNL     1       8.196  23.443  54.189  1.00  0.00    -0.062 A 
HETATM   10  C   UNL     1       9.226  22.690  54.980  1.00  0.00     0.048 C 
HETATM   11  C   UNL     1       7.030  23.908  54.815  1.00  0.00     0.007 A 
HETATM   12  C   UNL     1       6.074  24.622  54.090  1.00  0.00     0.017 A 
ENDBRANCH   3   6
ENDBRANCH   1   2
BRANCH   1  13
HETATM   13  N   UNL     1       3.839  27.748  51.300  1.00  0.00    -0.342 N 
HETATM   14  H   UNL     1       3.729  26.941  51.926  1.00  0.00     0.163 HD
BRANCH  13  15
HETATM   15  C   UNL     1       3.748  28.972  51.904  1.00  0.00     0.089 A 
HETATM   16  S   UNL     1       2.751  30.228  51.292  1.00  0.00    -0.074 SA
HETATM   17  C   UNL     1       3.078  31.255  52.589  1.00  0.00     0.018 A 
HETATM   18  C   UNL     1       3.925  30.681  53.512  1.00  0.00    -0.023 A 
HETATM   19  C   UNL     1       2.459  32.607  52.697  1.00  0.00     0.281 C 
HETATM   20  C   UNL     1       4.337  31.434  54.752  1.00  0.00     0.068 C 
HETATM   21  C   UNL     1       4.346  29.349  53.110  1.00  0.00     0.080 A 
HETATM   22  C   UNL     1       3.445  32.662  55.011  1.00  0.00     0.239 C 
HETATM   23  N   UNL     1       3.170  33.458  53.741  1.00  0.00    -0.070 N 
HETATM   24  H   UNL     1       2.505  34.198  53.997  1.00  0.00     0.279 HD
HETATM   25  C   UNL     1       4.381  34.157  53.195  1.00  0.00     0.270 C 
BRANCH  21  26
HETATM   26  C   UNL     1       5.295  28.524  53.881  1.00  0.00     0.296 C 
HETATM   27  O   UNL     1       5.013  28.052  54.975  1.00  0.00    -0.259 OA
BRANCH  26  28
HETATM   28  O   UNL     1       6.514  28.390  53.281  1.00  0.00    -0.322 OA
HETATM   29  C   UNL     1       7.583  28.076  54.179  1.00  0.00     0.213 C 
ENDBRANCH  26  28
ENDBRANCH  21  26
ENDBRANCH  13  15
ENDBRANCH   1  13
BRANCH   1  30
HETATM   30  C   UNL     1       5.534  28.572  49.488  1.00  0.00     0.441 C 
HETATM   31  F   UNL     1       6.142  29.420  50.360  1.00  0.00    -0.166 F 
HETATM   32  F   UNL     1       6.466  28.217  48.581  1.00  0.00    -0.166 F 
HETATM   33  F   UNL     1       4.614  29.313  48.815  1.00  0.00    -0.166 F 
ENDBRANCH   1  30
BRANCH   1  34
HETATM   34  C   UNL     1       4.085  26.663  49.063  1.00  0.00     0.441 C 
HETATM   35  F   UNL     1       4.701  26.676  47.869  1.00  0.00    -0.166 F 
HETATM   36  F   UNL     1       3.918  25.347  49.397  1.00  0.00    -0.166 F 
HETATM   37  F   UNL     1       2.838  27.164  48.897  1.00  0.00    -0.166 F 
ENDBRANCH   1  34
TORSDOF 8
ENDMDL
MODEL 9
REMARK VINA RESULT:      -7.7      2.712      7.880
REMARK  8 active torsions:
REMARK  status: ('A' for Active; 'I' for Inactive)
REMARK    1  A    between atoms: C_5  and  C_6 
REMARK       I    between atoms: C_6  and  N_7 
REMARK    2  A    between atoms: N_7  and  C_8 
REMARK    3  A    between atoms: C_8  and  N_9 
REMARK    4  A    between atoms: C_8  and  C_25 
REMARK    5  A    between atoms: C_8  and  C_29 
REMARK    6  A    between atoms: N_9  and  C_10 
REMARK    7  A    between atoms: C_20  and  C_21 
REMARK    8  A    between atoms: C_21  and  O_22 
ROOT
HETATM    1  C   UNL     1       5.606  26.777  54.179  1.00  0.00     0.307 C 
ENDROOT
BRANCH   1   2
HETATM    2  N   UNL     1       6.277  25.505  54.513  1.00  0.00    -0.315 N 
HETATM    3  C   UNL     1       6.924  24.751  53.571  1.00  0.00     0.254 C 
HETATM    4  O   UNL     1       7.050  25.107  52.410  1.00  0.00    -0.268 OA
HETATM    5  H   UNL     1       5.984  25.059  55.368  1.00  0.00     0.165 HD
BRANCH   3   6
HETATM    6  C   UNL     1       7.446  23.446  54.040  1.00  0.00     0.032 A 
HETATM    7  C   UNL     1       7.541  23.157  55.407  1.00  0.00     0.017 A 
HETATM    8  C   UNL     1       8.043  21.923  55.824  1.00  0.00     0.007 A 
HETATM    9  C   UNL     1       8.461  20.974  54.883  1.00  0.00    -0.062 A 
HETATM   10  C   UNL     1       8.977  19.635  55.327  1.00  0.00     0.048 C 
HETATM   11  C   UNL     1       8.355  21.269  53.516  1.00  0.00     0.007 A 
HETATM   12  C   UNL     1       7.863  22.506  53.095  1.00  0.00     0.017 A 
ENDBRANCH   3   6
ENDBRANCH   1   2
BRANCH   1  13
HETATM   13  N   UNL     1       4.936  27.098  55.512  1.00  0.00    -0.342 N 
HETATM   14  H   UNL     1       5.128  26.322  56.158  1.00  0.00     0.163 HD
BRANCH  13  15
HETATM   15  C   UNL     1       4.886  28.338  56.089  1.00  0.00     0.089 A 
HETATM   16  S   UNL     1       3.537  29.383  55.905  1.00  0.00    -0.074 SA
HETATM   17  C   UNL     1       4.167  30.543  56.955  1.00  0.00     0.018 A 
HETATM   18  C   UNL     1       5.387  30.172  57.476  1.00  0.00    -0.023 A 
HETATM   19  C   UNL     1       3.423  31.793  57.282  1.00  0.00     0.281 C 
HETATM   20  C   UNL     1       6.117  31.068  58.443  1.00  0.00     0.068 C 
HETATM   21  C   UNL     1       5.833  28.889  56.957  1.00  0.00     0.080 A 
HETATM   22  C   UNL     1       5.205  32.169  59.019  1.00  0.00     0.239 C 
HETATM   23  N   UNL     1       4.332  32.817  57.951  1.00  0.00    -0.070 N 
HETATM   24  H   UNL     1       3.706  33.468  58.439  1.00  0.00     0.279 HD
HETATM   25  C   UNL     1       5.104  33.642  56.963  1.00  0.00     0.270 C 
BRANCH  21  26
HETATM   26  C   UNL     1       7.128  28.274  57.301  1.00  0.00     0.296 C 
HETATM   27  O   UNL     1       8.158  28.929  57.406  1.00  0.00    -0.259 OA
BRANCH  26  28
HETATM   28  O   UNL     1       7.069  26.916  57.436  1.00  0.00    -0.322 OA
HETATM   29  C   UNL     1       8.330  26.253  57.301  1.00  0.00     0.213 C 
ENDBRANCH  26  28
ENDBRANCH  21  26
ENDBRANCH  13  15
ENDBRANCH   1  13
BRANCH   1  30
HETATM   30  C   UNL     1       6.494  27.911  53.577  1.00  0.00     0.441 C 
HETATM   31  F   UNL     1       6.833  27.655  52.286  1.00  0.00    -0.166 F 
HETATM   32  F   UNL     1       5.929  29.135  53.593  1.00  0.00    -0.166 F 
HETATM   33  F   UNL     1       7.664  28.027  54.262  1.00  0.00    -0.166 F 
ENDBRANCH   1  30
BRANCH   1  34
HETATM   34  C   UNL     1       4.482  26.628  53.101  1.00  0.00     0.441 C 
HETATM   35  F   UNL     1       4.874  26.810  51.829  1.00  0.00    -0.166 F 
HETATM   36  F   UNL     1       3.981  25.356  53.173  1.00  0.00    -0.166 F 
HETATM   37  F   UNL     1       3.435  27.452  53.340  1.00  0.00    -0.166 F 
ENDBRANCH   1  34
TORSDOF 8
ENDMDL
MODEL 10
REMARK VINA RESULT:      -7.6      3.034      5.019
REMARK  8 active torsions:
REMARK  status: ('A' for Active; 'I' for Inactive)
REMARK    1  A    between atoms: C_5  and  C_6 
REMARK       I    between atoms: C_6  and  N_7 
REMARK    2  A    between atoms: N_7  and  C_8 
REMARK    3  A    between atoms: C_8  and  N_9 
REMARK    4  A    between atoms: C_8  and  C_25 
REMARK    5  A    between atoms: C_8  and  C_29 
REMARK    6  A    between atoms: N_9  and  C_10 
REMARK    7  A    between atoms: C_20  and  C_21 
REMARK    8  A    between atoms: C_21  and  O_22 
ROOT
HETATM    1  C   UNL     1       6.442  28.518  55.692  1.00  0.00     0.307 C 
ENDROOT
BRANCH   1   2
HETATM    2  N   UNL     1       5.668  29.492  54.898  1.00  0.00    -0.315 N 
HETATM    3  C   UNL     1       4.302  29.447  54.815  1.00  0.00     0.254 C 
HETATM    4  O   UNL     1       3.628  28.646  55.442  1.00  0.00    -0.268 OA
HETATM    5  H   UNL     1       6.177  29.987  54.182  1.00  0.00     0.165 HD
BRANCH   3   6
HETATM    6  C   UNL     1       3.682  30.421  53.886  1.00  0.00     0.032 A 
HETATM    7  C   UNL     1       3.242  31.671  54.340  1.00  0.00     0.017 A 
HETATM    8  C   UNL     1       2.655  32.568  53.446  1.00  0.00     0.007 A 
HETATM    9  C   UNL     1       2.494  32.222  52.098  1.00  0.00    -0.062 A 
HETATM   10  C   UNL     1       1.887  33.194  51.129  1.00  0.00     0.048 C 
HETATM   11  C   UNL     1       2.944  30.971  51.652  1.00  0.00     0.007 A 
HETATM   12  C   UNL     1       3.523  30.067  52.545  1.00  0.00     0.017 A 
ENDBRANCH   3   6
ENDBRANCH   1   2
BRANCH   1  13
HETATM   13  N   UNL     1       5.691  27.230  55.364  1.00  0.00    -0.342 N 
HETATM   14  H   UNL     1       4.935  27.463  54.708  1.00  0.00     0.163 HD
BRANCH  13  15
HETATM   15  C   UNL     1       6.272  26.006  55.175  1.00  0.00     0.089 A 
HETATM   16  S   UNL     1       6.548  24.909  56.465  1.00  0.00    -0.074 SA
HETATM   17  C   UNL     1       7.118  23.695  55.444  1.00  0.00     0.018 A 
HETATM   18  C   UNL     1       7.102  24.074  54.119  1.00  0.00    -0.023 A 
HETATM   19  C   UNL     1       7.537  22.363  55.964  1.00  0.00     0.281 C 
HETATM   20  C   UNL     1       7.566  23.127  53.041  1.00  0.00     0.068 C 
HETATM   21  C   UNL     1       6.631  25.438  53.948  1.00  0.00     0.080 A 
HETATM   22  C   UNL     1       7.673  21.676  53.547  1.00  0.00     0.239 C 
HETATM   23  N   UNL     1       8.329  21.586  54.919  1.00  0.00    -0.070 N 
HETATM   24  H   UNL     1       8.277  20.601  55.205  1.00  0.00     0.279 HD
HETATM   25  C   UNL     1       9.787  21.941  54.912  1.00  0.00     0.270 C 
BRANCH  21  26
HETATM   26  C   UNL     1       6.562  26.123  52.644  1.00  0.00     0.296 C 
HETATM   27  O   UNL     1       7.505  26.139  51.862  1.00  0.00    -0.259 OA
BRANCH  26  28
HETATM   28  O   UNL     1       5.378  26.767  52.427  1.00  0.00    -0.322 OA
HETATM   29  C   UNL     1       5.072  26.994  51.048  1.00  0.00     0.213 C 
ENDBRANCH  26  28
ENDBRANCH  21  26
ENDBRANCH  13  15
ENDBRANCH   1  13
BRANCH   1  30
HETATM   30  C   UNL     1       7.985  28.479  55.459  1.00  0.00     0.441 C 
HETATM   31  F   UNL     1       8.587  29.624  55.877  1.00  0.00    -0.166 F 
HETATM   32  F   UNL     1       8.620  27.461  56.075  1.00  0.00    -0.166 F 
HETATM   33  F   UNL     1       8.274  28.358  54.135  1.00  0.00    -0.166 F 
ENDBRANCH   1  30
BRANCH   1  34
HETATM   34  C   UNL     1       6.344  28.750  57.237  1.00  0.00     0.441 C 
HETATM   35  F   UNL     1       6.263  30.034  57.623  1.00  0.00    -0.166 F 
HETATM   36  F   UNL     1       5.209  28.137  57.693  1.00  0.00    -0.166 F 
HETATM   37  F   UNL     1       7.371  28.174  57.904  1.00  0.00    -0.166 F 
ENDBRANCH   1  34
TORSDOF 8
ENDMDL
