MODEL 1
REMARK VINA RESULT:      -8.9      0.000      0.000
REMARK  3 active torsions:
REMARK  status: ('A' for Active; 'I' for Inactive)
REMARK    1  A    between atoms: C_7  and  C_8 
REMARK       I    between atoms: C_8  and  N_9 
REMARK    2  A    between atoms: N_9  and  C_10 
REMARK    3  A    between atoms: C_11  and  O_12 
ROOT
HETATM    1  C   UNL     1       5.373  27.917  52.253  1.00  0.00     0.252 C 
HETATM    2  N   UNL     1       4.271  27.680  51.466  1.00  0.00    -0.346 N 
HETATM    3  O   UNL     1       6.084  28.907  52.114  1.00  0.00    -0.268 OA
HETATM    4  H   UNL     1       3.756  26.815  51.559  1.00  0.00     0.163 HD
ENDROOT
BRANCH   1   5
HETATM    5  C   UNL     1       5.688  26.886  53.275  1.00  0.00     0.033 A 
HETATM    6  C   UNL     1       5.283  27.119  54.591  1.00  0.00     0.019 A 
HETATM    7  C   UNL     1       5.575  26.203  55.604  1.00  0.00     0.031 A 
HETATM    8  C   UNL     1       6.272  25.043  55.247  1.00  0.00     0.043 A 
HETATM    9  C   UNL     1       6.668  24.766  53.940  1.00  0.00    -0.001 A 
HETATM   10  N   UNL     1       6.686  23.990  56.027  1.00  0.00    -0.359 N 
HETATM   11  C   UNL     1       7.324  23.492  53.951  1.00  0.00    -0.027 A 
HETATM   12  C   UNL     1       6.368  25.707  52.932  1.00  0.00     0.031 A 
HETATM   13  C   UNL     1       7.902  22.772  52.783  1.00  0.00     0.051 C 
HETATM   14  C   UNL     1       7.325  23.045  55.263  1.00  0.00     0.012 A 
HETATM   15  C   UNL     1       7.873  21.800  55.860  1.00  0.00     0.068 C 
HETATM   16  H   UNL     1       6.533  23.924  57.023  1.00  0.00     0.166 HD
ENDBRANCH   1   5
BRANCH   2  17
HETATM   17  C   UNL     1       3.963  28.537  50.337  1.00  0.00     0.147 C 
HETATM   18  C   UNL     1       2.764  29.514  50.562  1.00  0.00     0.149 C 
HETATM   19  C   UNL     1       1.510  28.797  50.024  1.00  0.00     0.073 C 
HETATM   20  C   UNL     1       2.091  27.872  49.000  1.00  0.00    -0.047 A 
HETATM   21  C   UNL     1       3.470  27.722  49.177  1.00  0.00    -0.027 A 
HETATM   22  C   UNL     1       1.419  27.178  48.007  1.00  0.00     0.008 A 
HETATM   23  C   UNL     1       4.206  26.876  48.360  1.00  0.00     0.010 A 
HETATM   24  C   UNL     1       3.539  26.180  47.350  1.00  0.00     0.001 A 
HETATM   25  C   UNL     1       2.155  26.332  47.175  1.00  0.00     0.001 A 
BRANCH  18  26
HETATM   26  O   UNL     1       2.565  29.914  51.914  1.00  0.00    -0.393 OA
HETATM   27  H   UNL     1       1.832  29.363  52.262  1.00  0.00     0.210 HD
ENDBRANCH  18  26
ENDBRANCH   2  17
TORSDOF 3
ENDMDL
MODEL 2
REMARK VINA RESULT:      -8.8      7.136      9.913
REMARK  3 active torsions:
REMARK  status: ('A' for Active; 'I' for Inactive)
REMARK    1  A    between atoms: C_7  and  C_8 
REMARK       I    between atoms: C_8  and  N_9 
REMARK    2  A    between atoms: N_9  and  C_10 
REMARK    3  A    between atoms: C_11  and  O_12 
ROOT
HETATM    1  C   UNL     1       8.220  30.562  58.504  1.00  0.00     0.252 C 
HETATM    2  N   UNL     1       7.023  30.102  58.011  1.00  0.00    -0.346 N 
HETATM    3  O   UNL     1       9.261  30.525  57.855  1.00  0.00    -0.268 OA
HETATM    4  H   UNL     1       6.205  30.076  58.603  1.00  0.00     0.163 HD
ENDROOT
BRANCH   1   5
HETATM    5  C   UNL     1       8.204  31.084  59.894  1.00  0.00     0.033 A 
HETATM    6  C   UNL     1       9.137  30.574  60.800  1.00  0.00     0.019 A 
HETATM    7  C   UNL     1       9.153  31.001  62.130  1.00  0.00     0.031 A 
HETATM    8  C   UNL     1       8.214  31.966  62.512  1.00  0.00     0.043 A 
HETATM    9  C   UNL     1       7.287  32.516  61.629  1.00  0.00    -0.001 A 
HETATM   10  N   UNL     1       8.007  32.557  63.735  1.00  0.00    -0.359 N 
HETATM   11  C   UNL     1       6.518  33.480  62.359  1.00  0.00    -0.027 A 
HETATM   12  C   UNL     1       7.283  32.067  60.290  1.00  0.00     0.031 A 
HETATM   13  C   UNL     1       5.419  34.336  61.831  1.00  0.00     0.051 C 
HETATM   14  C   UNL     1       6.985  33.471  63.663  1.00  0.00     0.012 A 
HETATM   15  C   UNL     1       6.555  34.254  64.850  1.00  0.00     0.068 C 
HETATM   16  H   UNL     1       8.540  32.346  64.567  1.00  0.00     0.166 HD
ENDBRANCH   1   5
BRANCH   2  17
HETATM   17  C   UNL     1       6.955  29.427  56.728  1.00  0.00     0.147 C 
HETATM   18  C   UNL     1       5.669  29.731  55.894  1.00  0.00     0.149 C 
HETATM   19  C   UNL     1       4.655  28.622  56.235  1.00  0.00     0.073 C 
HETATM   20  C   UNL     1       5.548  27.491  56.640  1.00  0.00    -0.047 A 
HETATM   21  C   UNL     1       6.842  27.942  56.920  1.00  0.00    -0.027 A 
HETATM   22  C   UNL     1       5.212  26.155  56.787  1.00  0.00     0.008 A 
HETATM   23  C   UNL     1       7.826  27.065  57.352  1.00  0.00     0.010 A 
HETATM   24  C   UNL     1       7.498  25.716  57.495  1.00  0.00     0.001 A 
HETATM   25  C   UNL     1       6.199  25.264  57.213  1.00  0.00     0.001 A 
BRANCH  18  26
HETATM   26  O   UNL     1       5.097  31.015  56.125  1.00  0.00    -0.393 OA
HETATM   27  H   UNL     1       4.397  30.890  56.801  1.00  0.00     0.210 HD
ENDBRANCH  18  26
ENDBRANCH   2  17
TORSDOF 3
ENDMDL
MODEL 3
REMARK VINA RESULT:      -8.7      2.406      7.652
REMARK  3 active torsions:
REMARK  status: ('A' for Active; 'I' for Inactive)
REMARK    1  A    between atoms: C_7  and  C_8 
REMARK       I    between atoms: C_8  and  N_9 
REMARK    2  A    between atoms: N_9  and  C_10 
REMARK    3  A    between atoms: C_11  and  O_12 
ROOT
HETATM    1  C   UNL     1       4.888  25.647  53.152  1.00  0.00     0.252 C 
HETATM    2  N   UNL     1       5.323  25.920  54.427  1.00  0.00    -0.346 N 
HETATM    3  O   UNL     1       4.429  24.555  52.830  1.00  0.00    -0.268 OA
HETATM    4  H   UNL     1       5.768  26.803  54.634  1.00  0.00     0.163 HD
ENDROOT
BRANCH   1   5
HETATM    5  C   UNL     1       5.031  26.740  52.158  1.00  0.00     0.033 A 
HETATM    6  C   UNL     1       5.480  27.984  52.607  1.00  0.00     0.019 A 
HETATM    7  C   UNL     1       5.607  29.062  51.728  1.00  0.00     0.031 A 
HETATM    8  C   UNL     1       5.283  28.842  50.384  1.00  0.00     0.043 A 
HETATM    9  C   UNL     1       4.857  27.608  49.896  1.00  0.00    -0.001 A 
HETATM   10  N   UNL     1       5.314  29.709  49.318  1.00  0.00    -0.359 N 
HETATM   11  C   UNL     1       4.647  27.754  48.486  1.00  0.00    -0.027 A 
HETATM   12  C   UNL     1       4.730  26.533  50.802  1.00  0.00     0.031 A 
HETATM   13  C   UNL     1       4.207  26.698  47.532  1.00  0.00     0.051 C 
HETATM   14  C   UNL     1       4.931  29.071  48.165  1.00  0.00     0.012 A 
HETATM   15  C   UNL     1       4.877  29.782  46.862  1.00  0.00     0.068 C 
HETATM   16  H   UNL     1       5.587  30.680  49.382  1.00  0.00     0.166 HD
ENDBRANCH   1   5
BRANCH   2  17
HETATM   17  C   UNL     1       5.378  24.878  55.435  1.00  0.00     0.147 C 
HETATM   18  C   UNL     1       5.254  25.384  56.909  1.00  0.00     0.149 C 
HETATM   19  C   UNL     1       6.693  25.592  57.422  1.00  0.00     0.073 C 
HETATM   20  C   UNL     1       7.471  24.635  56.574  1.00  0.00    -0.047 A 
HETATM   21  C   UNL     1       6.734  24.234  55.454  1.00  0.00    -0.027 A 
HETATM   22  C   UNL     1       8.767  24.188  56.771  1.00  0.00     0.008 A 
HETATM   23  C   UNL     1       7.279  23.376  54.511  1.00  0.00     0.010 A 
HETATM   24  C   UNL     1       8.581  22.914  54.706  1.00  0.00     0.001 A 
HETATM   25  C   UNL     1       9.320  23.317  55.829  1.00  0.00     0.001 A 
BRANCH  18  26
HETATM   26  O   UNL     1       4.494  26.578  57.068  1.00  0.00    -0.393 OA
HETATM   27  H   UNL     1       4.830  27.214  56.401  1.00  0.00     0.210 HD
ENDBRANCH  18  26
ENDBRANCH   2  17
TORSDOF 3
ENDMDL
MODEL 4
REMARK VINA RESULT:      -8.7      1.839      2.769
REMARK  3 active torsions:
REMARK  status: ('A' for Active; 'I' for Inactive)
REMARK    1  A    between atoms: C_7  and  C_8 
REMARK       I    between atoms: C_8  and  N_9 
REMARK    2  A    between atoms: N_9  and  C_10 
REMARK    3  A    between atoms: C_11  and  O_12 
ROOT
HETATM    1  C   UNL     1       6.974  27.109  53.171  1.00  0.00     0.252 C 
HETATM    2  N   UNL     1       5.942  27.316  52.286  1.00  0.00    -0.346 N 
HETATM    3  O   UNL     1       7.555  28.031  53.735  1.00  0.00    -0.268 OA
HETATM    4  H   UNL     1       5.541  26.537  51.782  1.00  0.00     0.163 HD
ENDROOT
BRANCH   1   5
HETATM    5  C   UNL     1       7.382  25.698  53.390  1.00  0.00     0.033 A 
HETATM    6  C   UNL     1       7.462  24.855  52.279  1.00  0.00     0.019 A 
HETATM    7  C   UNL     1       7.810  23.510  52.423  1.00  0.00     0.031 A 
HETATM    8  C   UNL     1       8.088  23.048  53.714  1.00  0.00     0.043 A 
HETATM    9  C   UNL     1       8.044  23.866  54.841  1.00  0.00    -0.001 A 
HETATM   10  N   UNL     1       8.449  21.792  54.140  1.00  0.00    -0.359 N 
HETATM   11  C   UNL     1       8.410  23.062  55.970  1.00  0.00    -0.027 A 
HETATM   12  C   UNL     1       7.684  25.221  54.676  1.00  0.00     0.031 A 
HETATM   13  C   UNL     1       8.521  23.506  57.387  1.00  0.00     0.051 C 
HETATM   14  C   UNL     1       8.645  21.781  55.499  1.00  0.00     0.012 A 
HETATM   15  C   UNL     1       9.044  20.544  56.219  1.00  0.00     0.068 C 
HETATM   16  H   UNL     1       8.559  20.994  53.531  1.00  0.00     0.166 HD
ENDBRANCH   1   5
BRANCH   2  17
HETATM   17  C   UNL     1       5.568  28.656  51.877  1.00  0.00     0.147 C 
HETATM   18  C   UNL     1       4.468  29.329  52.760  1.00  0.00     0.149 C 
HETATM   19  C   UNL     1       3.118  29.028  52.081  1.00  0.00     0.073 C 
HETATM   20  C   UNL     1       3.519  28.841  50.651  1.00  0.00    -0.047 A 
HETATM   21  C   UNL     1       4.897  28.629  50.534  1.00  0.00    -0.027 A 
HETATM   22  C   UNL     1       2.698  28.820  49.536  1.00  0.00     0.008 A 
HETATM   23  C   UNL     1       5.481  28.393  49.298  1.00  0.00     0.010 A 
HETATM   24  C   UNL     1       4.662  28.379  48.168  1.00  0.00     0.001 A 
HETATM   25  C   UNL     1       3.280  28.592  48.287  1.00  0.00     0.001 A 
BRANCH  18  26
HETATM   26  O   UNL     1       4.447  28.899  54.118  1.00  0.00    -0.393 OA
HETATM   27  H   UNL     1       3.611  29.237  54.504  1.00  0.00     0.210 HD
ENDBRANCH  18  26
ENDBRANCH   2  17
TORSDOF 3
ENDMDL
MODEL 5
REMARK VINA RESULT:      -8.5      8.117     10.976
REMARK  3 active torsions:
REMARK  status: ('A' for Active; 'I' for Inactive)
REMARK    1  A    between atoms: C_7  and  C_8 
REMARK       I    between atoms: C_8  and  N_9 
REMARK    2  A    between atoms: N_9  and  C_10 
REMARK    3  A    between atoms: C_11  and  O_12 
ROOT
HETATM    1  C   UNL     1       8.439  30.714  60.129  1.00  0.00     0.252 C 
HETATM    2  N   UNL     1       8.403  30.460  58.778  1.00  0.00    -0.346 N 
HETATM    3  O   UNL     1       9.198  30.125  60.892  1.00  0.00    -0.268 OA
HETATM    4  H   UNL     1       7.710  30.908  58.195  1.00  0.00     0.163 HD
ENDROOT
BRANCH   1   5
HETATM    5  C   UNL     1       7.480  31.728  60.635  1.00  0.00     0.033 A 
HETATM    6  C   UNL     1       6.448  32.139  59.787  1.00  0.00     0.019 A 
HETATM    7  C   UNL     1       5.531  33.111  60.192  1.00  0.00     0.031 A 
HETATM    8  C   UNL     1       5.677  33.643  61.479  1.00  0.00     0.043 A 
HETATM    9  C   UNL     1       6.677  33.237  62.361  1.00  0.00    -0.001 A 
HETATM   10  N   UNL     1       4.930  34.597  62.127  1.00  0.00    -0.359 N 
HETATM   11  C   UNL     1       6.499  33.971  63.579  1.00  0.00    -0.027 A 
HETATM   12  C   UNL     1       7.598  32.258  61.930  1.00  0.00     0.031 A 
HETATM   13  C   UNL     1       7.318  33.862  64.817  1.00  0.00     0.051 C 
HETATM   14  C   UNL     1       5.413  34.811  63.394  1.00  0.00     0.012 A 
HETATM   15  C   UNL     1       4.785  35.796  64.312  1.00  0.00     0.068 C 
HETATM   16  H   UNL     1       4.134  35.069  61.722  1.00  0.00     0.166 HD
ENDBRANCH   1   5
BRANCH   2  17
HETATM   17  C   UNL     1       9.182  29.380  58.202  1.00  0.00     0.147 C 
HETATM   18  C   UNL     1      10.390  29.839  57.323  1.00  0.00     0.149 C 
HETATM   19  C   UNL     1       9.878  29.893  55.870  1.00  0.00     0.073 C 
HETATM   20  C   UNL     1       8.757  28.901  55.895  1.00  0.00    -0.047 A 
HETATM   21  C   UNL     1       8.362  28.613  57.205  1.00  0.00    -0.027 A 
HETATM   22  C   UNL     1       8.108  28.329  54.813  1.00  0.00     0.008 A 
HETATM   23  C   UNL     1       7.311  27.745  57.460  1.00  0.00     0.010 A 
HETATM   24  C   UNL     1       6.657  27.158  56.376  1.00  0.00     0.001 A 
HETATM   25  C   UNL     1       7.054  27.448  55.061  1.00  0.00     0.001 A 
BRANCH  18  26
HETATM   26  O   UNL     1      10.958  31.091  57.696  1.00  0.00    -0.393 OA
HETATM   27  H   UNL     1      11.735  31.229  57.113  1.00  0.00     0.210 HD
ENDBRANCH  18  26
ENDBRANCH   2  17
TORSDOF 3
ENDMDL
MODEL 6
REMARK VINA RESULT:      -8.5      1.066      1.776
REMARK  3 active torsions:
REMARK  status: ('A' for Active; 'I' for Inactive)
REMARK    1  A    between atoms: C_7  and  C_8 
REMARK       I    between atoms: C_8  and  N_9 
REMARK    2  A    between atoms: N_9  and  C_10 
REMARK    3  A    between atoms: C_11  and  O_12 
ROOT
HETATM    1  C   UNL     1       5.375  27.746  52.008  1.00  0.00     0.252 C 
HETATM    2  N   UNL     1       4.331  27.515  51.145  1.00  0.00    -0.346 N 
HETATM    3  O   UNL     1       5.899  28.849  52.131  1.00  0.00    -0.268 OA
HETATM    4  H   UNL     1       3.978  26.577  51.013  1.00  0.00     0.163 HD
ENDROOT
BRANCH   1   5
HETATM    5  C   UNL     1       5.871  26.574  52.773  1.00  0.00     0.033 A 
HETATM    6  C   UNL     1       5.679  25.303  52.226  1.00  0.00     0.019 A 
HETATM    7  C   UNL     1       6.095  24.158  52.910  1.00  0.00     0.031 A 
HETATM    8  C   UNL     1       6.722  24.336  54.149  1.00  0.00     0.043 A 
HETATM    9  C   UNL     1       6.954  25.590  54.712  1.00  0.00    -0.001 A 
HETATM   10  N   UNL     1       7.223  23.402  55.024  1.00  0.00    -0.359 N 
HETATM   11  C   UNL     1       7.632  25.383  55.956  1.00  0.00    -0.027 A 
HETATM   12  C   UNL     1       6.520  26.734  54.007  1.00  0.00     0.031 A 
HETATM   13  C   UNL     1       8.102  26.431  56.905  1.00  0.00     0.051 C 
HETATM   14  C   UNL     1       7.774  24.015  56.122  1.00  0.00     0.012 A 
HETATM   15  C   UNL     1       8.389  23.232  57.225  1.00  0.00     0.068 C 
HETATM   16  H   UNL     1       7.192  22.404  54.871  1.00  0.00     0.166 HD
ENDBRANCH   1   5
BRANCH   2  17
HETATM   17  C   UNL     1       3.873  28.548  50.235  1.00  0.00     0.147 C 
HETATM   18  C   UNL     1       2.745  29.470  50.803  1.00  0.00     0.149 C 
HETATM   19  C   UNL     1       1.407  28.849  50.355  1.00  0.00     0.073 C 
HETATM   20  C   UNL     1       1.802  28.110  49.115  1.00  0.00    -0.047 A 
HETATM   21  C   UNL     1       3.188  27.936  49.047  1.00  0.00    -0.027 A 
HETATM   22  C   UNL     1       0.969  27.590  48.136  1.00  0.00     0.008 A 
HETATM   23  C   UNL     1       3.770  27.242  47.996  1.00  0.00     0.010 A 
HETATM   24  C   UNL     1       2.940  26.723  47.002  1.00  0.00     0.001 A 
HETATM   25  C   UNL     1       1.549  26.897  47.072  1.00  0.00     0.001 A 
BRANCH  18  26
HETATM   26  O   UNL     1       2.766  29.637  52.217  1.00  0.00    -0.393 OA
HETATM   27  H   UNL     1       3.233  30.481  52.391  1.00  0.00     0.210 HD
ENDBRANCH  18  26
ENDBRANCH   2  17
TORSDOF 3
ENDMDL
MODEL 7
REMARK VINA RESULT:      -8.4      6.422      9.749
REMARK  3 active torsions:
REMARK  status: ('A' for Active; 'I' for Inactive)
REMARK    1  A    between atoms: C_7  and  C_8 
REMARK       I    between atoms: C_8  and  N_9 
REMARK    2  A    between atoms: N_9  and  C_10 
REMARK    3  A    between atoms: C_11  and  O_12 
ROOT
HETATM    1  C   UNL     1       8.353  30.252  58.315  1.00  0.00     0.252 C 
HETATM    2  N   UNL     1       7.502  30.601  59.336  1.00  0.00    -0.346 N 
HETATM    3  O   UNL     1       9.442  30.792  58.149  1.00  0.00    -0.268 OA
HETATM    4  H   UNL     1       6.580  30.189  59.393  1.00  0.00     0.163 HD
ENDROOT
BRANCH   1   5
HETATM    5  C   UNL     1       7.872  29.198  57.387  1.00  0.00     0.033 A 
HETATM    6  C   UNL     1       7.010  29.574  56.354  1.00  0.00     0.019 A 
HETATM    7  C   UNL     1       6.498  28.625  55.466  1.00  0.00     0.031 A 
HETATM    8  C   UNL     1       6.894  27.293  55.641  1.00  0.00     0.043 A 
HETATM    9  C   UNL     1       7.773  26.887  56.644  1.00  0.00    -0.001 A 
HETATM   10  N   UNL     1       6.551  26.171  54.926  1.00  0.00    -0.359 N 
HETATM   11  C   UNL     1       7.965  25.475  56.500  1.00  0.00    -0.027 A 
HETATM   12  C   UNL     1       8.274  27.861  57.535  1.00  0.00     0.031 A 
HETATM   13  C   UNL     1       8.836  24.600  57.333  1.00  0.00     0.051 C 
HETATM   14  C   UNL     1       7.185  25.064  55.431  1.00  0.00     0.012 A 
HETATM   15  C   UNL     1       6.988  23.715  54.840  1.00  0.00     0.068 C 
HETATM   16  H   UNL     1       5.921  26.170  54.136  1.00  0.00     0.166 HD
ENDBRANCH   1   5
BRANCH   2  17
HETATM   17  C   UNL     1       7.799  31.725  60.204  1.00  0.00     0.147 C 
HETATM   18  C   UNL     1       8.647  31.371  61.469  1.00  0.00     0.149 C 
HETATM   19  C   UNL     1       7.642  31.097  62.605  1.00  0.00     0.073 C 
HETATM   20  C   UNL     1       6.456  31.905  62.179  1.00  0.00    -0.047 A 
HETATM   21  C   UNL     1       6.541  32.256  60.828  1.00  0.00    -0.027 A 
HETATM   22  C   UNL     1       5.355  32.262  62.940  1.00  0.00     0.008 A 
HETATM   23  C   UNL     1       5.527  32.975  60.212  1.00  0.00     0.010 A 
HETATM   24  C   UNL     1       4.419  33.347  60.974  1.00  0.00     0.001 A 
HETATM   25  C   UNL     1       4.334  32.993  62.329  1.00  0.00     0.001 A 
BRANCH  18  26
HETATM   26  O   UNL     1       9.527  30.262  61.307  1.00  0.00    -0.393 OA
HETATM   27  H   UNL     1      10.173  30.518  60.615  1.00  0.00     0.210 HD
ENDBRANCH  18  26
ENDBRANCH   2  17
TORSDOF 3
ENDMDL
MODEL 8
REMARK VINA RESULT:      -8.3      4.393      6.190
REMARK  3 active torsions:
REMARK  status: ('A' for Active; 'I' for Inactive)
REMARK    1  A    between atoms: C_7  and  C_8 
REMARK       I    between atoms: C_8  and  N_9 
REMARK    2  A    between atoms: N_9  and  C_10 
REMARK    3  A    between atoms: C_11  and  O_12 
ROOT
HETATM    1  C   UNL     1       7.583  27.484  54.058  1.00  0.00     0.252 C 
HETATM    2  N   UNL     1       7.740  27.937  55.346  1.00  0.00    -0.346 N 
HETATM    3  O   UNL     1       7.372  28.239  53.113  1.00  0.00    -0.268 OA
HETATM    4  H   UNL     1       7.833  27.280  56.108  1.00  0.00     0.163 HD
ENDROOT
BRANCH   1   5
HETATM    5  C   UNL     1       7.649  26.014  53.863  1.00  0.00     0.033 A 
HETATM    6  C   UNL     1       7.510  25.515  52.565  1.00  0.00     0.019 A 
HETATM    7  C   UNL     1       7.532  24.140  52.319  1.00  0.00     0.031 A 
HETATM    8  C   UNL     1       7.713  23.289  53.415  1.00  0.00     0.043 A 
HETATM    9  C   UNL     1       7.881  23.753  54.719  1.00  0.00    -0.001 A 
HETATM   10  N   UNL     1       7.773  21.917  53.463  1.00  0.00    -0.359 N 
HETATM   11  C   UNL     1       8.064  22.608  55.561  1.00  0.00    -0.027 A 
HETATM   12  C   UNL     1       7.849  25.145  54.947  1.00  0.00     0.031 A 
HETATM   13  C   UNL     1       8.298  22.606  57.032  1.00  0.00     0.051 C 
HETATM   14  C   UNL     1       7.981  21.488  54.750  1.00  0.00     0.012 A 
HETATM   15  C   UNL     1       8.087  20.043  55.082  1.00  0.00     0.068 C 
HETATM   16  H   UNL     1       7.681  21.314  52.658  1.00  0.00     0.166 HD
ENDBRANCH   1   5
BRANCH   2  17
HETATM   17  C   UNL     1       7.537  29.335  55.675  1.00  0.00     0.147 C 
HETATM   18  C   UNL     1       8.191  29.795  57.017  1.00  0.00     0.149 C 
HETATM   19  C   UNL     1       7.106  29.654  58.103  1.00  0.00     0.073 C 
HETATM   20  C   UNL     1       5.845  29.790  57.308  1.00  0.00    -0.047 A 
HETATM   21  C   UNL     1       6.085  29.608  55.942  1.00  0.00    -0.027 A 
HETATM   22  C   UNL     1       4.564  30.017  57.783  1.00  0.00     0.008 A 
HETATM   23  C   UNL     1       5.047  29.653  55.023  1.00  0.00     0.010 A 
HETATM   24  C   UNL     1       3.754  29.891  55.492  1.00  0.00     0.001 A 
HETATM   25  C   UNL     1       3.515  30.073  56.863  1.00  0.00     0.001 A 
BRANCH  18  26
HETATM   26  O   UNL     1       9.362  29.074  57.389  1.00  0.00    -0.393 OA
HETATM   27  H   UNL     1       9.858  28.902  56.561  1.00  0.00     0.210 HD
ENDBRANCH  18  26
ENDBRANCH   2  17
TORSDOF 3
ENDMDL
MODEL 9
REMARK VINA RESULT:      -8.0      2.497      7.780
REMARK  3 active torsions:
REMARK  status: ('A' for Active; 'I' for Inactive)
REMARK    1  A    between atoms: C_7  and  C_8 
REMARK       I    between atoms: C_8  and  N_9 
REMARK    2  A    between atoms: N_9  and  C_10 
REMARK    3  A    between atoms: C_11  and  O_12 
ROOT
HETATM    1  C   UNL     1       6.445  26.208  52.065  1.00  0.00     0.252 C 
HETATM    2  N   UNL     1       6.494  26.718  53.340  1.00  0.00    -0.346 N 
HETATM    3  O   UNL     1       7.199  25.320  51.679  1.00  0.00    -0.268 OA
HETATM    4  H   UNL     1       5.910  27.502  53.597  1.00  0.00     0.163 HD
ENDROOT
BRANCH   1   5
HETATM    5  C   UNL     1       5.443  26.812  51.150  1.00  0.00     0.033 A 
HETATM    6  C   UNL     1       5.154  28.171  51.297  1.00  0.00     0.019 A 
HETATM    7  C   UNL     1       4.200  28.793  50.489  1.00  0.00     0.031 A 
HETATM    8  C   UNL     1       3.560  28.008  49.522  1.00  0.00     0.043 A 
HETATM    9  C   UNL     1       3.842  26.657  49.330  1.00  0.00    -0.001 A 
HETATM   10  N   UNL     1       2.595  28.353  48.606  1.00  0.00    -0.359 N 
HETATM   11  C   UNL     1       3.024  26.196  48.249  1.00  0.00    -0.027 A 
HETATM   12  C   UNL     1       4.806  26.046  50.162  1.00  0.00     0.031 A 
HETATM   13  C   UNL     1       2.991  24.824  47.671  1.00  0.00     0.051 C 
HETATM   14  C   UNL     1       2.257  27.272  47.831  1.00  0.00     0.012 A 
HETATM   15  C   UNL     1       1.234  27.372  46.758  1.00  0.00     0.068 C 
HETATM   16  H   UNL     1       2.198  29.277  48.518  1.00  0.00     0.166 HD
ENDBRANCH   1   5
BRANCH   2  17
HETATM   17  C   UNL     1       7.536  26.314  54.265  1.00  0.00     0.147 C 
HETATM   18  C   UNL     1       7.215  25.028  55.094  1.00  0.00     0.149 C 
HETATM   19  C   UNL     1       6.589  25.507  56.419  1.00  0.00     0.073 C 
HETATM   20  C   UNL     1       7.169  26.879  56.564  1.00  0.00    -0.047 A 
HETATM   21  C   UNL     1       7.700  27.336  55.353  1.00  0.00    -0.027 A 
HETATM   22  C   UNL     1       7.181  27.680  57.694  1.00  0.00     0.008 A 
HETATM   23  C   UNL     1       8.256  28.603  55.250  1.00  0.00     0.010 A 
HETATM   24  C   UNL     1       8.280  29.412  56.386  1.00  0.00     0.001 A 
HETATM   25  C   UNL     1       7.747  28.953  57.600  1.00  0.00     0.001 A 
BRANCH  18  26
HETATM   26  O   UNL     1       6.352  24.099  54.445  1.00  0.00    -0.393 OA
HETATM   27  H   UNL     1       5.823  24.614  53.799  1.00  0.00     0.210 HD
ENDBRANCH  18  26
ENDBRANCH   2  17
TORSDOF 3
ENDMDL
MODEL 10
REMARK VINA RESULT:      -8.0      2.111      3.320
REMARK  3 active torsions:
REMARK  status: ('A' for Active; 'I' for Inactive)
REMARK    1  A    between atoms: C_7  and  C_8 
REMARK       I    between atoms: C_8  and  N_9 
REMARK    2  A    between atoms: N_9  and  C_10 
REMARK    3  A    between atoms: C_11  and  O_12 
ROOT
HETATM    1  C   UNL     1       4.466  27.385  52.262  1.00  0.00     0.252 C 
HETATM    2  N   UNL     1       4.268  27.612  50.921  1.00  0.00    -0.346 N 
HETATM    3  O   UNL     1       3.851  27.994  53.133  1.00  0.00    -0.268 OA
HETATM    4  H   UNL     1       4.849  27.149  50.235  1.00  0.00     0.163 HD
ENDROOT
BRANCH   1   5
HETATM    5  C   UNL     1       5.497  26.378  52.615  1.00  0.00     0.033 A 
HETATM    6  C   UNL     1       6.279  25.847  51.586  1.00  0.00     0.019 A 
HETATM    7  C   UNL     1       7.245  24.873  51.848  1.00  0.00     0.031 A 
HETATM    8  C   UNL     1       7.409  24.464  53.177  1.00  0.00     0.043 A 
HETATM    9  C   UNL     1       6.665  24.991  54.232  1.00  0.00    -0.001 A 
HETATM   10  N   UNL     1       8.270  23.538  53.713  1.00  0.00    -0.359 N 
HETATM   11  C   UNL     1       7.122  24.361  55.435  1.00  0.00    -0.027 A 
HETATM   12  C   UNL     1       5.690  25.970  53.945  1.00  0.00     0.031 A 
HETATM   13  C   UNL     1       6.635  24.615  56.819  1.00  0.00     0.051 C 
HETATM   14  C   UNL     1       8.110  23.459  55.074  1.00  0.00     0.012 A 
HETATM   15  C   UNL     1       8.922  22.531  55.902  1.00  0.00     0.068 C 
HETATM   16  H   UNL     1       8.931  22.996  53.174  1.00  0.00     0.166 HD
ENDBRANCH   1   5
BRANCH   2  17
HETATM   17  C   UNL     1       3.402  28.684  50.466  1.00  0.00     0.147 C 
HETATM   18  C   UNL     1       2.597  28.369  49.164  1.00  0.00     0.149 C 
HETATM   19  C   UNL     1       3.439  28.904  47.989  1.00  0.00     0.073 C 
HETATM   20  C   UNL     1       4.232  29.994  48.640  1.00  0.00    -0.047 A 
HETATM   21  C   UNL     1       4.215  29.870  50.034  1.00  0.00    -0.027 A 
HETATM   22  C   UNL     1       4.955  31.001  48.023  1.00  0.00     0.008 A 
HETATM   23  C   UNL     1       4.920  30.754  50.837  1.00  0.00     0.010 A 
HETATM   24  C   UNL     1       5.643  31.778  50.224  1.00  0.00     0.001 A 
HETATM   25  C   UNL     1       5.660  31.900  48.826  1.00  0.00     0.001 A 
BRANCH  18  26
HETATM   26  O   UNL     1       2.292  26.991  48.969  1.00  0.00    -0.393 OA
HETATM   27  H   UNL     1       1.314  26.920  48.960  1.00  0.00     0.210 HD
ENDBRANCH  18  26
ENDBRANCH   2  17
TORSDOF 3
ENDMDL
