MODEL 1
REMARK VINA RESULT:     -10.7      0.000      0.000
REMARK  5 active torsions:
REMARK  status: ('A' for Active; 'I' for Inactive)
REMARK    1  A    between atoms: O_2  and  C_3 
REMARK    2  A    between atoms: C_10  and  C_11 
REMARK    3  A    between atoms: C_11  and  C_12 
REMARK       I    between atoms: C_12  and  N_13 
REMARK    4  A    between atoms: N_13  and  C_14 
REMARK    5  A    between atoms: C_16  and  C_17 
ROOT
HETATM    1  C   UNL     1       7.623  28.549  57.034  1.00  0.00     0.035 A 
HETATM    2  C   UNL     1       7.570  29.070  58.336  1.00  0.00     0.046 A 
HETATM    3  C   UNL     1       8.514  30.014  58.783  1.00  0.00     0.036 A 
HETATM    4  C   UNL     1       9.515  30.445  57.904  1.00  0.00     0.048 A 
HETATM    5 CL   UNL     1      10.731  31.582  58.371  1.00  0.00    -0.083 Cl
HETATM    6  C   UNL     1       9.571  29.935  56.607  1.00  0.00     0.027 A 
HETATM    7  C   UNL     1       8.631  28.991  56.177  1.00  0.00     0.031 A 
ENDROOT
BRANCH   1   8
HETATM    8  N   UNL     1       6.611  27.641  56.652  1.00  0.00    -0.327 N 
HETATM    9  C   UNL     1       6.544  26.286  56.956  1.00  0.00     0.226 C 
HETATM   10  O   UNL     1       7.253  25.700  57.771  1.00  0.00    -0.273 OA
HETATM   11  H   UNL     1       5.862  28.012  56.080  1.00  0.00     0.169 HD
BRANCH   9  12
HETATM   12  C   UNL     1       5.534  25.535  56.113  1.00  0.00     0.144 C 
BRANCH  12  13
HETATM   13  C   UNL     1       6.027  24.872  54.863  1.00  0.00    -0.021 A 
HETATM   14  C   UNL     1       6.921  23.761  54.661  1.00  0.00     0.001 A 
HETATM   15  C   UNL     1       7.623  22.865  55.498  1.00  0.00     0.051 A 
HETATM   16  C   UNL     1       7.099  23.619  53.280  1.00  0.00     0.043 A 
HETATM   17  C   UNL     1       8.460  21.877  54.950  1.00  0.00     0.069 A 
HETATM   18  C   UNL     1       8.611  21.781  53.569  1.00  0.00     0.039 A 
HETATM   19  C   UNL     1       7.933  22.650  52.711  1.00  0.00     0.033 A 
HETATM   20  N   UNL     1       6.339  24.581  52.665  1.00  0.00    -0.365 N 
HETATM   21  H   UNL     1       6.291  24.719  51.665  1.00  0.00     0.165 HD
HETATM   22  C   UNL     1       5.688  25.331  53.599  1.00  0.00     0.097 A 
BRANCH  17  23
HETATM   23  O   UNL     1       9.070  21.072  55.875  1.00  0.00    -0.356 OA
HETATM   24  C   UNL     1       8.483  21.020  57.170  1.00  0.00     0.210 C 
ENDBRANCH  17  23
ENDBRANCH  12  13
ENDBRANCH   9  12
ENDBRANCH   1   8
BRANCH   3  25
HETATM   25  C   UNL     1       8.412  30.533  60.142  1.00  0.00     0.165 A 
HETATM   26  N   UNL     1       7.477  31.442  60.591  1.00  0.00    -0.316 N 
HETATM   27  C   UNL     1       7.744  31.637  61.924  1.00  0.00     0.130 A 
HETATM   28  C   UNL     1       6.468  32.084  59.774  1.00  0.00     0.132 C 
HETATM   29  C   UNL     1       7.000  32.536  62.848  1.00  0.00     0.081 C 
HETATM   30  N   UNL     1       8.782  30.900  62.259  1.00  0.00    -0.134 NA
HETATM   31  C   UNL     1       6.658  33.880  62.215  1.00  0.00     0.008 C 
HETATM   32  C   UNL     1       5.420  33.840  61.318  1.00  0.00     0.002 C 
HETATM   33  C   UNL     1       5.219  32.558  60.509  1.00  0.00     0.020 C 
HETATM   34  N   UNL     1       9.199  30.214  61.149  1.00  0.00    -0.129 NA
ENDBRANCH   3  25
TORSDOF 5
ENDMDL
MODEL 2
REMARK VINA RESULT:     -10.3      3.591     10.707
REMARK  5 active torsions:
REMARK  status: ('A' for Active; 'I' for Inactive)
REMARK    1  A    between atoms: O_2  and  C_3 
REMARK    2  A    between atoms: C_10  and  C_11 
REMARK    3  A    between atoms: C_11  and  C_12 
REMARK       I    between atoms: C_12  and  N_13 
REMARK    4  A    between atoms: N_13  and  C_14 
REMARK    5  A    between atoms: C_16  and  C_17 
ROOT
HETATM    1  C   UNL     1       8.546  30.322  59.210  1.00  0.00     0.035 A 
HETATM    2  C   UNL     1       7.696  29.575  58.381  1.00  0.00     0.046 A 
HETATM    3  C   UNL     1       8.087  29.205  57.080  1.00  0.00     0.036 A 
HETATM    4  C   UNL     1       9.353  29.582  56.615  1.00  0.00     0.048 A 
HETATM    5 CL   UNL     1       9.910  29.193  55.026  1.00  0.00    -0.083 Cl
HETATM    6  C   UNL     1      10.205  30.320  57.437  1.00  0.00     0.027 A 
HETATM    7  C   UNL     1       9.801  30.690  58.725  1.00  0.00     0.031 A 
ENDROOT
BRANCH   1   8
HETATM    8  N   UNL     1       8.094  30.613  60.516  1.00  0.00    -0.327 N 
HETATM    9  C   UNL     1       8.116  31.848  61.153  1.00  0.00     0.226 C 
HETATM   10  O   UNL     1       8.351  32.927  60.615  1.00  0.00    -0.273 OA
HETATM   11  H   UNL     1       7.730  29.835  61.053  1.00  0.00     0.169 HD
BRANCH   9  12
HETATM   12  C   UNL     1       7.890  31.752  62.649  1.00  0.00     0.144 C 
BRANCH  12  13
HETATM   13  C   UNL     1       6.619  32.324  63.200  1.00  0.00    -0.021 A 
HETATM   14  C   UNL     1       6.343  33.032  64.422  1.00  0.00     0.001 A 
HETATM   15  C   UNL     1       7.108  33.493  65.516  1.00  0.00     0.051 A 
HETATM   16  C   UNL     1       4.963  33.259  64.466  1.00  0.00     0.043 A 
HETATM   17  C   UNL     1       6.493  34.151  66.596  1.00  0.00     0.069 A 
HETATM   18  C   UNL     1       5.114  34.345  66.598  1.00  0.00     0.039 A 
HETATM   19  C   UNL     1       4.326  33.903  65.533  1.00  0.00     0.033 A 
HETATM   20  N   UNL     1       4.421  32.733  63.321  1.00  0.00    -0.365 N 
HETATM   21  H   UNL     1       3.436  32.742  63.097  1.00  0.00     0.165 HD
HETATM   22  C   UNL     1       5.401  32.177  62.553  1.00  0.00     0.097 A 
BRANCH  17  23
HETATM   23  O   UNL     1       7.355  34.554  67.582  1.00  0.00    -0.356 OA
HETATM   24  C   UNL     1       6.891  34.451  68.924  1.00  0.00     0.210 C 
ENDBRANCH  17  23
ENDBRANCH  12  13
ENDBRANCH   9  12
ENDBRANCH   1   8
BRANCH   3  25
HETATM   25  C   UNL     1       7.172  28.420  56.258  1.00  0.00     0.165 A 
HETATM   26  N   UNL     1       7.130  27.043  56.186  1.00  0.00    -0.316 N 
HETATM   27  C   UNL     1       6.120  26.739  55.307  1.00  0.00     0.130 A 
HETATM   28  C   UNL     1       8.029  26.138  56.871  1.00  0.00     0.132 C 
HETATM   29  C   UNL     1       5.689  25.372  54.901  1.00  0.00     0.081 C 
HETATM   30  N   UNL     1       5.590  27.861  54.867  1.00  0.00    -0.134 NA
HETATM   31  C   UNL     1       6.865  24.438  54.640  1.00  0.00     0.008 C 
HETATM   32  C   UNL     1       7.462  23.831  55.911  1.00  0.00     0.002 C 
HETATM   33  C   UNL     1       7.485  24.739  57.141  1.00  0.00     0.020 C 
HETATM   34  N   UNL     1       6.246  28.908  55.458  1.00  0.00    -0.129 NA
ENDBRANCH   3  25
TORSDOF 5
ENDMDL
MODEL 3
REMARK VINA RESULT:     -10.0      2.220      2.909
REMARK  5 active torsions:
REMARK  status: ('A' for Active; 'I' for Inactive)
REMARK    1  A    between atoms: O_2  and  C_3 
REMARK    2  A    between atoms: C_10  and  C_11 
REMARK    3  A    between atoms: C_11  and  C_12 
REMARK       I    between atoms: C_12  and  N_13 
REMARK    4  A    between atoms: N_13  and  C_14 
REMARK    5  A    between atoms: C_16  and  C_17 
ROOT
HETATM    1  C   UNL     1       4.772  29.391  56.672  1.00  0.00     0.035 A 
HETATM    2  C   UNL     1       4.989  30.047  57.893  1.00  0.00     0.046 A 
HETATM    3  C   UNL     1       5.060  31.452  57.963  1.00  0.00     0.036 A 
HETATM    4  C   UNL     1       4.899  32.201  56.791  1.00  0.00     0.048 A 
HETATM    5 CL   UNL     1       4.994  33.927  56.776  1.00  0.00    -0.083 Cl
HETATM    6  C   UNL     1       4.678  31.554  55.575  1.00  0.00     0.027 A 
HETATM    7  C   UNL     1       4.619  30.158  55.517  1.00  0.00     0.031 A 
ENDROOT
BRANCH   1   8
HETATM    8  N   UNL     1       4.670  27.982  56.698  1.00  0.00    -0.327 N 
HETATM    9  C   UNL     1       5.712  27.069  56.816  1.00  0.00     0.226 C 
HETATM   10  O   UNL     1       6.872  27.342  57.113  1.00  0.00    -0.273 OA
HETATM   11  H   UNL     1       3.739  27.594  56.603  1.00  0.00     0.169 HD
BRANCH   9  12
HETATM   12  C   UNL     1       5.307  25.653  56.459  1.00  0.00     0.144 C 
BRANCH  12  13
HETATM   13  C   UNL     1       5.787  25.100  55.152  1.00  0.00    -0.021 A 
HETATM   14  C   UNL     1       6.756  24.080  54.846  1.00  0.00     0.001 A 
HETATM   15  C   UNL     1       7.569  23.202  55.598  1.00  0.00     0.051 A 
HETATM   16  C   UNL     1       6.875  24.026  53.453  1.00  0.00     0.043 A 
HETATM   17  C   UNL     1       8.454  22.318  54.956  1.00  0.00     0.069 A 
HETATM   18  C   UNL     1       8.543  22.308  53.567  1.00  0.00     0.039 A 
HETATM   19  C   UNL     1       7.754  23.162  52.791  1.00  0.00     0.033 A 
HETATM   20  N   UNL     1       6.010  24.953  52.929  1.00  0.00    -0.365 N 
HETATM   21  H   UNL     1       5.900  25.140  51.942  1.00  0.00     0.165 HD
HETATM   22  C   UNL     1       5.349  25.597  53.933  1.00  0.00     0.097 A 
BRANCH  17  23
HETATM   23  O   UNL     1       9.173  21.518  55.805  1.00  0.00    -0.356 OA
HETATM   24  C   UNL     1       8.772  20.156  55.901  1.00  0.00     0.210 C 
ENDBRANCH  17  23
ENDBRANCH  12  13
ENDBRANCH   9  12
ENDBRANCH   1   8
BRANCH   3  25
HETATM   25  C   UNL     1       5.278  32.089  59.257  1.00  0.00     0.165 A 
HETATM   26  N   UNL     1       6.481  32.167  59.926  1.00  0.00    -0.316 N 
HETATM   27  C   UNL     1       6.227  32.854  61.088  1.00  0.00     0.130 A 
HETATM   28  C   UNL     1       7.728  31.577  59.486  1.00  0.00     0.132 C 
HETATM   29  C   UNL     1       7.219  33.192  62.145  1.00  0.00     0.081 C 
HETATM   30  N   UNL     1       4.948  33.165  61.124  1.00  0.00    -0.134 NA
HETATM   31  C   UNL     1       8.166  32.038  62.455  1.00  0.00     0.008 C 
HETATM   32  C   UNL     1       9.323  31.909  61.464  1.00  0.00     0.002 C 
HETATM   33  C   UNL     1       8.998  32.241  60.007  1.00  0.00     0.020 C 
HETATM   34  N   UNL     1       4.356  32.686  59.985  1.00  0.00    -0.129 NA
ENDBRANCH   3  25
TORSDOF 5
ENDMDL
MODEL 4
REMARK VINA RESULT:      -9.9      3.303      9.533
REMARK  5 active torsions:
REMARK  status: ('A' for Active; 'I' for Inactive)
REMARK    1  A    between atoms: O_2  and  C_3 
REMARK    2  A    between atoms: C_10  and  C_11 
REMARK    3  A    between atoms: C_11  and  C_12 
REMARK       I    between atoms: C_12  and  N_13 
REMARK    4  A    between atoms: N_13  and  C_14 
REMARK    5  A    between atoms: C_16  and  C_17 
ROOT
HETATM    1  C   UNL     1       6.830  30.628  58.280  1.00  0.00     0.035 A 
HETATM    2  C   UNL     1       6.746  29.696  57.235  1.00  0.00     0.046 A 
HETATM    3  C   UNL     1       7.904  29.197  56.608  1.00  0.00     0.036 A 
HETATM    4  C   UNL     1       9.159  29.636  57.047  1.00  0.00     0.048 A 
HETATM    5 CL   UNL     1      10.634  29.097  56.323  1.00  0.00    -0.083 Cl
HETATM    6  C   UNL     1       9.250  30.559  58.089  1.00  0.00     0.027 A 
HETATM    7  C   UNL     1       8.091  31.053  58.698  1.00  0.00     0.031 A 
ENDROOT
BRANCH   1   8
HETATM    8  N   UNL     1       5.623  31.043  58.884  1.00  0.00    -0.327 N 
HETATM    9  C   UNL     1       5.113  32.335  58.934  1.00  0.00     0.226 C 
HETATM   10  O   UNL     1       5.532  33.295  58.292  1.00  0.00    -0.273 OA
HETATM   11  H   UNL     1       5.077  30.325  59.345  1.00  0.00     0.169 HD
BRANCH   9  12
HETATM   12  C   UNL     1       3.995  32.496  59.944  1.00  0.00     0.144 C 
BRANCH  12  13
HETATM   13  C   UNL     1       4.372  32.861  61.348  1.00  0.00    -0.021 A 
HETATM   14  C   UNL     1       5.623  32.767  62.054  1.00  0.00     0.001 A 
HETATM   15  C   UNL     1       6.937  32.363  61.730  1.00  0.00     0.051 A 
HETATM   16  C   UNL     1       5.385  33.170  63.373  1.00  0.00     0.043 A 
HETATM   17  C   UNL     1       7.952  32.372  62.704  1.00  0.00     0.069 A 
HETATM   18  C   UNL     1       7.663  32.773  64.005  1.00  0.00     0.039 A 
HETATM   19  C   UNL     1       6.375  33.179  64.362  1.00  0.00     0.033 A 
HETATM   20  N   UNL     1       4.060  33.511  63.467  1.00  0.00    -0.365 N 
HETATM   21  H   UNL     1       3.608  33.825  64.315  1.00  0.00     0.165 HD
HETATM   22  C   UNL     1       3.445  33.338  62.263  1.00  0.00     0.097 A 
BRANCH  17  23
HETATM   23  O   UNL     1       9.179  31.967  62.250  1.00  0.00    -0.356 OA
HETATM   24  C   UNL     1       9.353  30.573  62.018  1.00  0.00     0.210 C 
ENDBRANCH  17  23
ENDBRANCH  12  13
ENDBRANCH   9  12
ENDBRANCH   1   8
BRANCH   3  25
HETATM   25  C   UNL     1       7.766  28.221  55.532  1.00  0.00     0.165 A 
HETATM   26  N   UNL     1       7.587  26.863  55.693  1.00  0.00    -0.316 N 
HETATM   27  C   UNL     1       7.498  26.339  54.426  1.00  0.00     0.130 A 
HETATM   28  C   UNL     1       7.564  26.161  56.959  1.00  0.00     0.132 C 
HETATM   29  C   UNL     1       7.300  24.904  54.080  1.00  0.00     0.081 C 
HETATM   30  N   UNL     1       7.623  27.317  53.554  1.00  0.00    -0.134 NA
HETATM   31  C   UNL     1       8.143  23.970  54.939  1.00  0.00     0.008 C 
HETATM   32  C   UNL     1       7.536  23.682  56.313  1.00  0.00     0.002 C 
HETATM   33  C   UNL     1       6.795  24.844  56.975  1.00  0.00     0.020 C 
HETATM   34  N   UNL     1       7.793  28.489  54.243  1.00  0.00    -0.129 NA
ENDBRANCH   3  25
TORSDOF 5
ENDMDL
MODEL 5
REMARK VINA RESULT:      -9.9      3.166     10.037
REMARK  5 active torsions:
REMARK  status: ('A' for Active; 'I' for Inactive)
REMARK    1  A    between atoms: O_2  and  C_3 
REMARK    2  A    between atoms: C_10  and  C_11 
REMARK    3  A    between atoms: C_11  and  C_12 
REMARK       I    between atoms: C_12  and  N_13 
REMARK    4  A    between atoms: N_13  and  C_14 
REMARK    5  A    between atoms: C_16  and  C_17 
ROOT
HETATM    1  C   UNL     1       8.599  30.169  59.071  1.00  0.00     0.035 A 
HETATM    2  C   UNL     1       7.708  29.449  58.262  1.00  0.00     0.046 A 
HETATM    3  C   UNL     1       8.033  29.122  56.931  1.00  0.00     0.036 A 
HETATM    4  C   UNL     1       9.275  29.516  56.417  1.00  0.00     0.048 A 
HETATM    5 CL   UNL     1       9.751  29.180  54.789  1.00  0.00    -0.083 Cl
HETATM    6  C   UNL     1      10.167  30.228  57.219  1.00  0.00     0.027 A 
HETATM    7  C   UNL     1       9.828  30.554  58.537  1.00  0.00     0.031 A 
ENDROOT
BRANCH   1   8
HETATM    8  N   UNL     1       8.213  30.416  60.407  1.00  0.00    -0.327 N 
HETATM    9  C   UNL     1       8.271  31.629  61.085  1.00  0.00     0.226 C 
HETATM   10  O   UNL     1       8.483  32.725  60.573  1.00  0.00    -0.273 OA
HETATM   11  H   UNL     1       7.874  29.621  60.936  1.00  0.00     0.169 HD
BRANCH   9  12
HETATM   12  C   UNL     1       8.120  31.482  62.585  1.00  0.00     0.144 C 
BRANCH  12  13
HETATM   13  C   UNL     1       7.197  32.431  63.288  1.00  0.00    -0.021 A 
HETATM   14  C   UNL     1       5.877  32.898  62.958  1.00  0.00     0.001 A 
HETATM   15  C   UNL     1       4.943  32.640  61.928  1.00  0.00     0.051 A 
HETATM   16  C   UNL     1       5.517  33.843  63.924  1.00  0.00     0.043 A 
HETATM   17  C   UNL     1       3.710  33.315  61.893  1.00  0.00     0.069 A 
HETATM   18  C   UNL     1       3.402  34.255  62.873  1.00  0.00     0.039 A 
HETATM   19  C   UNL     1       4.301  34.534  63.906  1.00  0.00     0.033 A 
HETATM   20  N   UNL     1       6.557  33.939  64.814  1.00  0.00    -0.365 N 
HETATM   21  H   UNL     1       6.575  34.562  65.609  1.00  0.00     0.165 HD
HETATM   22  C   UNL     1       7.564  33.095  64.449  1.00  0.00     0.097 A 
BRANCH  17  23
HETATM   23  O   UNL     1       2.899  32.962  60.847  1.00  0.00    -0.356 OA
HETATM   24  C   UNL     1       3.401  31.983  59.944  1.00  0.00     0.210 C 
ENDBRANCH  17  23
ENDBRANCH  12  13
ENDBRANCH   9  12
ENDBRANCH   1   8
BRANCH   3  25
HETATM   25  C   UNL     1       7.078  28.364  56.132  1.00  0.00     0.165 A 
HETATM   26  N   UNL     1       7.019  26.989  56.033  1.00  0.00    -0.316 N 
HETATM   27  C   UNL     1       5.971  26.713  55.189  1.00  0.00     0.130 A 
HETATM   28  C   UNL     1       7.935  26.060  56.662  1.00  0.00     0.132 C 
HETATM   29  C   UNL     1       5.510  25.359  54.773  1.00  0.00     0.081 C 
HETATM   30  N   UNL     1       5.435  27.848  54.795  1.00  0.00    -0.134 NA
HETATM   31  C   UNL     1       6.665  24.419  54.445  1.00  0.00     0.008 C 
HETATM   32  C   UNL     1       7.306  23.780  55.678  1.00  0.00     0.002 C 
HETATM   33  C   UNL     1       7.388  24.662  56.925  1.00  0.00     0.020 C 
HETATM   34  N   UNL     1       6.125  28.877  55.380  1.00  0.00    -0.129 NA
ENDBRANCH   3  25
TORSDOF 5
ENDMDL
MODEL 6
REMARK VINA RESULT:      -9.9      4.452     11.034
REMARK  5 active torsions:
REMARK  status: ('A' for Active; 'I' for Inactive)
REMARK    1  A    between atoms: O_2  and  C_3 
REMARK    2  A    between atoms: C_10  and  C_11 
REMARK    3  A    between atoms: C_11  and  C_12 
REMARK       I    between atoms: C_12  and  N_13 
REMARK    4  A    between atoms: N_13  and  C_14 
REMARK    5  A    between atoms: C_16  and  C_17 
ROOT
HETATM    1  C   UNL     1       9.007  31.375  60.625  1.00  0.00     0.035 A 
HETATM    2  C   UNL     1       8.257  30.385  59.972  1.00  0.00     0.046 A 
HETATM    3  C   UNL     1       8.575  29.974  58.663  1.00  0.00     0.036 A 
HETATM    4  C   UNL     1       9.668  30.559  58.012  1.00  0.00     0.048 A 
HETATM    5 CL   UNL     1      10.119  30.135  56.398  1.00  0.00    -0.083 Cl
HETATM    6  C   UNL     1      10.420  31.540  58.658  1.00  0.00     0.027 A 
HETATM    7  C   UNL     1      10.089  31.946  59.955  1.00  0.00     0.031 A 
ENDROOT
BRANCH   1   8
HETATM    8  N   UNL     1       8.648  31.696  61.952  1.00  0.00    -0.327 N 
HETATM    9  C   UNL     1       7.727  32.655  62.362  1.00  0.00     0.226 C 
HETATM   10  O   UNL     1       6.933  33.242  61.631  1.00  0.00    -0.273 OA
HETATM   11  H   UNL     1       9.124  31.187  62.687  1.00  0.00     0.169 HD
BRANCH   9  12
HETATM   12  C   UNL     1       7.833  32.992  63.835  1.00  0.00     0.144 C 
BRANCH  12  13
HETATM   13  C   UNL     1       6.563  33.290  64.574  1.00  0.00    -0.021 A 
HETATM   14  C   UNL     1       6.328  33.820  65.891  1.00  0.00     0.001 A 
HETATM   15  C   UNL     1       7.138  34.293  66.948  1.00  0.00     0.051 A 
HETATM   16  C   UNL     1       4.945  33.811  66.101  1.00  0.00     0.043 A 
HETATM   17  C   UNL     1       6.561  34.732  68.153  1.00  0.00     0.069 A 
HETATM   18  C   UNL     1       5.179  34.695  68.317  1.00  0.00     0.039 A 
HETATM   19  C   UNL     1       4.347  34.233  67.293  1.00  0.00     0.033 A 
HETATM   20  N   UNL     1       4.359  33.316  64.963  1.00  0.00    -0.365 N 
HETATM   21  H   UNL     1       3.364  33.184  64.843  1.00  0.00     0.165 HD
HETATM   22  C   UNL     1       5.314  33.007  64.041  1.00  0.00     0.097 A 
BRANCH  17  23
HETATM   23  O   UNL     1       7.461  35.173  69.087  1.00  0.00    -0.356 OA
HETATM   24  C   UNL     1       7.571  34.415  70.285  1.00  0.00     0.210 C 
ENDBRANCH  17  23
ENDBRANCH  12  13
ENDBRANCH   9  12
ENDBRANCH   1   8
BRANCH   3  25
HETATM   25  C   UNL     1       7.771  28.934  58.030  1.00  0.00     0.165 A 
HETATM   26  N   UNL     1       6.668  29.143  57.228  1.00  0.00    -0.316 N 
HETATM   27  C   UNL     1       6.234  27.897  56.846  1.00  0.00     0.130 A 
HETATM   28  C   UNL     1       6.081  30.431  56.922  1.00  0.00     0.132 C 
HETATM   29  C   UNL     1       5.067  27.603  55.969  1.00  0.00     0.081 C 
HETATM   30  N   UNL     1       7.019  26.991  57.389  1.00  0.00    -0.134 NA
HETATM   31  C   UNL     1       3.853  28.466  56.295  1.00  0.00     0.008 C 
HETATM   32  C   UNL     1       3.912  29.866  55.682  1.00  0.00     0.002 C 
HETATM   33  C   UNL     1       5.296  30.512  55.618  1.00  0.00     0.020 C 
HETATM   34  N   UNL     1       7.975  27.637  58.129  1.00  0.00    -0.129 NA
ENDBRANCH   3  25
TORSDOF 5
ENDMDL
MODEL 7
REMARK VINA RESULT:      -9.7      2.770      9.945
REMARK  5 active torsions:
REMARK  status: ('A' for Active; 'I' for Inactive)
REMARK    1  A    between atoms: O_2  and  C_3 
REMARK    2  A    between atoms: C_10  and  C_11 
REMARK    3  A    between atoms: C_11  and  C_12 
REMARK       I    between atoms: C_12  and  N_13 
REMARK    4  A    between atoms: N_13  and  C_14 
REMARK    5  A    between atoms: C_16  and  C_17 
ROOT
HETATM    1  C   UNL     1       7.147  29.016  55.844  1.00  0.00     0.035 A 
HETATM    2  C   UNL     1       7.580  27.875  55.153  1.00  0.00     0.046 A 
HETATM    3  C   UNL     1       6.730  27.198  54.257  1.00  0.00     0.036 A 
HETATM    4  C   UNL     1       5.434  27.686  54.048  1.00  0.00     0.048 A 
HETATM    5 CL   UNL     1       4.313  26.909  52.985  1.00  0.00    -0.083 Cl
HETATM    6  C   UNL     1       4.999  28.823  54.728  1.00  0.00     0.027 A 
HETATM    7  C   UNL     1       5.850  29.481  55.623  1.00  0.00     0.031 A 
ENDROOT
BRANCH   1   8
HETATM    8  N   UNL     1       8.077  29.659  56.689  1.00  0.00    -0.327 N 
HETATM    9  C   UNL     1       8.391  29.320  58.001  1.00  0.00     0.226 C 
HETATM   10  O   UNL     1       8.055  28.286  58.572  1.00  0.00    -0.273 OA
HETATM   11  H   UNL     1       8.555  30.467  56.306  1.00  0.00     0.169 HD
BRANCH   9  12
HETATM   12  C   UNL     1       9.153  30.406  58.732  1.00  0.00     0.144 C 
BRANCH  12  13
HETATM   13  C   UNL     1       8.626  30.852  60.062  1.00  0.00    -0.021 A 
HETATM   14  C   UNL     1       7.495  31.670  60.414  1.00  0.00     0.001 A 
HETATM   15  C   UNL     1       6.455  32.314  59.705  1.00  0.00     0.051 A 
HETATM   16  C   UNL     1       7.520  31.836  61.803  1.00  0.00     0.043 A 
HETATM   17  C   UNL     1       5.494  33.084  60.384  1.00  0.00     0.069 A 
HETATM   18  C   UNL     1       5.566  33.225  61.767  1.00  0.00     0.039 A 
HETATM   19  C   UNL     1       6.580  32.604  62.500  1.00  0.00     0.033 A 
HETATM   20  N   UNL     1       8.600  31.139  62.282  1.00  0.00    -0.365 N 
HETATM   21  H   UNL     1       8.868  31.098  63.255  1.00  0.00     0.165 HD
HETATM   22  C   UNL     1       9.265  30.541  61.253  1.00  0.00     0.097 A 
BRANCH  17  23
HETATM   23  O   UNL     1       4.538  33.641  59.576  1.00  0.00    -0.356 OA
HETATM   24  C   UNL     1       4.774  33.596  58.174  1.00  0.00     0.210 C 
ENDBRANCH  17  23
ENDBRANCH  12  13
ENDBRANCH   9  12
ENDBRANCH   1   8
BRANCH   3  25
HETATM   25  C   UNL     1       7.229  26.021  53.554  1.00  0.00     0.165 A 
HETATM   26  N   UNL     1       7.514  24.800  54.127  1.00  0.00    -0.316 N 
HETATM   27  C   UNL     1       7.944  23.990  53.104  1.00  0.00     0.130 A 
HETATM   28  C   UNL     1       7.421  24.490  55.539  1.00  0.00     0.132 C 
HETATM   29  C   UNL     1       8.368  22.568  53.226  1.00  0.00     0.081 C 
HETATM   30  N   UNL     1       7.929  24.681  51.984  1.00  0.00    -0.134 NA
HETATM   31  C   UNL     1       9.241  22.317  54.450  1.00  0.00     0.008 C 
HETATM   32  C   UNL     1       8.448  22.152  55.748  1.00  0.00     0.002 C 
HETATM   33  C   UNL     1       7.198  23.022  55.885  1.00  0.00     0.020 C 
HETATM   34  N   UNL     1       7.486  25.947  52.264  1.00  0.00    -0.129 NA
ENDBRANCH   3  25
TORSDOF 5
ENDMDL
MODEL 8
REMARK VINA RESULT:      -9.4      2.709      3.931
REMARK  5 active torsions:
REMARK  status: ('A' for Active; 'I' for Inactive)
REMARK    1  A    between atoms: O_2  and  C_3 
REMARK    2  A    between atoms: C_10  and  C_11 
REMARK    3  A    between atoms: C_11  and  C_12 
REMARK       I    between atoms: C_12  and  N_13 
REMARK    4  A    between atoms: N_13  and  C_14 
REMARK    5  A    between atoms: C_16  and  C_17 
ROOT
HETATM    1  C   UNL     1       4.810  29.610  56.882  1.00  0.00     0.035 A 
HETATM    2  C   UNL     1       4.979  30.296  58.094  1.00  0.00     0.046 A 
HETATM    3  C   UNL     1       5.017  31.703  58.136  1.00  0.00     0.036 A 
HETATM    4  C   UNL     1       4.871  32.425  56.944  1.00  0.00     0.048 A 
HETATM    5 CL   UNL     1       4.928  34.152  56.896  1.00  0.00    -0.083 Cl
HETATM    6  C   UNL     1       4.697  31.748  55.737  1.00  0.00     0.027 A 
HETATM    7  C   UNL     1       4.670  30.349  55.708  1.00  0.00     0.031 A 
ENDROOT
BRANCH   1   8
HETATM    8  N   UNL     1       4.738  28.200  56.934  1.00  0.00    -0.327 N 
HETATM    9  C   UNL     1       5.802  27.311  57.032  1.00  0.00     0.226 C 
HETATM   10  O   UNL     1       6.966  27.613  57.285  1.00  0.00    -0.273 OA
HETATM   11  H   UNL     1       3.813  27.791  56.878  1.00  0.00     0.169 HD
BRANCH   9  12
HETATM   12  C   UNL     1       5.416  25.881  56.713  1.00  0.00     0.144 C 
BRANCH  12  13
HETATM   13  C   UNL     1       6.369  25.069  55.889  1.00  0.00    -0.021 A 
HETATM   14  C   UNL     1       6.634  25.054  54.475  1.00  0.00     0.001 A 
HETATM   15  C   UNL     1       6.171  25.779  53.353  1.00  0.00     0.051 A 
HETATM   16  C   UNL     1       7.564  24.037  54.238  1.00  0.00     0.043 A 
HETATM   17  C   UNL     1       6.637  25.477  52.061  1.00  0.00     0.069 A 
HETATM   18  C   UNL     1       7.557  24.449  51.876  1.00  0.00     0.039 A 
HETATM   19  C   UNL     1       8.037  23.712  52.961  1.00  0.00     0.033 A 
HETATM   20  N   UNL     1       7.870  23.468  55.448  1.00  0.00    -0.365 N 
HETATM   21  H   UNL     1       8.508  22.694  55.572  1.00  0.00     0.165 HD
HETATM   22  C   UNL     1       7.168  24.080  56.443  1.00  0.00     0.097 A 
BRANCH  17  23
HETATM   23  O   UNL     1       6.114  26.265  51.070  1.00  0.00    -0.356 OA
HETATM   24  C   UNL     1       5.067  27.155  51.439  1.00  0.00     0.210 C 
ENDBRANCH  17  23
ENDBRANCH  12  13
ENDBRANCH   9  12
ENDBRANCH   1   8
BRANCH   3  25
HETATM   25  C   UNL     1       5.186  32.371  59.421  1.00  0.00     0.165 A 
HETATM   26  N   UNL     1       6.345  32.403  60.169  1.00  0.00    -0.316 N 
HETATM   27  C   UNL     1       6.055  33.144  61.289  1.00  0.00     0.130 A 
HETATM   28  C   UNL     1       7.582  31.729  59.833  1.00  0.00     0.132 C 
HETATM   29  C   UNL     1       6.994  33.462  62.400  1.00  0.00     0.081 C 
HETATM   30  N   UNL     1       4.798  33.528  61.228  1.00  0.00    -0.134 NA
HETATM   31  C   UNL     1       7.848  32.267  62.809  1.00  0.00     0.008 C 
HETATM   32  C   UNL     1       9.059  32.038  61.904  1.00  0.00     0.002 C 
HETATM   33  C   UNL     1       8.851  32.337  60.418  1.00  0.00     0.020 C 
HETATM   34  N   UNL     1       4.256  33.045  60.066  1.00  0.00    -0.129 NA
ENDBRANCH   3  25
TORSDOF 5
ENDMDL
MODEL 9
REMARK VINA RESULT:      -9.3      2.745      3.920
REMARK  5 active torsions:
REMARK  status: ('A' for Active; 'I' for Inactive)
REMARK    1  A    between atoms: O_2  and  C_3 
REMARK    2  A    between atoms: C_10  and  C_11 
REMARK    3  A    between atoms: C_11  and  C_12 
REMARK       I    between atoms: C_12  and  N_13 
REMARK    4  A    between atoms: N_13  and  C_14 
REMARK    5  A    between atoms: C_16  and  C_17 
ROOT
HETATM    1  C   UNL     1       5.362  31.349  56.112  1.00  0.00     0.035 A 
HETATM    2  C   UNL     1       5.565  31.333  57.500  1.00  0.00     0.046 A 
HETATM    3  C   UNL     1       5.240  32.447  58.298  1.00  0.00     0.036 A 
HETATM    4  C   UNL     1       4.693  33.584  57.689  1.00  0.00     0.048 A 
HETATM    5 CL   UNL     1       4.285  35.006  58.583  1.00  0.00    -0.083 Cl
HETATM    6  C   UNL     1       4.484  33.604  56.310  1.00  0.00     0.027 A 
HETATM    7  C   UNL     1       4.819  32.493  55.528  1.00  0.00     0.031 A 
ENDROOT
BRANCH   1   8
HETATM    8  N   UNL     1       5.673  30.174  55.394  1.00  0.00    -0.327 N 
HETATM    9  C   UNL     1       5.007  28.955  55.453  1.00  0.00     0.226 C 
HETATM   10  O   UNL     1       3.920  28.759  55.991  1.00  0.00    -0.273 OA
HETATM   11  H   UNL     1       6.480  30.217  54.782  1.00  0.00     0.169 HD
BRANCH   9  12
HETATM   12  C   UNL     1       5.793  27.815  54.838  1.00  0.00     0.144 C 
BRANCH  12  13
HETATM   13  C   UNL     1       6.641  26.982  55.751  1.00  0.00    -0.021 A 
HETATM   14  C   UNL     1       7.345  25.746  55.535  1.00  0.00     0.001 A 
HETATM   15  C   UNL     1       7.555  24.882  54.437  1.00  0.00     0.051 A 
HETATM   16  C   UNL     1       7.908  25.370  56.760  1.00  0.00     0.043 A 
HETATM   17  C   UNL     1       8.300  23.699  54.586  1.00  0.00     0.069 A 
HETATM   18  C   UNL     1       8.833  23.364  55.828  1.00  0.00     0.039 A 
HETATM   19  C   UNL     1       8.646  24.194  56.936  1.00  0.00     0.033 A 
HETATM   20  N   UNL     1       7.582  26.336  57.677  1.00  0.00    -0.365 N 
HETATM   21  H   UNL     1       7.846  26.312  58.652  1.00  0.00     0.165 HD
HETATM   22  C   UNL     1       6.831  27.308  57.086  1.00  0.00     0.097 A 
BRANCH  17  23
HETATM   23  O   UNL     1       8.433  22.962  53.438  1.00  0.00    -0.356 OA
HETATM   24  C   UNL     1       7.936  21.630  53.467  1.00  0.00     0.210 C 
ENDBRANCH  17  23
ENDBRANCH  12  13
ENDBRANCH   9  12
ENDBRANCH   1   8
BRANCH   3  25
HETATM   25  C   UNL     1       5.461  32.380  59.738  1.00  0.00     0.165 A 
HETATM   26  N   UNL     1       6.678  32.196  60.360  1.00  0.00    -0.316 N 
HETATM   27  C   UNL     1       6.421  32.206  61.709  1.00  0.00     0.130 A 
HETATM   28  C   UNL     1       7.943  31.981  59.688  1.00  0.00     0.132 C 
HETATM   29  C   UNL     1       7.425  32.045  62.797  1.00  0.00     0.081 C 
HETATM   30  N   UNL     1       5.128  32.375  61.892  1.00  0.00    -0.134 NA
HETATM   31  C   UNL     1       8.445  30.952  62.500  1.00  0.00     0.008 C 
HETATM   32  C   UNL     1       9.577  31.402  61.575  1.00  0.00     0.002 C 
HETATM   33  C   UNL     1       9.188  32.385  60.470  1.00  0.00     0.020 C 
HETATM   34  N   UNL     1       4.530  32.481  60.664  1.00  0.00    -0.129 NA
ENDBRANCH   3  25
TORSDOF 5
ENDMDL
MODEL 10
REMARK VINA RESULT:      -9.3      5.089      8.381
REMARK  5 active torsions:
REMARK  status: ('A' for Active; 'I' for Inactive)
REMARK    1  A    between atoms: O_2  and  C_3 
REMARK    2  A    between atoms: C_10  and  C_11 
REMARK    3  A    between atoms: C_11  and  C_12 
REMARK       I    between atoms: C_12  and  N_13 
REMARK    4  A    between atoms: N_13  and  C_14 
REMARK    5  A    between atoms: C_16  and  C_17 
ROOT
HETATM    1  C   UNL     1       4.109  28.902  54.810  1.00  0.00     0.035 A 
HETATM    2  C   UNL     1       4.448  28.789  53.453  1.00  0.00     0.046 A 
HETATM    3  C   UNL     1       4.321  29.884  52.576  1.00  0.00     0.036 A 
HETATM    4  C   UNL     1       3.859  31.108  53.077  1.00  0.00     0.048 A 
HETATM    5 CL   UNL     1       3.649  32.498  52.072  1.00  0.00    -0.083 Cl
HETATM    6  C   UNL     1       3.525  31.227  54.426  1.00  0.00     0.027 A 
HETATM    7  C   UNL     1       3.647  30.129  55.285  1.00  0.00     0.031 A 
ENDROOT
BRANCH   1   8
HETATM    8  N   UNL     1       4.308  27.769  55.629  1.00  0.00    -0.327 N 
HETATM    9  C   UNL     1       5.433  27.475  56.392  1.00  0.00     0.226 C 
HETATM   10  O   UNL     1       6.356  28.248  56.633  1.00  0.00    -0.273 OA
HETATM   11  H   UNL     1       3.559  27.087  55.649  1.00  0.00     0.169 HD
BRANCH   9  12
HETATM   12  C   UNL     1       5.472  26.036  56.866  1.00  0.00     0.144 C 
BRANCH  12  13
HETATM   13  C   UNL     1       6.461  25.116  56.217  1.00  0.00    -0.021 A 
HETATM   14  C   UNL     1       6.798  24.901  54.834  1.00  0.00     0.001 A 
HETATM   15  C   UNL     1       6.399  25.459  53.599  1.00  0.00     0.051 A 
HETATM   16  C   UNL     1       7.732  23.860  54.793  1.00  0.00     0.043 A 
HETATM   17  C   UNL     1       6.929  24.978  52.389  1.00  0.00     0.069 A 
HETATM   18  C   UNL     1       7.850  23.934  52.399  1.00  0.00     0.039 A 
HETATM   19  C   UNL     1       8.267  23.357  53.601  1.00  0.00     0.033 A 
HETATM   20  N   UNL     1       7.971  23.468  56.085  1.00  0.00    -0.365 N 
HETATM   21  H   UNL     1       8.596  22.720  56.351  1.00  0.00     0.165 HD
HETATM   22  C   UNL     1       7.222  24.215  56.946  1.00  0.00     0.097 A 
BRANCH  17  23
HETATM   23  O   UNL     1       6.463  25.617  51.270  1.00  0.00    -0.356 OA
HETATM   24  C   UNL     1       5.078  25.942  51.244  1.00  0.00     0.210 C 
ENDBRANCH  17  23
ENDBRANCH  12  13
ENDBRANCH   9  12
ENDBRANCH   1   8
BRANCH   3  25
HETATM   25  C   UNL     1       4.695  29.720  51.176  1.00  0.00     0.165 A 
HETATM   26  N   UNL     1       3.863  29.290  50.163  1.00  0.00    -0.316 N 
HETATM   27  C   UNL     1       4.623  29.295  49.019  1.00  0.00     0.130 A 
HETATM   28  C   UNL     1       2.487  28.870  50.326  1.00  0.00     0.132 C 
HETATM   29  C   UNL     1       4.164  28.908  47.656  1.00  0.00     0.081 C 
HETATM   30  N   UNL     1       5.840  29.694  49.322  1.00  0.00    -0.134 NA
HETATM   31  C   UNL     1       3.293  27.656  47.662  1.00  0.00     0.008 C 
HETATM   32  C   UNL     1       1.834  27.924  48.036  1.00  0.00     0.002 C 
HETATM   33  C   UNL     1       1.600  29.004  49.093  1.00  0.00     0.020 C 
HETATM   34  N   UNL     1       5.886  29.957  50.665  1.00  0.00    -0.129 NA
ENDBRANCH   3  25
TORSDOF 5
ENDMDL
