MODEL 1
REMARK VINA RESULT:     -10.3      0.000      0.000
REMARK  4 active torsions:
REMARK  status: ('A' for Active; 'I' for Inactive)
REMARK    1  A    between atoms: C_9  and  C_10 
REMARK    2  A    between atoms: C_10  and  C_11 
REMARK       I    between atoms: C_11  and  N_12 
REMARK    3  A    between atoms: N_12  and  C_13 
REMARK    4  A    between atoms: C_15  and  C_16 
ROOT
HETATM    1  C   UNL     1       6.495  26.913  55.039  1.00  0.00     0.227 C 
HETATM    2  N   UNL     1       7.536  26.228  54.461  1.00  0.00    -0.327 N 
HETATM    3  O   UNL     1       5.492  26.392  55.528  1.00  0.00    -0.273 OA
HETATM    4  H   UNL     1       8.301  26.808  54.113  1.00  0.00     0.169 HD
ENDROOT
BRANCH   1   5
HETATM    5  C   UNL     1       6.610  28.426  55.084  1.00  0.00     0.165 C 
BRANCH   5   6
HETATM    6  C   UNL     1       6.852  29.173  56.383  1.00  0.00     0.074 A 
HETATM    7  C   UNL     1       8.252  29.546  56.726  1.00  0.00     0.006 A 
HETATM    8  C   UNL     1       9.348  29.256  55.904  1.00  0.00     0.014 A 
HETATM    9  C   UNL     1       8.461  30.221  57.928  1.00  0.00     0.046 A 
HETATM   10  C   UNL     1      10.636  29.633  56.294  1.00  0.00     0.001 A 
HETATM   11  C   UNL     1      10.839  30.303  57.501  1.00  0.00     0.001 A 
HETATM   12  C   UNL     1       9.750  30.600  58.320  1.00  0.00     0.018 A 
HETATM   13  C   UNL     1       7.307  30.541  58.779  1.00  0.00     0.272 A 
HETATM   14  O   UNL     1       7.436  31.131  59.845  1.00  0.00    -0.266 OA
HETATM   15  N   UNL     1       6.079  30.144  58.307  1.00  0.00    -0.243 N 
HETATM   16  N   UNL     1       5.842  29.477  57.147  1.00  0.00    -0.175 NA
HETATM   17  H   UNL     1       5.277  30.366  58.890  1.00  0.00     0.192 HD
ENDBRANCH   5   6
ENDBRANCH   1   5
BRANCH   2  18
HETATM   18  C   UNL     1       7.678  24.839  54.277  1.00  0.00     0.035 A 
HETATM   19  C   UNL     1       7.895  23.927  55.312  1.00  0.00     0.047 A 
HETATM   20  C   UNL     1       8.024  22.544  55.059  1.00  0.00     0.071 A 
HETATM   21  C   UNL     1       7.931  22.092  53.738  1.00  0.00     0.049 A 
HETATM   22 CL   UNL     1       8.074  20.423  53.324  1.00  0.00    -0.083 Cl
HETATM   23  C   UNL     1       7.715  22.997  52.698  1.00  0.00     0.027 A 
HETATM   24  C   UNL     1       7.588  24.362  52.966  1.00  0.00     0.031 A 
BRANCH  20  25
HETATM   25  C   UNL     1       8.254  21.590  56.199  1.00  0.00     0.419 C 
HETATM   26  F   UNL     1       9.429  20.903  56.106  1.00  0.00    -0.166 F 
HETATM   27  F   UNL     1       8.302  22.213  57.410  1.00  0.00    -0.166 F 
HETATM   28  F   UNL     1       7.288  20.635  56.297  1.00  0.00    -0.166 F 
ENDBRANCH  20  25
ENDBRANCH   2  18
TORSDOF 4
ENDMDL
MODEL 2
REMARK VINA RESULT:     -10.1      1.793      2.572
REMARK  4 active torsions:
REMARK  status: ('A' for Active; 'I' for Inactive)
REMARK    1  A    between atoms: C_9  and  C_10 
REMARK    2  A    between atoms: C_10  and  C_11 
REMARK       I    between atoms: C_11  and  N_12 
REMARK    3  A    between atoms: N_12  and  C_13 
REMARK    4  A    between atoms: C_15  and  C_16 
ROOT
HETATM    1  C   UNL     1       6.605  26.932  56.508  1.00  0.00     0.227 C 
HETATM    2  N   UNL     1       7.701  26.119  56.350  1.00  0.00    -0.327 N 
HETATM    3  O   UNL     1       5.470  26.673  56.107  1.00  0.00    -0.273 OA
HETATM    4  H   UNL     1       8.570  26.474  56.753  1.00  0.00     0.169 HD
ENDROOT
BRANCH   1   5
HETATM    5  C   UNL     1       6.821  28.240  57.248  1.00  0.00     0.165 C 
BRANCH   5   6
HETATM    6  C   UNL     1       8.184  28.904  57.323  1.00  0.00     0.074 A 
HETATM    7  C   UNL     1       8.347  30.066  58.239  1.00  0.00     0.006 A 
HETATM    8  C   UNL     1       7.313  30.563  59.042  1.00  0.00     0.014 A 
HETATM    9  C   UNL     1       9.601  30.674  58.288  1.00  0.00     0.046 A 
HETATM   10  C   UNL     1       7.539  31.663  59.874  1.00  0.00     0.001 A 
HETATM   11  C   UNL     1       8.793  32.270  59.914  1.00  0.00     0.001 A 
HETATM   12  C   UNL     1       9.828  31.775  59.122  1.00  0.00     0.018 A 
HETATM   13  C   UNL     1      10.689  30.138  57.459  1.00  0.00     0.272 A 
HETATM   14  O   UNL     1      11.808  30.637  57.464  1.00  0.00    -0.266 OA
HETATM   15  N   UNL     1      10.377  29.048  56.684  1.00  0.00    -0.243 N 
HETATM   16  N   UNL     1       9.165  28.437  56.605  1.00  0.00    -0.175 NA
HETATM   17  H   UNL     1      11.128  28.671  56.112  1.00  0.00     0.192 HD
ENDBRANCH   5   6
ENDBRANCH   1   5
BRANCH   2  18
HETATM   18  C   UNL     1       7.782  24.873  55.700  1.00  0.00     0.035 A 
HETATM   19  C   UNL     1       7.953  23.652  56.358  1.00  0.00     0.047 A 
HETATM   20  C   UNL     1       8.022  22.435  55.643  1.00  0.00     0.071 A 
HETATM   21  C   UNL     1       7.918  22.469  54.249  1.00  0.00     0.049 A 
HETATM   22 CL   UNL     1       7.989  21.039  53.286  1.00  0.00    -0.083 Cl
HETATM   23  C   UNL     1       7.748  23.685  53.584  1.00  0.00     0.027 A 
HETATM   24  C   UNL     1       7.680  24.879  54.306  1.00  0.00     0.031 A 
BRANCH  20  25
HETATM   25  C   UNL     1       8.202  21.140  56.385  1.00  0.00     0.419 C 
HETATM   26  F   UNL     1       7.186  20.251  56.185  1.00  0.00    -0.166 F 
HETATM   27  F   UNL     1       9.334  20.473  56.022  1.00  0.00    -0.166 F 
HETATM   28  F   UNL     1       8.272  21.305  57.735  1.00  0.00    -0.166 F 
ENDBRANCH  20  25
ENDBRANCH   2  18
TORSDOF 4
ENDMDL
MODEL 3
REMARK VINA RESULT:     -10.1      5.038      8.538
REMARK  4 active torsions:
REMARK  status: ('A' for Active; 'I' for Inactive)
REMARK    1  A    between atoms: C_9  and  C_10 
REMARK    2  A    between atoms: C_10  and  C_11 
REMARK       I    between atoms: C_11  and  N_12 
REMARK    3  A    between atoms: N_12  and  C_13 
REMARK    4  A    between atoms: C_15  and  C_16 
ROOT
HETATM    1  C   UNL     1       7.050  28.056  57.035  1.00  0.00     0.227 C 
HETATM    2  N   UNL     1       7.941  29.016  57.448  1.00  0.00    -0.327 N 
HETATM    3  O   UNL     1       5.910  27.913  57.479  1.00  0.00    -0.273 OA
HETATM    4  H   UNL     1       8.843  29.010  56.969  1.00  0.00     0.169 HD
ENDROOT
BRANCH   1   5
HETATM    5  C   UNL     1       7.513  27.117  55.936  1.00  0.00     0.165 C 
BRANCH   5   6
HETATM    6  C   UNL     1       7.784  25.647  56.198  1.00  0.00     0.074 A 
HETATM    7  C   UNL     1       7.802  24.719  55.034  1.00  0.00     0.006 A 
HETATM    8  C   UNL     1       7.597  25.139  53.713  1.00  0.00     0.014 A 
HETATM    9  C   UNL     1       8.040  23.370  55.290  1.00  0.00     0.046 A 
HETATM   10  C   UNL     1       7.623  24.209  52.670  1.00  0.00     0.001 A 
HETATM   11  C   UNL     1       7.855  22.860  52.935  1.00  0.00     0.001 A 
HETATM   12  C   UNL     1       8.066  22.438  54.247  1.00  0.00     0.018 A 
HETATM   13  C   UNL     1       8.273  22.935  56.675  1.00  0.00     0.272 A 
HETATM   14  O   UNL     1       8.485  21.761  56.954  1.00  0.00    -0.266 OA
HETATM   15  N   UNL     1       8.243  23.921  57.631  1.00  0.00    -0.243 N 
HETATM   16  N   UNL     1       8.005  25.242  57.416  1.00  0.00    -0.175 NA
HETATM   17  H   UNL     1       8.408  23.627  58.589  1.00  0.00     0.192 HD
ENDBRANCH   5   6
ENDBRANCH   1   5
BRANCH   2  18
HETATM   18  C   UNL     1       7.777  29.994  58.448  1.00  0.00     0.035 A 
HETATM   19  C   UNL     1       8.539  30.059  59.617  1.00  0.00     0.047 A 
HETATM   20  C   UNL     1       8.325  31.072  60.578  1.00  0.00     0.071 A 
HETATM   21  C   UNL     1       7.325  32.021  60.342  1.00  0.00     0.049 A 
HETATM   22 CL   UNL     1       6.985  33.297  61.453  1.00  0.00    -0.083 Cl
HETATM   23  C   UNL     1       6.558  31.962  59.177  1.00  0.00     0.027 A 
HETATM   24  C   UNL     1       6.784  30.955  58.235  1.00  0.00     0.031 A 
BRANCH  20  25
HETATM   25  C   UNL     1       9.167  31.113  61.824  1.00  0.00     0.419 C 
HETATM   26  F   UNL     1       9.957  30.013  61.984  1.00  0.00    -0.166 F 
HETATM   27  F   UNL     1      10.023  32.173  61.851  1.00  0.00    -0.166 F 
HETATM   28  F   UNL     1       8.426  31.190  62.964  1.00  0.00    -0.166 F 
ENDBRANCH  20  25
ENDBRANCH   2  18
TORSDOF 4
ENDMDL
MODEL 4
REMARK VINA RESULT:     -10.0      6.580      8.563
REMARK  4 active torsions:
REMARK  status: ('A' for Active; 'I' for Inactive)
REMARK    1  A    between atoms: C_9  and  C_10 
REMARK    2  A    between atoms: C_10  and  C_11 
REMARK       I    between atoms: C_11  and  N_12 
REMARK    3  A    between atoms: N_12  and  C_13 
REMARK    4  A    between atoms: C_15  and  C_16 
ROOT
HETATM    1  C   UNL     1       6.044  25.311  51.803  1.00  0.00     0.227 C 
HETATM    2  N   UNL     1       6.025  26.357  50.913  1.00  0.00    -0.327 N 
HETATM    3  O   UNL     1       5.045  24.768  52.277  1.00  0.00    -0.273 OA
HETATM    4  H   UNL     1       6.942  26.685  50.605  1.00  0.00     0.169 HD
ENDROOT
BRANCH   1   5
HETATM    5  C   UNL     1       7.407  24.784  52.215  1.00  0.00     0.165 C 
BRANCH   5   6
HETATM    6  C   UNL     1       7.699  24.339  53.637  1.00  0.00     0.074 A 
HETATM    7  C   UNL     1       7.942  22.891  53.881  1.00  0.00     0.006 A 
HETATM    8  C   UNL     1       7.930  21.927  52.865  1.00  0.00     0.014 A 
HETATM    9  C   UNL     1       8.197  22.494  55.193  1.00  0.00     0.046 A 
HETATM   10  C   UNL     1       8.163  20.583  53.171  1.00  0.00     0.001 A 
HETATM   11  C   UNL     1       8.410  20.193  54.486  1.00  0.00     0.001 A 
HETATM   12  C   UNL     1       8.430  21.149  55.501  1.00  0.00     0.018 A 
HETATM   13  C   UNL     1       8.227  23.510  56.254  1.00  0.00     0.272 A 
HETATM   14  O   UNL     1       8.445  23.215  57.424  1.00  0.00    -0.266 OA
HETATM   15  N   UNL     1       8.003  24.806  55.857  1.00  0.00    -0.243 N 
HETATM   16  N   UNL     1       7.742  25.225  54.590  1.00  0.00    -0.175 NA
HETATM   17  H   UNL     1       8.027  25.513  56.587  1.00  0.00     0.192 HD
ENDBRANCH   5   6
ENDBRANCH   1   5
BRANCH   2  18
HETATM   18  C   UNL     1       4.912  27.036  50.382  1.00  0.00     0.035 A 
HETATM   19  C   UNL     1       4.229  26.646  49.228  1.00  0.00     0.047 A 
HETATM   20  C   UNL     1       3.115  27.372  48.751  1.00  0.00     0.071 A 
HETATM   21  C   UNL     1       2.700  28.504  49.459  1.00  0.00     0.049 A 
HETATM   22 CL   UNL     1       1.351  29.458  48.960  1.00  0.00    -0.083 Cl
HETATM   23  C   UNL     1       3.378  28.902  50.613  1.00  0.00     0.027 A 
HETATM   24  C   UNL     1       4.476  28.172  51.071  1.00  0.00     0.031 A 
BRANCH  20  25
HETATM   25  C   UNL     1       2.402  26.919  47.507  1.00  0.00     0.419 C 
HETATM   26  F   UNL     1       1.105  26.553  47.725  1.00  0.00    -0.166 F 
HETATM   27  F   UNL     1       2.342  27.886  46.548  1.00  0.00    -0.166 F 
HETATM   28  F   UNL     1       2.986  25.836  46.923  1.00  0.00    -0.166 F 
ENDBRANCH  20  25
ENDBRANCH   2  18
TORSDOF 4
ENDMDL
MODEL 5
REMARK VINA RESULT:     -10.0      1.436      2.089
REMARK  4 active torsions:
REMARK  status: ('A' for Active; 'I' for Inactive)
REMARK    1  A    between atoms: C_9  and  C_10 
REMARK    2  A    between atoms: C_10  and  C_11 
REMARK       I    between atoms: C_11  and  N_12 
REMARK    3  A    between atoms: N_12  and  C_13 
REMARK    4  A    between atoms: C_15  and  C_16 
ROOT
HETATM    1  C   UNL     1       6.445  26.876  55.544  1.00  0.00     0.227 C 
HETATM    2  N   UNL     1       7.646  26.210  55.575  1.00  0.00    -0.327 N 
HETATM    3  O   UNL     1       5.339  26.339  55.606  1.00  0.00    -0.273 OA
HETATM    4  H   UNL     1       8.476  26.804  55.526  1.00  0.00     0.169 HD
ENDROOT
BRANCH   1   5
HETATM    5  C   UNL     1       6.501  28.389  55.440  1.00  0.00     0.165 C 
BRANCH   5   6
HETATM    6  C   UNL     1       6.782  29.266  56.647  1.00  0.00     0.074 A 
HETATM    7  C   UNL     1       8.193  29.667  56.907  1.00  0.00     0.006 A 
HETATM    8  C   UNL     1       9.263  29.288  56.087  1.00  0.00     0.014 A 
HETATM    9  C   UNL     1       8.439  30.462  58.026  1.00  0.00     0.046 A 
HETATM   10  C   UNL     1      10.563  29.698  56.398  1.00  0.00     0.001 A 
HETATM   11  C   UNL     1      10.803  30.488  57.522  1.00  0.00     0.001 A 
HETATM   12  C   UNL     1       9.740  30.873  58.337  1.00  0.00     0.018 A 
HETATM   13  C   UNL     1       7.311  30.873  58.873  1.00  0.00     0.272 A 
HETATM   14  O   UNL     1       7.474  31.569  59.868  1.00  0.00    -0.266 OA
HETATM   15  N   UNL     1       6.070  30.434  58.482  1.00  0.00    -0.243 N 
HETATM   16  N   UNL     1       5.796  29.652  57.404  1.00  0.00    -0.175 NA
HETATM   17  H   UNL     1       5.286  30.719  59.062  1.00  0.00     0.192 HD
ENDBRANCH   5   6
ENDBRANCH   1   5
BRANCH   2  18
HETATM   18  C   UNL     1       7.880  24.824  55.652  1.00  0.00     0.035 A 
HETATM   19  C   UNL     1       7.910  23.969  54.548  1.00  0.00     0.047 A 
HETATM   20  C   UNL     1       8.155  22.585  54.696  1.00  0.00     0.071 A 
HETATM   21  C   UNL     1       8.369  22.076  55.981  1.00  0.00     0.049 A 
HETATM   22 CL   UNL     1       8.677  20.402  56.268  1.00  0.00    -0.083 Cl
HETATM   23  C   UNL     1       8.340  22.924  57.089  1.00  0.00     0.027 A 
HETATM   24  C   UNL     1       8.098  24.289  56.925  1.00  0.00     0.031 A 
BRANCH  20  25
HETATM   25  C   UNL     1       8.183  21.695  53.484  1.00  0.00     0.419 C 
HETATM   26  F   UNL     1       7.319  20.642  53.562  1.00  0.00    -0.166 F 
HETATM   27  F   UNL     1       7.845  22.349  52.337  1.00  0.00    -0.166 F 
HETATM   28  F   UNL     1       9.406  21.138  53.262  1.00  0.00    -0.166 F 
ENDBRANCH  20  25
ENDBRANCH   2  18
TORSDOF 4
ENDMDL
MODEL 6
REMARK VINA RESULT:      -9.8      1.555      2.369
REMARK  4 active torsions:
REMARK  status: ('A' for Active; 'I' for Inactive)
REMARK    1  A    between atoms: C_9  and  C_10 
REMARK    2  A    between atoms: C_10  and  C_11 
REMARK       I    between atoms: C_11  and  N_12 
REMARK    3  A    between atoms: N_12  and  C_13 
REMARK    4  A    between atoms: C_15  and  C_16 
ROOT
HETATM    1  C   UNL     1       6.269  26.467  54.449  1.00  0.00     0.227 C 
HETATM    2  N   UNL     1       7.449  25.785  54.618  1.00  0.00    -0.327 N 
HETATM    3  O   UNL     1       5.208  25.963  54.078  1.00  0.00    -0.273 OA
HETATM    4  H   UNL     1       8.236  26.348  54.945  1.00  0.00     0.169 HD
ENDROOT
BRANCH   1   5
HETATM    5  C   UNL     1       6.283  27.953  54.762  1.00  0.00     0.165 C 
BRANCH   5   6
HETATM    6  C   UNL     1       6.868  28.495  56.054  1.00  0.00     0.074 A 
HETATM    7  C   UNL     1       6.349  29.793  56.568  1.00  0.00     0.006 A 
HETATM    8  C   UNL     1       5.341  30.525  55.927  1.00  0.00     0.014 A 
HETATM    9  C   UNL     1       6.904  30.285  57.748  1.00  0.00     0.046 A 
HETATM   10  C   UNL     1       4.907  31.739  56.466  1.00  0.00     0.001 A 
HETATM   11  C   UNL     1       5.472  32.229  57.644  1.00  0.00     0.001 A 
HETATM   12  C   UNL     1       6.471  31.501  58.288  1.00  0.00     0.018 A 
HETATM   13  C   UNL     1       7.949  29.505  58.427  1.00  0.00     0.272 A 
HETATM   14  O   UNL     1       8.470  29.894  59.465  1.00  0.00    -0.266 OA
HETATM   15  N   UNL     1       8.300  28.318  57.832  1.00  0.00    -0.243 N 
HETATM   16  N   UNL     1       7.786  27.814  56.678  1.00  0.00    -0.175 NA
HETATM   17  H   UNL     1       9.018  27.773  58.300  1.00  0.00     0.192 HD
ENDBRANCH   5   6
ENDBRANCH   1   5
BRANCH   2  18
HETATM   18  C   UNL     1       7.715  24.422  54.390  1.00  0.00     0.035 A 
HETATM   19  C   UNL     1       7.882  23.473  55.401  1.00  0.00     0.047 A 
HETATM   20  C   UNL     1       8.142  22.117  55.102  1.00  0.00     0.071 A 
HETATM   21  C   UNL     1       8.234  21.732  53.761  1.00  0.00     0.049 A 
HETATM   22 CL   UNL     1       8.548  20.101  53.290  1.00  0.00    -0.083 Cl
HETATM   23  C   UNL     1       8.069  22.675  52.744  1.00  0.00     0.027 A 
HETATM   24  C   UNL     1       7.811  24.011  53.057  1.00  0.00     0.031 A 
BRANCH  20  25
HETATM   25  C   UNL     1       8.313  21.122  56.217  1.00  0.00     0.419 C 
HETATM   26  F   UNL     1       8.288  21.687  57.459  1.00  0.00    -0.166 F 
HETATM   27  F   UNL     1       7.333  20.174  56.237  1.00  0.00    -0.166 F 
HETATM   28  F   UNL     1       9.496  20.450  56.154  1.00  0.00    -0.166 F 
ENDBRANCH  20  25
ENDBRANCH   2  18
TORSDOF 4
ENDMDL
MODEL 7
REMARK VINA RESULT:      -9.8      4.560      8.137
REMARK  4 active torsions:
REMARK  status: ('A' for Active; 'I' for Inactive)
REMARK    1  A    between atoms: C_9  and  C_10 
REMARK    2  A    between atoms: C_10  and  C_11 
REMARK       I    between atoms: C_11  and  N_12 
REMARK    3  A    between atoms: N_12  and  C_13 
REMARK    4  A    between atoms: C_15  and  C_16 
ROOT
HETATM    1  C   UNL     1       7.392  26.836  54.871  1.00  0.00     0.227 C 
HETATM    2  N   UNL     1       7.100  27.059  56.195  1.00  0.00    -0.327 N 
HETATM    3  O   UNL     1       7.770  27.697  54.076  1.00  0.00    -0.273 OA
HETATM    4  H   UNL     1       6.812  26.234  56.723  1.00  0.00     0.169 HD
ENDROOT
BRANCH   1   5
HETATM    5  C   UNL     1       7.250  25.411  54.367  1.00  0.00     0.165 C 
BRANCH   5   6
HETATM    6  C   UNL     1       7.610  24.215  55.229  1.00  0.00     0.074 A 
HETATM    7  C   UNL     1       7.819  22.904  54.556  1.00  0.00     0.006 A 
HETATM    8  C   UNL     1       7.715  22.726  53.170  1.00  0.00     0.014 A 
HETATM    9  C   UNL     1       8.137  21.811  55.361  1.00  0.00     0.046 A 
HETATM   10  C   UNL     1       7.920  21.463  52.608  1.00  0.00     0.001 A 
HETATM   11  C   UNL     1       8.232  20.373  53.421  1.00  0.00     0.001 A 
HETATM   12  C   UNL     1       8.343  20.546  54.800  1.00  0.00     0.018 A 
HETATM   13  C   UNL     1       8.264  22.005  56.812  1.00  0.00     0.272 A 
HETATM   14  O   UNL     1       8.540  21.078  57.564  1.00  0.00    -0.266 OA
HETATM   15  N   UNL     1       8.060  23.283  57.271  1.00  0.00    -0.243 N 
HETATM   16  N   UNL     1       7.739  24.367  56.516  1.00  0.00    -0.175 NA
HETATM   17  H   UNL     1       8.150  23.423  58.274  1.00  0.00     0.192 HD
ENDBRANCH   5   6
ENDBRANCH   1   5
BRANCH   2  18
HETATM   18  C   UNL     1       7.135  28.272  56.908  1.00  0.00     0.035 A 
HETATM   19  C   UNL     1       8.293  28.830  57.454  1.00  0.00     0.047 A 
HETATM   20  C   UNL     1       8.259  30.056  58.156  1.00  0.00     0.071 A 
HETATM   21  C   UNL     1       7.032  30.711  58.302  1.00  0.00     0.049 A 
HETATM   22 CL   UNL     1       6.884  32.212  59.140  1.00  0.00    -0.083 Cl
HETATM   23  C   UNL     1       5.870  30.159  57.760  1.00  0.00     0.027 A 
HETATM   24  C   UNL     1       5.922  28.948  57.067  1.00  0.00     0.031 A 
BRANCH  20  25
HETATM   25  C   UNL     1       9.527  30.629  58.727  1.00  0.00     0.419 C 
HETATM   26  F   UNL     1      10.653  29.980  58.311  1.00  0.00    -0.166 F 
HETATM   27  F   UNL     1       9.721  31.933  58.385  1.00  0.00    -0.166 F 
HETATM   28  F   UNL     1       9.568  30.579  60.088  1.00  0.00    -0.166 F 
ENDBRANCH  20  25
ENDBRANCH   2  18
TORSDOF 4
ENDMDL
MODEL 8
REMARK VINA RESULT:      -9.6      6.443      8.440
REMARK  4 active torsions:
REMARK  status: ('A' for Active; 'I' for Inactive)
REMARK    1  A    between atoms: C_9  and  C_10 
REMARK    2  A    between atoms: C_10  and  C_11 
REMARK       I    between atoms: C_11  and  N_12 
REMARK    3  A    between atoms: N_12  and  C_13 
REMARK    4  A    between atoms: C_15  and  C_16 
ROOT
HETATM    1  C   UNL     1       6.020  25.402  51.775  1.00  0.00     0.227 C 
HETATM    2  N   UNL     1       5.941  26.244  50.691  1.00  0.00    -0.327 N 
HETATM    3  O   UNL     1       5.053  24.920  52.366  1.00  0.00    -0.273 OA
HETATM    4  H   UNL     1       6.838  26.546  50.307  1.00  0.00     0.169 HD
ENDROOT
BRANCH   1   5
HETATM    5  C   UNL     1       7.411  25.036  52.260  1.00  0.00     0.165 C 
BRANCH   5   6
HETATM    6  C   UNL     1       7.663  24.541  53.673  1.00  0.00     0.074 A 
HETATM    7  C   UNL     1       7.857  23.078  53.878  1.00  0.00     0.006 A 
HETATM    8  C   UNL     1       7.835  22.146  52.832  1.00  0.00     0.014 A 
HETATM    9  C   UNL     1       8.075  22.636  55.181  1.00  0.00     0.046 A 
HETATM   10  C   UNL     1       8.020  20.787  53.101  1.00  0.00     0.001 A 
HETATM   11  C   UNL     1       8.231  20.351  54.409  1.00  0.00     0.001 A 
HETATM   12  C   UNL     1       8.261  21.275  55.452  1.00  0.00     0.018 A 
HETATM   13  C   UNL     1       8.117  23.619  56.273  1.00  0.00     0.272 A 
HETATM   14  O   UNL     1       8.304  23.282  57.436  1.00  0.00    -0.266 OA
HETATM   15  N   UNL     1       7.940  24.932  55.911  1.00  0.00    -0.243 N 
HETATM   16  N   UNL     1       7.716  25.396  54.653  1.00  0.00    -0.175 NA
HETATM   17  H   UNL     1       7.972  25.616  56.662  1.00  0.00     0.192 HD
ENDBRANCH   5   6
ENDBRANCH   1   5
BRANCH   2  18
HETATM   18  C   UNL     1       4.792  26.748  50.054  1.00  0.00     0.035 A 
HETATM   19  C   UNL     1       4.119  27.907  50.447  1.00  0.00     0.047 A 
HETATM   20  C   UNL     1       2.972  28.361  49.759  1.00  0.00     0.071 A 
HETATM   21  C   UNL     1       2.511  27.624  48.664  1.00  0.00     0.049 A 
HETATM   22 CL   UNL     1       1.120  28.094  47.757  1.00  0.00    -0.083 Cl
HETATM   23  C   UNL     1       3.177  26.463  48.265  1.00  0.00     0.027 A 
HETATM   24  C   UNL     1       4.310  26.029  48.956  1.00  0.00     0.031 A 
BRANCH  20  25
HETATM   25  C   UNL     1       2.275  29.616  50.208  1.00  0.00     0.419 C 
HETATM   26  F   UNL     1       2.840  30.188  51.311  1.00  0.00    -0.166 F 
HETATM   27  F   UNL     1       2.279  30.595  49.259  1.00  0.00    -0.166 F 
HETATM   28  F   UNL     1       0.971  29.411  50.541  1.00  0.00    -0.166 F 
ENDBRANCH  20  25
ENDBRANCH   2  18
TORSDOF 4
ENDMDL
MODEL 9
REMARK VINA RESULT:      -9.5      2.213      3.133
REMARK  4 active torsions:
REMARK  status: ('A' for Active; 'I' for Inactive)
REMARK    1  A    between atoms: C_9  and  C_10 
REMARK    2  A    between atoms: C_10  and  C_11 
REMARK       I    between atoms: C_11  and  N_12 
REMARK    3  A    between atoms: N_12  and  C_13 
REMARK    4  A    between atoms: C_15  and  C_16 
ROOT
HETATM    1  C   UNL     1       6.708  26.958  56.411  1.00  0.00     0.227 C 
HETATM    2  N   UNL     1       7.848  26.236  56.155  1.00  0.00    -0.327 N 
HETATM    3  O   UNL     1       5.590  26.472  56.590  1.00  0.00    -0.273 OA
HETATM    4  H   UNL     1       8.700  26.790  56.043  1.00  0.00     0.169 HD
ENDROOT
BRANCH   1   5
HETATM    5  C   UNL     1       6.853  28.467  56.491  1.00  0.00     0.165 C 
BRANCH   5   6
HETATM    6  C   UNL     1       8.182  29.129  56.805  1.00  0.00     0.074 A 
HETATM    7  C   UNL     1       8.216  30.156  57.884  1.00  0.00     0.006 A 
HETATM    8  C   UNL     1       7.089  30.525  58.629  1.00  0.00     0.014 A 
HETATM    9  C   UNL     1       9.440  30.765  58.153  1.00  0.00     0.046 A 
HETATM   10  C   UNL     1       7.195  31.501  59.624  1.00  0.00     0.001 A 
HETATM   11  C   UNL     1       8.422  32.111  59.883  1.00  0.00     0.001 A 
HETATM   12  C   UNL     1       9.548  31.742  59.149  1.00  0.00     0.018 A 
HETATM   13  C   UNL     1      10.625  30.361  57.382  1.00  0.00     0.272 A 
HETATM   14  O   UNL     1      11.724  30.867  57.578  1.00  0.00    -0.266 OA
HETATM   15  N   UNL     1      10.427  29.385  56.437  1.00  0.00    -0.243 N 
HETATM   16  N   UNL     1       9.246  28.778  56.143  1.00  0.00    -0.175 NA
HETATM   17  H   UNL     1      11.244  29.100  55.904  1.00  0.00     0.192 HD
ENDBRANCH   5   6
ENDBRANCH   1   5
BRANCH   2  18
HETATM   18  C   UNL     1       7.993  24.843  56.016  1.00  0.00     0.035 A 
HETATM   19  C   UNL     1       8.008  24.172  54.791  1.00  0.00     0.047 A 
HETATM   20  C   UNL     1       8.162  22.769  54.722  1.00  0.00     0.071 A 
HETATM   21  C   UNL     1       8.298  22.051  55.914  1.00  0.00     0.049 A 
HETATM   22 CL   UNL     1       8.492  20.336  55.938  1.00  0.00    -0.083 Cl
HETATM   23  C   UNL     1       8.283  22.714  57.143  1.00  0.00     0.027 A 
HETATM   24  C   UNL     1       8.132  24.101  57.193  1.00  0.00     0.031 A 
BRANCH  20  25
HETATM   25  C   UNL     1       8.177  22.081  53.385  1.00  0.00     0.419 C 
HETATM   26  F   UNL     1       7.962  22.926  52.335  1.00  0.00    -0.166 F 
HETATM   27  F   UNL     1       9.367  21.473  53.115  1.00  0.00    -0.166 F 
HETATM   28  F   UNL     1       7.220  21.119  53.271  1.00  0.00    -0.166 F 
ENDBRANCH  20  25
ENDBRANCH   2  18
TORSDOF 4
ENDMDL
MODEL 10
REMARK VINA RESULT:      -9.5      4.815      8.335
REMARK  4 active torsions:
REMARK  status: ('A' for Active; 'I' for Inactive)
REMARK    1  A    between atoms: C_9  and  C_10 
REMARK    2  A    between atoms: C_10  and  C_11 
REMARK       I    between atoms: C_11  and  N_12 
REMARK    3  A    between atoms: N_12  and  C_13 
REMARK    4  A    between atoms: C_15  and  C_16 
ROOT
HETATM    1  C   UNL     1       7.373  26.663  55.038  1.00  0.00     0.227 C 
HETATM    2  N   UNL     1       7.346  26.966  56.378  1.00  0.00    -0.327 N 
HETATM    3  O   UNL     1       7.712  27.439  54.145  1.00  0.00    -0.273 OA
HETATM    4  H   UNL     1       7.053  26.205  56.992  1.00  0.00     0.169 HD
ENDROOT
BRANCH   1   5
HETATM    5  C   UNL     1       6.966  25.254  54.645  1.00  0.00     0.165 C 
BRANCH   5   6
HETATM    6  C   UNL     1       7.448  24.036  55.412  1.00  0.00     0.074 A 
HETATM    7  C   UNL     1       7.737  22.794  54.643  1.00  0.00     0.006 A 
HETATM    8  C   UNL     1       7.602  22.702  53.252  1.00  0.00     0.014 A 
HETATM    9  C   UNL     1       8.167  21.679  55.361  1.00  0.00     0.046 A 
HETATM   10  C   UNL     1       7.887  21.500  52.598  1.00  0.00     0.001 A 
HETATM   11  C   UNL     1       8.311  20.387  53.323  1.00  0.00     0.001 A 
HETATM   12  C   UNL     1       8.453  20.475  54.707  1.00  0.00     0.018 A 
HETATM   13  C   UNL     1       8.326  21.785  56.818  1.00  0.00     0.272 A 
HETATM   14  O   UNL     1       8.699  20.834  57.496  1.00  0.00    -0.266 OA
HETATM   15  N   UNL     1       8.037  23.008  57.371  1.00  0.00    -0.243 N 
HETATM   16  N   UNL     1       7.607  24.111  56.702  1.00  0.00    -0.175 NA
HETATM   17  H   UNL     1       8.149  23.088  58.377  1.00  0.00     0.192 HD
ENDBRANCH   5   6
ENDBRANCH   1   5
BRANCH   2  18
HETATM   18  C   UNL     1       7.658  28.186  57.008  1.00  0.00     0.035 A 
HETATM   19  C   UNL     1       6.708  29.122  57.422  1.00  0.00     0.047 A 
HETATM   20  C   UNL     1       7.089  30.327  58.054  1.00  0.00     0.071 A 
HETATM   21  C   UNL     1       8.450  30.575  58.260  1.00  0.00     0.049 A 
HETATM   22 CL   UNL     1       9.018  32.014  59.023  1.00  0.00    -0.083 Cl
HETATM   23  C   UNL     1       9.406  29.644  57.848  1.00  0.00     0.027 A 
HETATM   24  C   UNL     1       9.011  28.457  57.226  1.00  0.00     0.031 A 
BRANCH  20  25
HETATM   25  C   UNL     1       6.038  31.310  58.491  1.00  0.00     0.419 C 
HETATM   26  F   UNL     1       6.137  31.667  59.804  1.00  0.00    -0.166 F 
HETATM   27  F   UNL     1       6.088  32.483  57.799  1.00  0.00    -0.166 F 
HETATM   28  F   UNL     1       4.770  30.833  58.345  1.00  0.00    -0.166 F 
ENDBRANCH  20  25
ENDBRANCH   2  18
TORSDOF 4
ENDMDL
