MODEL 1
REMARK VINA RESULT:      -8.1      0.000      0.000
REMARK  2 active torsions:
REMARK  status: ('A' for Active; 'I' for Inactive)
REMARK    1  A    between atoms: C_3  and  C_4 
REMARK       I    between atoms: C_4  and  N_5 
REMARK    2  A    between atoms: N_5  and  C_6 
ROOT
HETATM    1  C   UNL     1       5.113  25.804  52.294  1.00  0.00     0.051 C 
HETATM    2  C   UNL     1       5.293  26.489  53.627  1.00  0.00    -0.021 A 
HETATM    3  C   UNL     1       6.375  25.993  54.498  1.00  0.00     0.061 A 
HETATM    4  C   UNL     1       6.667  26.632  55.654  1.00  0.00     0.022 A 
HETATM    5  C   UNL     1       7.837  26.350  56.561  1.00  0.00     0.069 C 
HETATM    6  N   UNL     1       5.868  27.679  56.063  1.00  0.00    -0.349 N 
HETATM    7  C   UNL     1       4.808  28.188  55.349  1.00  0.00     0.121 A 
HETATM    8  S   UNL     1       3.944  29.440  56.056  1.00  0.00    -0.059 SA
HETATM    9  C   UNL     1       4.561  27.561  54.008  1.00  0.00     0.075 A 
HETATM   10  C   UNL     1       3.647  28.303  53.045  1.00  0.00     0.023 C 
HETATM   11  N   UNL     1       2.889  28.917  52.247  1.00  0.00    -0.096 N 
HETATM   12  H   UNL     1       6.071  28.145  56.944  1.00  0.00     0.166 HD
ENDROOT
BRANCH   3  13
HETATM   13  C   UNL     1       7.253  24.853  54.062  1.00  0.00     0.258 C 
HETATM   14  N   UNL     1       6.840  23.639  54.580  1.00  0.00    -0.323 N 
HETATM   15  H   UNL     1       6.018  23.647  55.170  1.00  0.00     0.169 HD
HETATM   16  O   UNL     1       8.213  25.068  53.335  1.00  0.00    -0.267 OA
BRANCH  14  17
HETATM   17  C   UNL     1       7.507  22.400  54.476  1.00  0.00     0.035 A 
HETATM   18  C   UNL     1       7.947  21.657  55.573  1.00  0.00     0.029 A 
HETATM   19  C   UNL     1       8.578  20.423  55.385  1.00  0.00     0.002 A 
HETATM   20  C   UNL     1       8.767  19.919  54.100  1.00  0.00     0.000 A 
HETATM   21  C   UNL     1       8.334  20.654  53.001  1.00  0.00     0.002 A 
HETATM   22  C   UNL     1       7.714  21.892  53.187  1.00  0.00     0.029 A 
ENDBRANCH  14  17
ENDBRANCH   3  13
TORSDOF 2
ENDMDL
MODEL 2
REMARK VINA RESULT:      -8.1      2.239      2.525
REMARK  2 active torsions:
REMARK  status: ('A' for Active; 'I' for Inactive)
REMARK    1  A    between atoms: C_3  and  C_4 
REMARK       I    between atoms: C_4  and  N_5 
REMARK    2  A    between atoms: N_5  and  C_6 
ROOT
HETATM    1  C   UNL     1       4.753  24.784  51.706  1.00  0.00     0.051 C 
HETATM    2  C   UNL     1       5.249  26.170  52.042  1.00  0.00    -0.021 A 
HETATM    3  C   UNL     1       6.079  26.313  53.252  1.00  0.00     0.061 A 
HETATM    4  C   UNL     1       6.650  27.502  53.551  1.00  0.00     0.022 A 
HETATM    5  C   UNL     1       7.648  27.765  54.650  1.00  0.00     0.069 C 
HETATM    6  N   UNL     1       6.354  28.603  52.775  1.00  0.00    -0.349 N 
HETATM    7  C   UNL     1       5.556  28.587  51.654  1.00  0.00     0.121 A 
HETATM    8  S   UNL     1       5.294  30.054  50.884  1.00  0.00    -0.059 SA
HETATM    9  C   UNL     1       5.022  27.244  51.250  1.00  0.00     0.075 A 
HETATM   10  C   UNL     1       4.441  27.112  49.852  1.00  0.00     0.023 C 
HETATM   11  N   UNL     1       3.958  27.003  48.693  1.00  0.00    -0.096 N 
HETATM   12  H   UNL     1       6.763  29.504  53.012  1.00  0.00     0.166 HD
ENDROOT
BRANCH   3  13
HETATM   13  C   UNL     1       6.409  25.120  54.106  1.00  0.00     0.258 C 
HETATM   14  N   UNL     1       7.439  24.362  53.581  1.00  0.00    -0.323 N 
HETATM   15  H   UNL     1       7.849  24.682  52.714  1.00  0.00     0.169 HD
HETATM   16  O   UNL     1       5.777  24.914  55.134  1.00  0.00    -0.267 OA
BRANCH  14  17
HETATM   17  C   UNL     1       7.907  23.118  54.057  1.00  0.00     0.035 A 
HETATM   18  C   UNL     1       8.490  22.932  55.311  1.00  0.00     0.029 A 
HETATM   19  C   UNL     1       8.905  21.660  55.719  1.00  0.00     0.002 A 
HETATM   20  C   UNL     1       8.732  20.563  54.878  1.00  0.00     0.000 A 
HETATM   21  C   UNL     1       8.153  20.739  53.625  1.00  0.00     0.002 A 
HETATM   22  C   UNL     1       7.750  22.011  53.212  1.00  0.00     0.029 A 
ENDBRANCH  14  17
ENDBRANCH   3  13
TORSDOF 2
ENDMDL
MODEL 3
REMARK VINA RESULT:      -8.1      1.147      2.863
REMARK  2 active torsions:
REMARK  status: ('A' for Active; 'I' for Inactive)
REMARK    1  A    between atoms: C_3  and  C_4 
REMARK       I    between atoms: C_4  and  N_5 
REMARK    2  A    between atoms: N_5  and  C_6 
ROOT
HETATM    1  C   UNL     1       7.585  26.436  55.781  1.00  0.00     0.051 C 
HETATM    2  C   UNL     1       6.609  26.936  54.743  1.00  0.00    -0.021 A 
HETATM    3  C   UNL     1       6.499  26.159  53.494  1.00  0.00     0.061 A 
HETATM    4  C   UNL     1       5.565  26.482  52.570  1.00  0.00     0.022 A 
HETATM    5  C   UNL     1       5.222  25.694  51.331  1.00  0.00     0.069 C 
HETATM    6  N   UNL     1       4.797  27.612  52.757  1.00  0.00    -0.349 N 
HETATM    7  C   UNL     1       4.854  28.430  53.862  1.00  0.00     0.121 A 
HETATM    8  S   UNL     1       3.857  29.779  53.864  1.00  0.00    -0.059 SA
HETATM    9  C   UNL     1       5.801  28.002  54.945  1.00  0.00     0.075 A 
HETATM   10  C   UNL     1       5.648  28.657  56.309  1.00  0.00     0.023 C 
HETATM   11  N   UNL     1       5.522  29.199  57.440  1.00  0.00    -0.096 N 
HETATM   12  H   UNL     1       4.111  27.870  52.052  1.00  0.00     0.166 HD
ENDROOT
BRANCH   3  13
HETATM   13  C   UNL     1       7.331  24.925  53.278  1.00  0.00     0.258 C 
HETATM   14  N   UNL     1       6.850  23.834  53.977  1.00  0.00    -0.323 N 
HETATM   15  H   UNL     1       6.018  23.975  54.534  1.00  0.00     0.169 HD
HETATM   16  O   UNL     1       8.315  24.974  52.552  1.00  0.00    -0.267 OA
BRANCH  14  17
HETATM   17  C   UNL     1       7.460  22.567  54.099  1.00  0.00     0.035 A 
HETATM   18  C   UNL     1       7.847  21.779  53.013  1.00  0.00     0.029 A 
HETATM   19  C   UNL     1       8.470  20.545  53.219  1.00  0.00     0.002 A 
HETATM   20  C   UNL     1       8.718  20.092  54.513  1.00  0.00     0.000 A 
HETATM   21  C   UNL     1       8.335  20.868  55.602  1.00  0.00     0.002 A 
HETATM   22  C   UNL     1       7.701  22.096  55.397  1.00  0.00     0.029 A 
ENDBRANCH  14  17
ENDBRANCH   3  13
TORSDOF 2
ENDMDL
MODEL 4
REMARK VINA RESULT:      -8.0      2.792      6.546
REMARK  2 active torsions:
REMARK  status: ('A' for Active; 'I' for Inactive)
REMARK    1  A    between atoms: C_3  and  C_4 
REMARK       I    between atoms: C_4  and  N_5 
REMARK    2  A    between atoms: N_5  and  C_6 
ROOT
HETATM    1  C   UNL     1       7.739  24.050  52.249  1.00  0.00     0.051 C 
HETATM    2  C   UNL     1       7.708  23.764  53.730  1.00  0.00    -0.021 A 
HETATM    3  C   UNL     1       7.209  24.835  54.612  1.00  0.00     0.061 A 
HETATM    4  C   UNL     1       7.046  24.608  55.936  1.00  0.00     0.022 A 
HETATM    5  C   UNL     1       6.398  25.538  56.930  1.00  0.00     0.069 C 
HETATM    6  N   UNL     1       7.460  23.405  56.468  1.00  0.00    -0.349 N 
HETATM    7  C   UNL     1       7.981  22.359  55.741  1.00  0.00     0.121 A 
HETATM    8  S   UNL     1       8.461  21.000  56.599  1.00  0.00    -0.059 SA
HETATM    9  C   UNL     1       8.046  22.563  54.255  1.00  0.00     0.075 A 
HETATM   10  C   UNL     1       8.276  21.335  53.389  1.00  0.00     0.023 C 
HETATM   11  N   UNL     1       8.468  20.318  52.670  1.00  0.00    -0.096 N 
HETATM   12  H   UNL     1       7.361  23.242  57.466  1.00  0.00     0.166 HD
ENDROOT
BRANCH   3  13
HETATM   13  C   UNL     1       6.754  26.151  54.045  1.00  0.00     0.258 C 
HETATM   14  N   UNL     1       5.452  26.107  53.582  1.00  0.00    -0.323 N 
HETATM   15  H   UNL     1       4.961  25.227  53.676  1.00  0.00     0.169 HD
HETATM   16  O   UNL     1       7.522  27.104  54.027  1.00  0.00    -0.267 OA
BRANCH  14  17
HETATM   17  C   UNL     1       4.765  27.119  52.879  1.00  0.00     0.035 A 
HETATM   18  C   UNL     1       3.928  28.058  53.483  1.00  0.00     0.029 A 
HETATM   19  C   UNL     1       3.303  29.048  52.718  1.00  0.00     0.002 A 
HETATM   20  C   UNL     1       3.517  29.111  51.343  1.00  0.00     0.000 A 
HETATM   21  C   UNL     1       4.348  28.178  50.730  1.00  0.00     0.002 A 
HETATM   22  C   UNL     1       4.963  27.181  51.493  1.00  0.00     0.029 A 
ENDBRANCH  14  17
ENDBRANCH   3  13
TORSDOF 2
ENDMDL
MODEL 5
REMARK VINA RESULT:      -7.8      2.720      4.581
REMARK  2 active torsions:
REMARK  status: ('A' for Active; 'I' for Inactive)
REMARK    1  A    between atoms: C_3  and  C_4 
REMARK       I    between atoms: C_4  and  N_5 
REMARK    2  A    between atoms: N_5  and  C_6 
ROOT
HETATM    1  C   UNL     1       9.141  28.388  57.011  1.00  0.00     0.051 C 
HETATM    2  C   UNL     1       7.820  29.104  56.869  1.00  0.00    -0.021 A 
HETATM    3  C   UNL     1       6.958  28.709  55.739  1.00  0.00     0.061 A 
HETATM    4  C   UNL     1       5.714  29.226  55.616  1.00  0.00     0.022 A 
HETATM    5  C   UNL     1       4.663  28.803  54.622  1.00  0.00     0.069 C 
HETATM    6  N   UNL     1       5.307  30.211  56.491  1.00  0.00    -0.349 N 
HETATM    7  C   UNL     1       6.050  30.684  57.549  1.00  0.00     0.121 A 
HETATM    8  S   UNL     1       5.376  31.918  58.463  1.00  0.00    -0.059 SA
HETATM    9  C   UNL     1       7.381  30.022  57.761  1.00  0.00     0.075 A 
HETATM   10  C   UNL     1       8.073  30.252  59.094  1.00  0.00     0.023 C 
HETATM   11  N   UNL     1       8.649  30.444  60.199  1.00  0.00    -0.096 N 
HETATM   12  H   UNL     1       4.381  30.619  56.386  1.00  0.00     0.166 HD
ENDROOT
BRANCH   3  13
HETATM   13  C   UNL     1       7.391  27.636  54.778  1.00  0.00     0.258 C 
HETATM   14  N   UNL     1       7.025  26.370  55.197  1.00  0.00    -0.323 N 
HETATM   15  H   UNL     1       6.518  26.304  56.071  1.00  0.00     0.169 HD
HETATM   16  O   UNL     1       8.004  27.940  53.764  1.00  0.00    -0.267 OA
BRANCH  14  17
HETATM   17  C   UNL     1       7.383  25.142  54.603  1.00  0.00     0.035 A 
HETATM   18  C   UNL     1       7.044  24.778  53.299  1.00  0.00     0.029 A 
HETATM   19  C   UNL     1       7.461  23.550  52.774  1.00  0.00     0.002 A 
HETATM   20  C   UNL     1       8.227  22.680  53.548  1.00  0.00     0.000 A 
HETATM   21  C   UNL     1       8.567  23.033  54.850  1.00  0.00     0.002 A 
HETATM   22  C   UNL     1       8.141  24.254  55.379  1.00  0.00     0.029 A 
ENDBRANCH  14  17
ENDBRANCH   3  13
TORSDOF 2
ENDMDL
MODEL 6
REMARK VINA RESULT:      -7.5      3.785      7.402
REMARK  2 active torsions:
REMARK  status: ('A' for Active; 'I' for Inactive)
REMARK    1  A    between atoms: C_3  and  C_4 
REMARK       I    between atoms: C_4  and  N_5 
REMARK    2  A    between atoms: N_5  and  C_6 
ROOT
HETATM    1  C   UNL     1       7.759  25.317  57.828  1.00  0.00     0.051 C 
HETATM    2  C   UNL     1       7.620  25.324  56.325  1.00  0.00    -0.021 A 
HETATM    3  C   UNL     1       7.417  26.631  55.674  1.00  0.00     0.061 A 
HETATM    4  C   UNL     1       7.398  26.726  54.325  1.00  0.00     0.022 A 
HETATM    5  C   UNL     1       7.365  27.998  53.518  1.00  0.00     0.069 C 
HETATM    6  N   UNL     1       7.457  25.574  53.570  1.00  0.00    -0.349 N 
HETATM    7  C   UNL     1       7.600  24.303  54.079  1.00  0.00     0.121 A 
HETATM    8  S   UNL     1       7.605  23.037  52.978  1.00  0.00    -0.059 SA
HETATM    9  C   UNL     1       7.746  24.208  55.570  1.00  0.00     0.075 A 
HETATM   10  C   UNL     1       8.251  22.894  56.142  1.00  0.00     0.023 C 
HETATM   11  N   UNL     1       8.670  21.804  56.617  1.00  0.00    -0.096 N 
HETATM   12  H   UNL     1       7.419  25.640  52.556  1.00  0.00     0.166 HD
ENDROOT
BRANCH   3  13
HETATM   13  C   UNL     1       7.351  27.895  56.487  1.00  0.00     0.258 C 
HETATM   14  N   UNL     1       8.603  28.364  56.837  1.00  0.00    -0.323 N 
HETATM   15  H   UNL     1       9.401  27.830  56.516  1.00  0.00     0.169 HD
HETATM   16  O   UNL     1       6.264  28.381  56.769  1.00  0.00    -0.267 OA
BRANCH  14  17
HETATM   17  C   UNL     1       8.896  29.444  57.698  1.00  0.00     0.035 A 
HETATM   18  C   UNL     1       8.204  29.709  58.880  1.00  0.00     0.029 A 
HETATM   19  C   UNL     1       8.574  30.785  59.692  1.00  0.00     0.002 A 
HETATM   20  C   UNL     1       9.644  31.601  59.331  1.00  0.00     0.000 A 
HETATM   21  C   UNL     1      10.339  31.347  58.153  1.00  0.00     0.002 A 
HETATM   22  C   UNL     1       9.962  30.279  57.335  1.00  0.00     0.029 A 
ENDBRANCH  14  17
ENDBRANCH   3  13
TORSDOF 2
ENDMDL
MODEL 7
REMARK VINA RESULT:      -7.4      2.945      6.410
REMARK  2 active torsions:
REMARK  status: ('A' for Active; 'I' for Inactive)
REMARK    1  A    between atoms: C_3  and  C_4 
REMARK       I    between atoms: C_4  and  N_5 
REMARK    2  A    between atoms: N_5  and  C_6 
ROOT
HETATM    1  C   UNL     1       7.263  23.063  52.850  1.00  0.00     0.051 C 
HETATM    2  C   UNL     1       7.294  23.951  54.071  1.00  0.00    -0.021 A 
HETATM    3  C   UNL     1       6.389  25.115  54.080  1.00  0.00     0.061 A 
HETATM    4  C   UNL     1       6.280  25.887  55.185  1.00  0.00     0.022 A 
HETATM    5  C   UNL     1       5.289  27.000  55.406  1.00  0.00     0.069 C 
HETATM    6  N   UNL     1       7.110  25.642  56.259  1.00  0.00    -0.349 N 
HETATM    7  C   UNL     1       8.021  24.613  56.335  1.00  0.00     0.121 A 
HETATM    8  S   UNL     1       8.960  24.525  57.722  1.00  0.00    -0.059 SA
HETATM    9  C   UNL     1       8.053  23.680  55.159  1.00  0.00     0.075 A 
HETATM   10  C   UNL     1       8.770  22.352  55.337  1.00  0.00     0.023 C 
HETATM   11  N   UNL     1       9.366  21.251  55.483  1.00  0.00    -0.096 N 
HETATM   12  H   UNL     1       7.048  26.236  57.082  1.00  0.00     0.166 HD
ENDROOT
BRANCH   3  13
HETATM   13  C   UNL     1       5.479  25.392  52.915  1.00  0.00     0.258 C 
HETATM   14  N   UNL     1       6.015  26.312  52.032  1.00  0.00    -0.323 N 
HETATM   15  H   UNL     1       6.930  26.681  52.253  1.00  0.00     0.169 HD
HETATM   16  O   UNL     1       4.396  24.827  52.840  1.00  0.00    -0.267 OA
BRANCH  14  17
HETATM   17  C   UNL     1       5.376  26.887  50.913  1.00  0.00     0.035 A 
HETATM   18  C   UNL     1       4.827  26.150  49.863  1.00  0.00     0.029 A 
HETATM   19  C   UNL     1       4.186  26.797  48.802  1.00  0.00     0.002 A 
HETATM   20  C   UNL     1       4.084  28.187  48.786  1.00  0.00     0.000 A 
HETATM   21  C   UNL     1       4.631  28.931  49.827  1.00  0.00     0.002 A 
HETATM   22  C   UNL     1       5.282  28.285  50.882  1.00  0.00     0.029 A 
ENDBRANCH  14  17
ENDBRANCH   3  13
TORSDOF 2
ENDMDL
MODEL 8
REMARK VINA RESULT:      -7.3      3.661      6.640
REMARK  2 active torsions:
REMARK  status: ('A' for Active; 'I' for Inactive)
REMARK    1  A    between atoms: C_3  and  C_4 
REMARK       I    between atoms: C_4  and  N_5 
REMARK    2  A    between atoms: N_5  and  C_6 
ROOT
HETATM    1  C   UNL     1       5.892  27.241  54.451  1.00  0.00     0.051 C 
HETATM    2  C   UNL     1       6.722  26.001  54.683  1.00  0.00    -0.021 A 
HETATM    3  C   UNL     1       7.552  25.965  55.901  1.00  0.00     0.061 A 
HETATM    4  C   UNL     1       8.232  24.843  56.231  1.00  0.00     0.022 A 
HETATM    5  C   UNL     1       8.983  24.596  57.514  1.00  0.00     0.069 C 
HETATM    6  N   UNL     1       8.232  23.777  55.356  1.00  0.00    -0.349 N 
HETATM    7  C   UNL     1       7.530  23.726  54.173  1.00  0.00     0.121 A 
HETATM    8  S   UNL     1       7.708  22.343  53.240  1.00  0.00    -0.059 SA
HETATM    9  C   UNL     1       6.676  24.922  53.868  1.00  0.00     0.075 A 
HETATM   10  C   UNL     1       5.629  24.774  52.776  1.00  0.00     0.023 C 
HETATM   11  N   UNL     1       4.760  24.653  51.870  1.00  0.00    -0.096 N 
HETATM   12  H   UNL     1       8.762  22.941  55.590  1.00  0.00     0.166 HD
ENDROOT
BRANCH   3  13
HETATM   13  C   UNL     1       7.560  27.122  56.862  1.00  0.00     0.258 C 
HETATM   14  N   UNL     1       8.563  28.033  56.586  1.00  0.00    -0.323 N 
HETATM   15  H   UNL     1       9.158  27.834  55.793  1.00  0.00     0.169 HD
HETATM   16  O   UNL     1       6.737  27.167  57.767  1.00  0.00    -0.267 OA
BRANCH  14  17
HETATM   17  C   UNL     1       8.929  29.154  57.361  1.00  0.00     0.035 A 
HETATM   18  C   UNL     1       8.218  29.597  58.477  1.00  0.00     0.029 A 
HETATM   19  C   UNL     1       8.664  30.703  59.208  1.00  0.00     0.002 A 
HETATM   20  C   UNL     1       9.828  31.370  58.832  1.00  0.00     0.000 A 
HETATM   21  C   UNL     1      10.543  30.937  57.719  1.00  0.00     0.002 A 
HETATM   22  C   UNL     1      10.092  29.839  56.982  1.00  0.00     0.029 A 
ENDBRANCH  14  17
ENDBRANCH   3  13
TORSDOF 2
ENDMDL
MODEL 9
REMARK VINA RESULT:      -7.2      2.283      3.191
REMARK  2 active torsions:
REMARK  status: ('A' for Active; 'I' for Inactive)
REMARK    1  A    between atoms: C_3  and  C_4 
REMARK       I    between atoms: C_4  and  N_5 
REMARK    2  A    between atoms: N_5  and  C_6 
ROOT
HETATM    1  C   UNL     1       5.179  26.332  50.417  1.00  0.00     0.051 C 
HETATM    2  C   UNL     1       4.804  27.411  51.404  1.00  0.00    -0.021 A 
HETATM    3  C   UNL     1       4.869  27.067  52.836  1.00  0.00     0.061 A 
HETATM    4  C   UNL     1       4.658  28.015  53.776  1.00  0.00     0.022 A 
HETATM    5  C   UNL     1       4.849  27.860  55.264  1.00  0.00     0.069 C 
HETATM    6  N   UNL     1       4.267  29.278  53.381  1.00  0.00    -0.349 N 
HETATM    7  C   UNL     1       4.131  29.689  52.075  1.00  0.00     0.121 A 
HETATM    8  S   UNL     1       3.603  31.261  51.821  1.00  0.00    -0.059 SA
HETATM    9  C   UNL     1       4.487  28.673  51.029  1.00  0.00     0.075 A 
HETATM   10  C   UNL     1       4.692  29.172  49.608  1.00  0.00     0.023 C 
HETATM   11  N   UNL     1       4.861  29.585  48.429  1.00  0.00    -0.096 N 
HETATM   12  H   UNL     1       4.084  29.986  54.087  1.00  0.00     0.166 HD
ENDROOT
BRANCH   3  13
HETATM   13  C   UNL     1       5.293  25.694  53.279  1.00  0.00     0.258 C 
HETATM   14  N   UNL     1       6.655  25.606  53.501  1.00  0.00    -0.323 N 
HETATM   15  H   UNL     1       7.200  26.445  53.351  1.00  0.00     0.169 HD
HETATM   16  O   UNL     1       4.458  24.808  53.397  1.00  0.00    -0.267 OA
BRANCH  14  17
HETATM   17  C   UNL     1       7.394  24.441  53.797  1.00  0.00     0.035 A 
HETATM   18  C   UNL     1       7.658  23.428  52.874  1.00  0.00     0.029 A 
HETATM   19  C   UNL     1       8.422  22.316  53.240  1.00  0.00     0.002 A 
HETATM   20  C   UNL     1       8.936  22.212  54.531  1.00  0.00     0.000 A 
HETATM   21  C   UNL     1       8.677  23.216  55.460  1.00  0.00     0.002 A 
HETATM   22  C   UNL     1       7.903  24.321  55.097  1.00  0.00     0.029 A 
ENDBRANCH  14  17
ENDBRANCH   3  13
TORSDOF 2
ENDMDL
MODEL 10
REMARK VINA RESULT:      -7.1      7.271      9.871
REMARK  2 active torsions:
REMARK  status: ('A' for Active; 'I' for Inactive)
REMARK    1  A    between atoms: C_3  and  C_4 
REMARK       I    between atoms: C_4  and  N_5 
REMARK    2  A    between atoms: N_5  and  C_6 
ROOT
HETATM    1  C   UNL     1       8.119  32.911  61.634  1.00  0.00     0.051 C 
HETATM    2  C   UNL     1       6.619  33.042  61.732  1.00  0.00    -0.021 A 
HETATM    3  C   UNL     1       5.827  32.596  60.571  1.00  0.00     0.061 A 
HETATM    4  C   UNL     1       4.475  32.577  60.634  1.00  0.00     0.022 A 
HETATM    5  C   UNL     1       3.540  31.999  59.603  1.00  0.00     0.069 C 
HETATM    6  N   UNL     1       3.847  33.088  61.750  1.00  0.00    -0.349 N 
HETATM    7  C   UNL     1       4.492  33.572  62.866  1.00  0.00     0.121 A 
HETATM    8  S   UNL     1       3.530  34.187  64.095  1.00  0.00    -0.059 SA
HETATM    9  C   UNL     1       5.990  33.477  62.849  1.00  0.00     0.075 A 
HETATM   10  C   UNL     1       6.719  33.663  64.169  1.00  0.00     0.023 C 
HETATM   11  N   UNL     1       7.324  33.819  65.264  1.00  0.00    -0.096 N 
HETATM   12  H   UNL     1       2.831  33.098  61.789  1.00  0.00     0.166 HD
ENDROOT
BRANCH   3  13
HETATM   13  C   UNL     1       6.500  32.036  59.348  1.00  0.00     0.258 C 
HETATM   14  N   UNL     1       7.181  30.862  59.609  1.00  0.00    -0.323 N 
HETATM   15  H   UNL     1       7.150  30.514  60.558  1.00  0.00     0.169 HD
HETATM   16  O   UNL     1       6.409  32.627  58.280  1.00  0.00    -0.267 OA
BRANCH  14  17
HETATM   17  C   UNL     1       8.019  30.151  58.724  1.00  0.00     0.035 A 
HETATM   18  C   UNL     1       7.633  28.997  58.041  1.00  0.00     0.029 A 
HETATM   19  C   UNL     1       8.516  28.366  57.159  1.00  0.00     0.002 A 
HETATM   20  C   UNL     1       9.790  28.888  56.949  1.00  0.00     0.000 A 
HETATM   21  C   UNL     1      10.186  30.037  57.627  1.00  0.00     0.002 A 
HETATM   22  C   UNL     1       9.308  30.661  58.517  1.00  0.00     0.029 A 
ENDBRANCH  14  17
ENDBRANCH   3  13
TORSDOF 2
ENDMDL
