MODEL 1
REMARK VINA RESULT:      -9.9      0.000      0.000
REMARK  7 active torsions:
REMARK  status: ('A' for Active; 'I' for Inactive)
REMARK    1  A    between atoms: C_2  and  C_3 
REMARK    2  A    between atoms: C_6  and  C_7 
REMARK    3  A    between atoms: C_7  and  N_8 
REMARK    4  A    between atoms: C_7  and  C_25 
REMARK    5  A    between atoms: N_8  and  C_11 
REMARK    6  A    between atoms: C_11  and  C_12 
REMARK       I    between atoms: C_12  and  N_13 
REMARK    7  A    between atoms: N_13  and  C_14 
ROOT
HETATM    1  N   UNL     1       6.781  28.155  53.328  1.00  0.00    -0.054 N 
HETATM    2  H   UNL     1       7.243  28.528  52.483  1.00  0.00     0.278 HD
HETATM    3  H   UNL     1       6.204  28.935  53.658  1.00  0.00     0.278 HD
ENDROOT
BRANCH   1   4
HETATM    4  C   UNL     1       5.924  26.993  52.949  1.00  0.00     0.259 C 
BRANCH   4   5
HETATM    5  C   UNL     1       6.624  25.668  53.202  1.00  0.00    -0.023 A 
HETATM    6  C   UNL     1       6.264  24.904  54.326  1.00  0.00     0.010 A 
HETATM    7  C   UNL     1       6.861  23.666  54.575  1.00  0.00     0.007 A 
HETATM    8  C   UNL     1       7.830  23.159  53.705  1.00  0.00    -0.059 A 
HETATM    9  C   UNL     1       8.192  23.908  52.581  1.00  0.00     0.007 A 
HETATM   10  C   UNL     1       7.599  25.150  52.333  1.00  0.00     0.010 A 
BRANCH   8  11
HETATM   11  C   UNL     1       8.438  21.799  53.949  1.00  0.00     0.034 C 
HETATM   12  C   UNL     1       7.905  20.759  52.974  1.00  0.00     0.010 C 
ENDBRANCH   8  11
ENDBRANCH   4   5
BRANCH   4  13
HETATM   13  C   UNL     1       5.408  27.120  51.535  1.00  0.00     0.017 A 
HETATM   14  S   UNL     1       5.331  28.679  50.811  1.00  0.00    -0.104 SA
HETATM   15  C   UNL     1       4.725  28.046  49.346  1.00  0.00     0.050 A 
HETATM   16  C   UNL     1       4.588  26.678  49.393  1.00  0.00     0.008 A 
HETATM   17  C   UNL     1       4.982  26.142  50.654  1.00  0.00     0.017 A 
ENDBRANCH   4  13
ENDBRANCH   1   4
BRANCH   1  18
HETATM   18  C   UNL     1       7.860  27.873  54.342  1.00  0.00     0.336 C 
BRANCH  18  19
HETATM   19  C   UNL     1       7.725  28.829  55.526  1.00  0.00     0.248 C 
HETATM   20  N   UNL     1       8.846  28.899  56.327  1.00  0.00    -0.326 N 
HETATM   21  H   UNL     1       9.637  28.301  56.109  1.00  0.00     0.169 HD
HETATM   22  O   UNL     1       6.662  29.431  55.662  1.00  0.00    -0.271 OA
BRANCH  20  23
HETATM   23  C   UNL     1       9.027  29.714  57.470  1.00  0.00     0.037 A 
HETATM   24  C   UNL     1       8.243  29.615  58.626  1.00  0.00     0.061 A 
HETATM   25  C   UNL     1       8.533  30.486  59.655  1.00  0.00     0.065 A 
HETATM   26  C   UNL     1       9.555  31.427  59.576  1.00  0.00     0.063 A 
HETATM   27  N   UNL     1       7.925  30.620  60.899  1.00  0.00    -0.306 N 
HETATM   28  N   UNL     1       9.580  32.137  60.769  1.00  0.00    -0.307 N 
HETATM   29  C   UNL     1      10.344  31.551  58.462  1.00  0.00     0.034 A 
HETATM   30  C   UNL     1       8.567  31.647  61.606  1.00  0.00     0.325 A 
HETATM   31  H   UNL     1      10.199  32.888  61.030  1.00  0.00     0.170 HD
HETATM   32  O   UNL     1       8.295  32.035  62.727  1.00  0.00    -0.247 OA
HETATM   33  C   UNL     1      10.068  30.681  57.398  1.00  0.00     0.032 A 
HETATM   34  H   UNL     1       7.151  30.093  61.271  1.00  0.00     0.170 HD
ENDBRANCH  20  23
ENDBRANCH  18  19
ENDBRANCH   1  18
TORSDOF 7
ENDMDL
MODEL 2
REMARK VINA RESULT:      -9.6      4.168      6.177
REMARK  7 active torsions:
REMARK  status: ('A' for Active; 'I' for Inactive)
REMARK    1  A    between atoms: C_2  and  C_3 
REMARK    2  A    between atoms: C_6  and  C_7 
REMARK    3  A    between atoms: C_7  and  N_8 
REMARK    4  A    between atoms: C_7  and  C_25 
REMARK    5  A    between atoms: N_8  and  C_11 
REMARK    6  A    between atoms: C_11  and  C_12 
REMARK       I    between atoms: C_12  and  N_13 
REMARK    7  A    between atoms: N_13  and  C_14 
ROOT
HETATM    1  N   UNL     1       7.393  24.191  56.342  1.00  0.00    -0.054 N 
HETATM    2  H   UNL     1       6.393  24.422  56.224  1.00  0.00     0.278 HD
HETATM    3  H   UNL     1       7.384  23.338  56.908  1.00  0.00     0.278 HD
ENDROOT
BRANCH   1   4
HETATM    4  C   UNL     1       8.000  23.927  55.004  1.00  0.00     0.259 C 
BRANCH   4   5
HETATM    5  C   UNL     1       7.171  24.524  53.880  1.00  0.00    -0.023 A 
HETATM    6  C   UNL     1       7.814  25.248  52.860  1.00  0.00     0.010 A 
HETATM    7  C   UNL     1       7.089  25.783  51.793  1.00  0.00     0.007 A 
HETATM    8  C   UNL     1       5.705  25.606  51.715  1.00  0.00    -0.059 A 
HETATM    9  C   UNL     1       5.057  24.884  52.721  1.00  0.00     0.007 A 
HETATM   10  C   UNL     1       5.778  24.351  53.793  1.00  0.00     0.010 A 
BRANCH   8  11
HETATM   11  C   UNL     1       4.932  26.143  50.536  1.00  0.00     0.034 C 
HETATM   12  C   UNL     1       5.271  27.600  50.254  1.00  0.00     0.010 C 
ENDBRANCH   8  11
ENDBRANCH   4   5
BRANCH   4  13
HETATM   13  C   UNL     1       8.285  22.458  54.804  1.00  0.00     0.017 A 
HETATM   14  S   UNL     1       8.385  21.430  56.180  1.00  0.00    -0.104 SA
HETATM   15  C   UNL     1       8.680  20.052  55.218  1.00  0.00     0.050 A 
HETATM   16  C   UNL     1       8.697  20.354  53.876  1.00  0.00     0.008 A 
HETATM   17  C   UNL     1       8.469  21.740  53.635  1.00  0.00     0.017 A 
ENDBRANCH   4  13
ENDBRANCH   1   4
BRANCH   1  18
HETATM   18  C   UNL     1       8.020  25.307  57.140  1.00  0.00     0.336 C 
BRANCH  18  19
HETATM   19  C   UNL     1       7.505  26.656  56.643  1.00  0.00     0.248 C 
HETATM   20  N   UNL     1       6.164  26.665  56.317  1.00  0.00    -0.326 N 
HETATM   21  H   UNL     1       5.642  25.797  56.387  1.00  0.00     0.169 HD
HETATM   22  O   UNL     1       8.305  27.588  56.571  1.00  0.00    -0.271 OA
BRANCH  20  23
HETATM   23  C   UNL     1       5.405  27.769  55.860  1.00  0.00     0.037 A 
HETATM   24  C   UNL     1       4.628  28.577  56.700  1.00  0.00     0.061 A 
HETATM   25  C   UNL     1       3.937  29.611  56.107  1.00  0.00     0.065 A 
HETATM   26  C   UNL     1       3.993  29.866  54.740  1.00  0.00     0.063 A 
HETATM   27  N   UNL     1       3.093  30.557  56.682  1.00  0.00    -0.306 N 
HETATM   28  N   UNL     1       3.188  30.966  54.473  1.00  0.00    -0.307 N 
HETATM   29  C   UNL     1       4.744  29.098  53.888  1.00  0.00     0.034 A 
HETATM   30  C   UNL     1       2.617  31.409  55.675  1.00  0.00     0.325 A 
HETATM   31  H   UNL     1       3.013  31.402  53.582  1.00  0.00     0.170 HD
HETATM   32  O   UNL     1       1.857  32.348  55.819  1.00  0.00    -0.247 OA
HETATM   33  C   UNL     1       5.455  28.035  54.464  1.00  0.00     0.032 A 
HETATM   34  H   UNL     1       2.836  30.649  57.651  1.00  0.00     0.170 HD
ENDBRANCH  20  23
ENDBRANCH  18  19
ENDBRANCH   1  18
TORSDOF 7
ENDMDL
MODEL 3
REMARK VINA RESULT:      -9.5      4.619      9.521
REMARK  7 active torsions:
REMARK  status: ('A' for Active; 'I' for Inactive)
REMARK    1  A    between atoms: C_2  and  C_3 
REMARK    2  A    between atoms: C_6  and  C_7 
REMARK    3  A    between atoms: C_7  and  N_8 
REMARK    4  A    between atoms: C_7  and  C_25 
REMARK    5  A    between atoms: N_8  and  C_11 
REMARK    6  A    between atoms: C_11  and  C_12 
REMARK       I    between atoms: C_12  and  N_13 
REMARK    7  A    between atoms: N_13  and  C_14 
ROOT
HETATM    1  N   UNL     1       5.963  26.979  52.542  1.00  0.00    -0.054 N 
HETATM    2  H   UNL     1       6.209  26.419  51.709  1.00  0.00     0.278 HD
HETATM    3  H   UNL     1       5.043  26.621  52.816  1.00  0.00     0.278 HD
ENDROOT
BRANCH   1   4
HETATM    4  C   UNL     1       6.966  26.728  53.619  1.00  0.00     0.259 C 
BRANCH   4   5
HETATM    5  C   UNL     1       7.312  25.253  53.736  1.00  0.00    -0.023 A 
HETATM    6  C   UNL     1       7.215  24.622  54.989  1.00  0.00     0.010 A 
HETATM    7  C   UNL     1       7.493  23.260  55.130  1.00  0.00     0.007 A 
HETATM    8  C   UNL     1       7.871  22.495  54.023  1.00  0.00    -0.059 A 
HETATM    9  C   UNL     1       7.966  23.112  52.773  1.00  0.00     0.007 A 
HETATM   10  C   UNL     1       7.693  24.476  52.629  1.00  0.00     0.010 A 
BRANCH   8  11
HETATM   11  C   UNL     1       8.123  21.014  54.169  1.00  0.00     0.034 C 
HETATM   12  C   UNL     1       8.383  20.351  52.824  1.00  0.00     0.010 C 
ENDBRANCH   8  11
ENDBRANCH   4   5
BRANCH   4  13
HETATM   13  C   UNL     1       6.533  27.333  54.933  1.00  0.00     0.017 A 
HETATM   14  S   UNL     1       7.657  28.280  55.828  1.00  0.00    -0.104 SA
HETATM   15  C   UNL     1       6.517  28.596  57.059  1.00  0.00     0.050 A 
HETATM   16  C   UNL     1       5.302  28.005  56.801  1.00  0.00     0.008 A 
HETATM   17  C   UNL     1       5.309  27.277  55.576  1.00  0.00     0.017 A 
ENDBRANCH   4  13
ENDBRANCH   1   4
BRANCH   1  18
HETATM   18  C   UNL     1       5.822  28.412  52.094  1.00  0.00     0.336 C 
BRANCH  18  19
HETATM   19  C   UNL     1       5.117  28.468  50.740  1.00  0.00     0.248 C 
HETATM   20  N   UNL     1       4.281  27.398  50.493  1.00  0.00    -0.326 N 
HETATM   21  H   UNL     1       4.227  26.655  51.182  1.00  0.00     0.169 HD
HETATM   22  O   UNL     1       5.352  29.428  50.008  1.00  0.00    -0.271 OA
BRANCH  20  23
HETATM   23  C   UNL     1       3.479  27.192  49.346  1.00  0.00     0.037 A 
HETATM   24  C   UNL     1       2.327  27.936  49.061  1.00  0.00     0.061 A 
HETATM   25  C   UNL     1       1.643  27.613  47.909  1.00  0.00     0.065 A 
HETATM   26  C   UNL     1       2.057  26.601  47.048  1.00  0.00     0.063 A 
HETATM   27  N   UNL     1       0.480  28.169  47.383  1.00  0.00    -0.306 N 
HETATM   28  N   UNL     1       1.155  26.533  45.995  1.00  0.00    -0.307 N 
HETATM   29  C   UNL     1       3.180  25.854  47.294  1.00  0.00     0.034 A 
HETATM   30  C   UNL     1       0.163  27.505  46.190  1.00  0.00     0.325 A 
HETATM   31  H   UNL     1       1.170  25.907  45.206  1.00  0.00     0.170 HD
HETATM   32  O   UNL     1      -0.790  27.730  45.466  1.00  0.00    -0.247 OA
HETATM   33  C   UNL     1       3.894  26.158  48.462  1.00  0.00     0.032 A 
HETATM   34  H   UNL     1      -0.075  28.918  47.764  1.00  0.00     0.170 HD
ENDBRANCH  20  23
ENDBRANCH  18  19
ENDBRANCH   1  18
TORSDOF 7
ENDMDL
MODEL 4
REMARK VINA RESULT:      -9.2      4.520      9.539
REMARK  7 active torsions:
REMARK  status: ('A' for Active; 'I' for Inactive)
REMARK    1  A    between atoms: C_2  and  C_3 
REMARK    2  A    between atoms: C_6  and  C_7 
REMARK    3  A    between atoms: C_7  and  N_8 
REMARK    4  A    between atoms: C_7  and  C_25 
REMARK    5  A    between atoms: N_8  and  C_11 
REMARK    6  A    between atoms: C_11  and  C_12 
REMARK       I    between atoms: C_12  and  N_13 
REMARK    7  A    between atoms: N_13  and  C_14 
ROOT
HETATM    1  N   UNL     1       5.637  26.993  53.075  1.00  0.00    -0.054 N 
HETATM    2  H   UNL     1       5.392  26.162  52.511  1.00  0.00     0.278 HD
HETATM    3  H   UNL     1       4.841  27.103  53.710  1.00  0.00     0.278 HD
ENDROOT
BRANCH   1   4
HETATM    4  C   UNL     1       6.887  26.717  53.843  1.00  0.00     0.259 C 
BRANCH   4   5
HETATM    5  C   UNL     1       7.206  25.231  53.888  1.00  0.00    -0.023 A 
HETATM    6  C   UNL     1       7.016  24.524  55.088  1.00  0.00     0.010 A 
HETATM    7  C   UNL     1       7.266  23.151  55.159  1.00  0.00     0.007 A 
HETATM    8  C   UNL     1       7.707  22.451  54.034  1.00  0.00    -0.059 A 
HETATM    9  C   UNL     1       7.894  23.144  52.834  1.00  0.00     0.007 A 
HETATM   10  C   UNL     1       7.650  24.519  52.760  1.00  0.00     0.010 A 
BRANCH   8  11
HETATM   11  C   UNL     1       7.930  20.960  54.101  1.00  0.00     0.034 C 
HETATM   12  C   UNL     1       8.387  20.397  52.762  1.00  0.00     0.010 C 
ENDBRANCH   8  11
ENDBRANCH   4   5
BRANCH   4  13
HETATM   13  C   UNL     1       6.847  27.347  55.214  1.00  0.00     0.017 A 
HETATM   14  S   UNL     1       5.322  27.643  55.955  1.00  0.00    -0.104 SA
HETATM   15  C   UNL     1       6.049  28.287  57.358  1.00  0.00     0.050 A 
HETATM   16  C   UNL     1       7.423  28.276  57.279  1.00  0.00     0.008 A 
HETATM   17  C   UNL     1       7.885  27.734  56.044  1.00  0.00     0.017 A 
ENDBRANCH   4  13
ENDBRANCH   1   4
BRANCH   1  18
HETATM   18  C   UNL     1       5.689  28.172  52.137  1.00  0.00     0.336 C 
BRANCH  18  19
HETATM   19  C   UNL     1       4.986  27.826  50.825  1.00  0.00     0.248 C 
HETATM   20  N   UNL     1       4.036  28.746  50.432  1.00  0.00    -0.326 N 
HETATM   21  H   UNL     1       3.846  29.537  51.039  1.00  0.00     0.169 HD
HETATM   22  O   UNL     1       5.313  26.787  50.254  1.00  0.00    -0.271 OA
BRANCH  20  23
HETATM   23  C   UNL     1       3.250  28.710  49.256  1.00  0.00     0.037 A 
HETATM   24  C   UNL     1       2.208  27.798  49.046  1.00  0.00     0.061 A 
HETATM   25  C   UNL     1       1.538  27.879  47.844  1.00  0.00     0.065 A 
HETATM   26  C   UNL     1       1.861  28.816  46.867  1.00  0.00     0.063 A 
HETATM   27  N   UNL     1       0.482  27.111  47.365  1.00  0.00    -0.306 N 
HETATM   28  N   UNL     1       1.004  28.628  45.790  1.00  0.00    -0.307 N 
HETATM   29  C   UNL     1       2.873  29.725  47.038  1.00  0.00     0.034 A 
HETATM   30  C   UNL     1       0.138  27.565  46.084  1.00  0.00     0.325 A 
HETATM   31  H   UNL     1       0.977  29.142  44.924  1.00  0.00     0.170 HD
HETATM   32  O   UNL     1      -0.742  27.122  45.369  1.00  0.00    -0.247 OA
HETATM   33  C   UNL     1       3.574  29.662  48.250  1.00  0.00     0.032 A 
HETATM   34  H   UNL     1       0.015  26.345  47.824  1.00  0.00     0.170 HD
ENDBRANCH  20  23
ENDBRANCH  18  19
ENDBRANCH   1  18
TORSDOF 7
ENDMDL
MODEL 5
REMARK VINA RESULT:      -9.1      3.294      8.241
REMARK  7 active torsions:
REMARK  status: ('A' for Active; 'I' for Inactive)
REMARK    1  A    between atoms: C_2  and  C_3 
REMARK    2  A    between atoms: C_6  and  C_7 
REMARK    3  A    between atoms: C_7  and  N_8 
REMARK    4  A    between atoms: C_7  and  C_25 
REMARK    5  A    between atoms: N_8  and  C_11 
REMARK    6  A    between atoms: C_11  and  C_12 
REMARK       I    between atoms: C_12  and  N_13 
REMARK    7  A    between atoms: N_13  and  C_14 
ROOT
HETATM    1  N   UNL     1       6.233  29.304  56.733  1.00  0.00    -0.054 N 
HETATM    2  H   UNL     1       5.742  28.448  57.039  1.00  0.00     0.278 HD
HETATM    3  H   UNL     1       6.462  29.784  57.609  1.00  0.00     0.278 HD
ENDROOT
BRANCH   1   4
HETATM    4  C   UNL     1       7.478  28.924  56.002  1.00  0.00     0.259 C 
BRANCH   4   5
HETATM    5  C   UNL     1       7.576  27.421  55.797  1.00  0.00    -0.023 A 
HETATM    6  C   UNL     1       7.826  26.591  56.904  1.00  0.00     0.010 A 
HETATM    7  C   UNL     1       7.889  25.203  56.760  1.00  0.00     0.007 A 
HETATM    8  C   UNL     1       7.701  24.610  55.509  1.00  0.00    -0.059 A 
HETATM    9  C   UNL     1       7.448  25.426  54.403  1.00  0.00     0.007 A 
HETATM   10  C   UNL     1       7.389  26.816  54.542  1.00  0.00     0.010 A 
BRANCH   8  11
HETATM   11  C   UNL     1       7.722  23.108  55.365  1.00  0.00     0.034 C 
HETATM   12  C   UNL     1       8.385  22.435  56.559  1.00  0.00     0.010 C 
ENDBRANCH   8  11
ENDBRANCH   4   5
BRANCH   4  13
HETATM   13  C   UNL     1       8.707  29.505  56.660  1.00  0.00     0.017 A 
HETATM   14  S   UNL     1       8.559  30.239  58.210  1.00  0.00    -0.104 SA
HETATM   15  C   UNL     1      10.226  30.596  58.278  1.00  0.00     0.050 A 
HETATM   16  C   UNL     1      10.893  30.164  57.155  1.00  0.00     0.008 A 
HETATM   17  C   UNL     1      10.019  29.534  56.221  1.00  0.00     0.017 A 
ENDBRANCH   4  13
ENDBRANCH   1   4
BRANCH   1  18
HETATM   18  C   UNL     1       5.243  30.136  55.957  1.00  0.00     0.336 C 
BRANCH  18  19
HETATM   19  C   UNL     1       4.656  29.313  54.812  1.00  0.00     0.248 C 
HETATM   20  N   UNL     1       4.942  29.808  53.556  1.00  0.00    -0.326 N 
HETATM   21  H   UNL     1       5.466  30.674  53.483  1.00  0.00     0.169 HD
HETATM   22  O   UNL     1       3.995  28.317  55.098  1.00  0.00    -0.271 OA
BRANCH  20  23
HETATM   23  C   UNL     1       4.561  29.247  52.313  1.00  0.00     0.037 A 
HETATM   24  C   UNL     1       5.406  28.452  51.529  1.00  0.00     0.061 A 
HETATM   25  C   UNL     1       4.897  27.984  50.337  1.00  0.00     0.065 A 
HETATM   26  C   UNL     1       3.604  28.272  49.909  1.00  0.00     0.063 A 
HETATM   27  N   UNL     1       5.500  27.191  49.366  1.00  0.00    -0.306 N 
HETATM   28  N   UNL     1       3.409  27.656  48.680  1.00  0.00    -0.307 N 
HETATM   29  C   UNL     1       2.748  29.045  50.650  1.00  0.00     0.034 A 
HETATM   30  C   UNL     1       4.585  26.978  48.325  1.00  0.00     0.325 A 
HETATM   31  H   UNL     1       2.583  27.671  48.104  1.00  0.00     0.170 HD
HETATM   32  O   UNL     1       4.776  26.331  47.312  1.00  0.00    -0.247 OA
HETATM   33  C   UNL     1       3.243  29.538  51.867  1.00  0.00     0.032 A 
HETATM   34  H   UNL     1       6.434  26.814  49.367  1.00  0.00     0.170 HD
ENDBRANCH  20  23
ENDBRANCH  18  19
ENDBRANCH   1  18
TORSDOF 7
ENDMDL
MODEL 6
REMARK VINA RESULT:      -9.0      1.867      2.463
REMARK  7 active torsions:
REMARK  status: ('A' for Active; 'I' for Inactive)
REMARK    1  A    between atoms: C_2  and  C_3 
REMARK    2  A    between atoms: C_6  and  C_7 
REMARK    3  A    between atoms: C_7  and  N_8 
REMARK    4  A    between atoms: C_7  and  C_25 
REMARK    5  A    between atoms: N_8  and  C_11 
REMARK    6  A    between atoms: C_11  and  C_12 
REMARK       I    between atoms: C_12  and  N_13 
REMARK    7  A    between atoms: N_13  and  C_14 
ROOT
HETATM    1  N   UNL     1       7.634  28.466  54.906  1.00  0.00    -0.054 N 
HETATM    2  H   UNL     1       8.196  28.552  54.044  1.00  0.00     0.278 HD
HETATM    3  H   UNL     1       7.372  29.431  55.127  1.00  0.00     0.278 HD
ENDROOT
BRANCH   1   4
HETATM    4  C   UNL     1       6.419  27.645  54.621  1.00  0.00     0.259 C 
BRANCH   4   5
HETATM    5  C   UNL     1       6.781  26.236  54.181  1.00  0.00    -0.023 A 
HETATM    6  C   UNL     1       7.581  26.057  53.038  1.00  0.00     0.010 A 
HETATM    7  C   UNL     1       7.961  24.780  52.621  1.00  0.00     0.007 A 
HETATM    8  C   UNL     1       7.556  23.649  53.336  1.00  0.00    -0.059 A 
HETATM    9  C   UNL     1       6.764  23.817  54.477  1.00  0.00     0.007 A 
HETATM   10  C   UNL     1       6.377  25.094  54.894  1.00  0.00     0.010 A 
BRANCH   8  11
HETATM   11  C   UNL     1       8.009  22.274  52.912  1.00  0.00     0.034 C 
HETATM   12  C   UNL     1       7.923  21.273  54.056  1.00  0.00     0.010 C 
ENDBRANCH   8  11
ENDBRANCH   4   5
BRANCH   4  13
HETATM   13  C   UNL     1       5.493  28.340  53.653  1.00  0.00     0.017 A 
HETATM   14  S   UNL     1       3.947  28.861  54.201  1.00  0.00    -0.104 SA
HETATM   15  C   UNL     1       3.548  29.513  52.676  1.00  0.00     0.050 A 
HETATM   16  C   UNL     1       4.564  29.351  51.763  1.00  0.00     0.008 A 
HETATM   17  C   UNL     1       5.687  28.676  52.324  1.00  0.00     0.017 A 
ENDBRANCH   4  13
ENDBRANCH   1   4
BRANCH   1  18
HETATM   18  C   UNL     1       8.545  27.940  55.986  1.00  0.00     0.336 C 
BRANCH  18  19
HETATM   19  C   UNL     1       8.093  28.462  57.348  1.00  0.00     0.248 C 
HETATM   20  N   UNL     1       8.283  29.817  57.527  1.00  0.00    -0.326 N 
HETATM   21  H   UNL     1       8.732  30.346  56.785  1.00  0.00     0.169 HD
HETATM   22  O   UNL     1       7.619  27.655  58.146  1.00  0.00    -0.271 OA
BRANCH  20  23
HETATM   23  C   UNL     1       7.936  30.583  58.665  1.00  0.00     0.037 A 
HETATM   24  C   UNL     1       8.629  30.524  59.881  1.00  0.00     0.061 A 
HETATM   25  C   UNL     1       8.167  31.323  60.904  1.00  0.00     0.065 A 
HETATM   26  C   UNL     1       7.067  32.164  60.761  1.00  0.00     0.063 A 
HETATM   27  N   UNL     1       8.644  31.464  62.203  1.00  0.00    -0.306 N 
HETATM   28  N   UNL     1       6.867  32.822  61.967  1.00  0.00    -0.307 N 
HETATM   29  C   UNL     1       6.366  32.250  59.586  1.00  0.00     0.034 A 
HETATM   30  C   UNL     1       7.843  32.395  62.880  1.00  0.00     0.325 A 
HETATM   31  H   UNL     1       6.154  33.497  62.194  1.00  0.00     0.170 HD
HETATM   32  O   UNL     1       7.972  32.760  64.034  1.00  0.00    -0.247 OA
HETATM   33  C   UNL     1       6.812  31.443  58.529  1.00  0.00     0.032 A 
HETATM   34  H   UNL     1       9.426  30.994  62.630  1.00  0.00     0.170 HD
ENDBRANCH  20  23
ENDBRANCH  18  19
ENDBRANCH   1  18
TORSDOF 7
ENDMDL
MODEL 7
REMARK VINA RESULT:      -8.9      4.508      9.925
REMARK  7 active torsions:
REMARK  status: ('A' for Active; 'I' for Inactive)
REMARK    1  A    between atoms: C_2  and  C_3 
REMARK    2  A    between atoms: C_6  and  C_7 
REMARK    3  A    between atoms: C_7  and  N_8 
REMARK    4  A    between atoms: C_7  and  C_25 
REMARK    5  A    between atoms: N_8  and  C_11 
REMARK    6  A    between atoms: C_11  and  C_12 
REMARK       I    between atoms: C_12  and  N_13 
REMARK    7  A    between atoms: N_13  and  C_14 
ROOT
HETATM    1  N   UNL     1       5.423  27.169  52.310  1.00  0.00    -0.054 N 
HETATM    2  H   UNL     1       4.728  26.610  52.832  1.00  0.00     0.278 HD
HETATM    3  H   UNL     1       5.100  28.135  52.426  1.00  0.00     0.278 HD
ENDROOT
BRANCH   1   4
HETATM    4  C   UNL     1       6.768  26.989  52.933  1.00  0.00     0.259 C 
BRANCH   4   5
HETATM    5  C   UNL     1       7.041  25.534  53.275  1.00  0.00    -0.023 A 
HETATM    6  C   UNL     1       7.782  24.744  52.378  1.00  0.00     0.010 A 
HETATM    7  C   UNL     1       8.082  23.412  52.673  1.00  0.00     0.007 A 
HETATM    8  C   UNL     1       7.653  22.836  53.871  1.00  0.00    -0.059 A 
HETATM    9  C   UNL     1       6.919  23.614  54.772  1.00  0.00     0.007 A 
HETATM   10  C   UNL     1       6.613  24.946  54.478  1.00  0.00     0.010 A 
BRANCH   8  11
HETATM   11  C   UNL     1       8.019  21.412  54.209  1.00  0.00     0.034 C 
HETATM   12  C   UNL     1       8.106  20.541  52.964  1.00  0.00     0.010 C 
ENDBRANCH   8  11
ENDBRANCH   4   5
BRANCH   4  13
HETATM   13  C   UNL     1       6.963  27.913  54.111  1.00  0.00     0.017 A 
HETATM   14  S   UNL     1       5.580  28.557  54.907  1.00  0.00    -0.104 SA
HETATM   15  C   UNL     1       6.537  29.405  56.037  1.00  0.00     0.050 A 
HETATM   16  C   UNL     1       7.882  29.203  55.828  1.00  0.00     0.008 A 
HETATM   17  C   UNL     1       8.130  28.343  54.719  1.00  0.00     0.017 A 
ENDBRANCH   4  13
ENDBRANCH   1   4
BRANCH   1  18
HETATM   18  C   UNL     1       5.313  26.781  50.858  1.00  0.00     0.336 C 
BRANCH  18  19
HETATM   19  C   UNL     1       4.270  27.654  50.162  1.00  0.00     0.248 C 
HETATM   20  N   UNL     1       3.828  27.153  48.955  1.00  0.00    -0.326 N 
HETATM   21  H   UNL     1       4.241  26.294  48.605  1.00  0.00     0.169 HD
HETATM   22  O   UNL     1       3.930  28.697  50.717  1.00  0.00    -0.271 OA
BRANCH  20  23
HETATM   23  C   UNL     1       2.850  27.722  48.104  1.00  0.00     0.037 A 
HETATM   24  C   UNL     1       3.004  28.956  47.461  1.00  0.00     0.061 A 
HETATM   25  C   UNL     1       1.959  29.384  46.670  1.00  0.00     0.065 A 
HETATM   26  C   UNL     1       0.795  28.641  46.498  1.00  0.00     0.063 A 
HETATM   27  N   UNL     1       1.831  30.553  45.927  1.00  0.00    -0.306 N 
HETATM   28  N   UNL     1      -0.048  29.349  45.651  1.00  0.00    -0.307 N 
HETATM   29  C   UNL     1       0.610  27.428  47.110  1.00  0.00     0.034 A 
HETATM   30  C   UNL     1       0.584  30.547  45.287  1.00  0.00     0.325 A 
HETATM   31  H   UNL     1      -0.966  29.086  45.330  1.00  0.00     0.170 HD
HETATM   32  O   UNL     1       0.139  31.413  44.557  1.00  0.00    -0.247 OA
HETATM   33  C   UNL     1       1.656  26.971  47.925  1.00  0.00     0.032 A 
HETATM   34  H   UNL     1       2.494  31.306  45.839  1.00  0.00     0.170 HD
ENDBRANCH  20  23
ENDBRANCH  18  19
ENDBRANCH   1  18
TORSDOF 7
ENDMDL
MODEL 8
REMARK VINA RESULT:      -8.8      3.699      8.366
REMARK  7 active torsions:
REMARK  status: ('A' for Active; 'I' for Inactive)
REMARK    1  A    between atoms: C_2  and  C_3 
REMARK    2  A    between atoms: C_6  and  C_7 
REMARK    3  A    between atoms: C_7  and  N_8 
REMARK    4  A    between atoms: C_7  and  C_25 
REMARK    5  A    between atoms: N_8  and  C_11 
REMARK    6  A    between atoms: C_11  and  C_12 
REMARK       I    between atoms: C_12  and  N_13 
REMARK    7  A    between atoms: N_13  and  C_14 
ROOT
HETATM    1  N   UNL     1       4.958  26.835  55.047  1.00  0.00    -0.054 N 
HETATM    2  H   UNL     1       4.466  26.184  54.414  1.00  0.00     0.278 HD
HETATM    3  H   UNL     1       4.856  26.405  55.971  1.00  0.00     0.278 HD
ENDROOT
BRANCH   1   4
HETATM    4  C   UNL     1       6.398  26.907  54.658  1.00  0.00     0.259 C 
BRANCH   4   5
HETATM    5  C   UNL     1       6.934  25.553  54.225  1.00  0.00    -0.023 A 
HETATM    6  C   UNL     1       6.851  24.466  55.113  1.00  0.00     0.010 A 
HETATM    7  C   UNL     1       7.303  23.198  54.739  1.00  0.00     0.007 A 
HETATM    8  C   UNL     1       7.844  22.983  53.469  1.00  0.00    -0.059 A 
HETATM    9  C   UNL     1       7.927  24.057  52.577  1.00  0.00     0.007 A 
HETATM   10  C   UNL     1       7.481  25.328  52.950  1.00  0.00     0.010 A 
BRANCH   8  11
HETATM   11  C   UNL     1       8.287  21.603  53.050  1.00  0.00     0.034 C 
HETATM   12  C   UNL     1       7.883  20.547  54.070  1.00  0.00     0.010 C 
ENDBRANCH   8  11
ENDBRANCH   4   5
BRANCH   4  13
HETATM   13  C   UNL     1       7.234  27.549  55.739  1.00  0.00     0.017 A 
HETATM   14  S   UNL     1       8.408  28.727  55.299  1.00  0.00    -0.104 SA
HETATM   15  C   UNL     1       8.875  28.971  56.922  1.00  0.00     0.050 A 
HETATM   16  C   UNL     1       8.154  28.183  57.790  1.00  0.00     0.008 A 
HETATM   17  C   UNL     1       7.208  27.363  57.110  1.00  0.00     0.017 A 
ENDBRANCH   4  13
ENDBRANCH   1   4
BRANCH   1  18
HETATM   18  C   UNL     1       4.204  28.141  55.023  1.00  0.00     0.336 C 
BRANCH  18  19
HETATM   19  C   UNL     1       4.242  28.739  53.618  1.00  0.00     0.248 C 
HETATM   20  N   UNL     1       3.913  27.849  52.616  1.00  0.00    -0.326 N 
HETATM   21  H   UNL     1       3.717  26.885  52.867  1.00  0.00     0.169 HD
HETATM   22  O   UNL     1       4.559  29.922  53.504  1.00  0.00    -0.271 OA
BRANCH  20  23
HETATM   23  C   UNL     1       3.833  28.121  51.229  1.00  0.00     0.037 A 
HETATM   24  C   UNL     1       2.876  28.967  50.658  1.00  0.00     0.061 A 
HETATM   25  C   UNL     1       2.918  29.126  49.289  1.00  0.00     0.065 A 
HETATM   26  C   UNL     1       3.861  28.489  48.488  1.00  0.00     0.063 A 
HETATM   27  N   UNL     1       2.100  29.888  48.460  1.00  0.00    -0.306 N 
HETATM   28  N   UNL     1       3.628  28.858  47.170  1.00  0.00    -0.307 N 
HETATM   29  C   UNL     1       4.815  27.656  49.012  1.00  0.00     0.034 A 
HETATM   30  C   UNL     1       2.530  29.731  47.135  1.00  0.00     0.325 A 
HETATM   31  H   UNL     1       4.133  28.570  46.348  1.00  0.00     0.170 HD
HETATM   32  O   UNL     1       2.043  30.251  46.148  1.00  0.00    -0.247 OA
HETATM   33  C   UNL     1       4.792  27.472  50.402  1.00  0.00     0.032 A 
HETATM   34  H   UNL     1       1.318  30.466  48.723  1.00  0.00     0.170 HD
ENDBRANCH  20  23
ENDBRANCH  18  19
ENDBRANCH   1  18
TORSDOF 7
ENDMDL
MODEL 9
REMARK VINA RESULT:      -8.8      2.886      3.166
REMARK  7 active torsions:
REMARK  status: ('A' for Active; 'I' for Inactive)
REMARK    1  A    between atoms: C_2  and  C_3 
REMARK    2  A    between atoms: C_6  and  C_7 
REMARK    3  A    between atoms: C_7  and  N_8 
REMARK    4  A    between atoms: C_7  and  C_25 
REMARK    5  A    between atoms: N_8  and  C_11 
REMARK    6  A    between atoms: C_11  and  C_12 
REMARK       I    between atoms: C_12  and  N_13 
REMARK    7  A    between atoms: N_13  and  C_14 
ROOT
HETATM    1  N   UNL     1       5.529  27.935  53.387  1.00  0.00    -0.054 N 
HETATM    2  H   UNL     1       6.228  27.688  54.107  1.00  0.00     0.278 HD
HETATM    3  H   UNL     1       6.006  28.635  52.810  1.00  0.00     0.278 HD
ENDROOT
BRANCH   1   4
HETATM    4  C   UNL     1       5.204  26.722  52.580  1.00  0.00     0.259 C 
BRANCH   4   5
HETATM    5  C   UNL     1       6.161  25.578  52.868  1.00  0.00    -0.023 A 
HETATM    6  C   UNL     1       5.970  24.796  54.021  1.00  0.00     0.010 A 
HETATM    7  C   UNL     1       6.810  23.716  54.303  1.00  0.00     0.007 A 
HETATM    8  C   UNL     1       7.857  23.387  53.439  1.00  0.00    -0.059 A 
HETATM    9  C   UNL     1       8.053  24.155  52.287  1.00  0.00     0.007 A 
HETATM   10  C   UNL     1       7.218  25.240  52.005  1.00  0.00     0.010 A 
BRANCH   8  11
HETATM   11  C   UNL     1       8.732  22.190  53.720  1.00  0.00     0.034 C 
HETATM   12  C   UNL     1       8.198  20.930  53.053  1.00  0.00     0.010 C 
ENDBRANCH   8  11
ENDBRANCH   4   5
BRANCH   4  13
HETATM   13  C   UNL     1       5.105  27.045  51.108  1.00  0.00     0.017 A 
HETATM   14  S   UNL     1       5.509  28.629  50.570  1.00  0.00    -0.104 SA
HETATM   15  C   UNL     1       5.197  28.232  48.940  1.00  0.00     0.050 A 
HETATM   16  C   UNL     1       4.800  26.922  48.795  1.00  0.00     0.008 A 
HETATM   17  C   UNL     1       4.747  26.236  50.043  1.00  0.00     0.017 A 
ENDBRANCH   4  13
ENDBRANCH   1   4
BRANCH   1  18
HETATM   18  C   UNL     1       4.367  28.586  54.094  1.00  0.00     0.336 C 
BRANCH  18  19
HETATM   19  C   UNL     1       4.811  29.102  55.462  1.00  0.00     0.248 C 
HETATM   20  N   UNL     1       4.115  30.209  55.902  1.00  0.00    -0.326 N 
HETATM   21  H   UNL     1       3.412  30.614  55.293  1.00  0.00     0.169 HD
HETATM   22  O   UNL     1       5.726  28.509  56.031  1.00  0.00    -0.271 OA
BRANCH  20  23
HETATM   23  C   UNL     1       4.283  30.885  57.134  1.00  0.00     0.037 A 
HETATM   24  C   UNL     1       3.459  30.683  58.248  1.00  0.00     0.061 A 
HETATM   25  C   UNL     1       3.740  31.422  59.377  1.00  0.00     0.065 A 
HETATM   26  C   UNL     1       4.791  32.333  59.434  1.00  0.00     0.063 A 
HETATM   27  N   UNL     1       3.098  31.436  60.611  1.00  0.00    -0.306 N 
HETATM   28  N   UNL     1       4.798  32.905  60.700  1.00  0.00    -0.307 N 
HETATM   29  C   UNL     1       5.619  32.556  58.365  1.00  0.00     0.034 A 
HETATM   30  C   UNL     1       3.745  32.356  61.447  1.00  0.00     0.325 A 
HETATM   31  H   UNL     1       5.431  33.601  61.062  1.00  0.00     0.170 HD
HETATM   32  O   UNL     1       3.449  32.625  62.596  1.00  0.00    -0.247 OA
HETATM   33  C   UNL     1       5.353  31.819  57.201  1.00  0.00     0.032 A 
HETATM   34  H   UNL     1       2.297  30.896  60.898  1.00  0.00     0.170 HD
ENDBRANCH  20  23
ENDBRANCH  18  19
ENDBRANCH   1  18
TORSDOF 7
ENDMDL
MODEL 10
REMARK VINA RESULT:      -8.7      3.537      5.930
REMARK  7 active torsions:
REMARK  status: ('A' for Active; 'I' for Inactive)
REMARK    1  A    between atoms: C_2  and  C_3 
REMARK    2  A    between atoms: C_6  and  C_7 
REMARK    3  A    between atoms: C_7  and  N_8 
REMARK    4  A    between atoms: C_7  and  C_25 
REMARK    5  A    between atoms: N_8  and  C_11 
REMARK    6  A    between atoms: C_11  and  C_12 
REMARK       I    between atoms: C_12  and  N_13 
REMARK    7  A    between atoms: N_13  and  C_14 
ROOT
HETATM    1  N   UNL     1       6.185  29.646  57.881  1.00  0.00    -0.054 N 
HETATM    2  H   UNL     1       5.571  28.822  57.991  1.00  0.00     0.278 HD
HETATM    3  H   UNL     1       6.569  29.793  58.819  1.00  0.00     0.278 HD
ENDROOT
BRANCH   1   4
HETATM    4  C   UNL     1       7.274  29.323  56.912  1.00  0.00     0.259 C 
BRANCH   4   5
HETATM    5  C   UNL     1       7.346  27.834  56.619  1.00  0.00    -0.023 A 
HETATM    6  C   UNL     1       7.630  26.940  57.667  1.00  0.00     0.010 A 
HETATM    7  C   UNL     1       7.671  25.562  57.443  1.00  0.00     0.007 A 
HETATM    8  C   UNL     1       7.427  25.041  56.169  1.00  0.00    -0.059 A 
HETATM    9  C   UNL     1       7.140  25.921  55.122  1.00  0.00     0.007 A 
HETATM   10  C   UNL     1       7.102  27.302  55.341  1.00  0.00     0.010 A 
BRANCH   8  11
HETATM   11  C   UNL     1       7.425  23.550  55.941  1.00  0.00     0.034 C 
HETATM   12  C   UNL     1       8.827  23.016  55.682  1.00  0.00     0.010 C 
ENDBRANCH   8  11
ENDBRANCH   4   5
BRANCH   4  13
HETATM   13  C   UNL     1       8.599  29.896  57.355  1.00  0.00     0.017 A 
HETATM   14  S   UNL     1       9.985  29.664  56.362  1.00  0.00    -0.104 SA
HETATM   15  C   UNL     1      10.985  30.541  57.430  1.00  0.00     0.050 A 
HETATM   16  C   UNL     1      10.289  31.012  58.520  1.00  0.00     0.008 A 
HETATM   17  C   UNL     1       8.913  30.641  58.478  1.00  0.00     0.017 A 
ENDBRANCH   4  13
ENDBRANCH   1   4
BRANCH   1  18
HETATM   18  C   UNL     1       5.306  30.815  57.516  1.00  0.00     0.336 C 
BRANCH  18  19
HETATM   19  C   UNL     1       5.550  31.972  58.484  1.00  0.00     0.248 C 
HETATM   20  N   UNL     1       5.503  31.615  59.816  1.00  0.00    -0.326 N 
HETATM   21  H   UNL     1       5.276  30.654  60.053  1.00  0.00     0.169 HD
HETATM   22  O   UNL     1       5.755  33.087  58.008  1.00  0.00    -0.271 OA
BRANCH  20  23
HETATM   23  C   UNL     1       5.719  32.459  60.931  1.00  0.00     0.037 A 
HETATM   24  C   UNL     1       4.775  33.379  61.402  1.00  0.00     0.061 A 
HETATM   25  C   UNL     1       5.133  34.139  62.495  1.00  0.00     0.065 A 
HETATM   26  C   UNL     1       6.368  34.015  63.123  1.00  0.00     0.063 A 
HETATM   27  N   UNL     1       4.412  35.123  63.165  1.00  0.00    -0.306 N 
HETATM   28  N   UNL     1       6.409  34.917  64.178  1.00  0.00    -0.307 N 
HETATM   29  C   UNL     1       7.316  33.123  62.692  1.00  0.00     0.034 A 
HETATM   30  C   UNL     1       5.195  35.618  64.217  1.00  0.00     0.325 A 
HETATM   31  H   UNL     1       7.162  35.076  64.828  1.00  0.00     0.170 HD
HETATM   32  O   UNL     1       4.880  36.488  65.009  1.00  0.00    -0.247 OA
HETATM   33  C   UNL     1       6.980  32.340  61.578  1.00  0.00     0.032 A 
HETATM   34  H   UNL     1       3.484  35.457  62.961  1.00  0.00     0.170 HD
ENDBRANCH  20  23
ENDBRANCH  18  19
ENDBRANCH   1  18
TORSDOF 7
ENDMDL
