MODEL 1
REMARK VINA RESULT:      -9.1      0.000      0.000
REMARK  5 active torsions:
REMARK  status: ('A' for Active; 'I' for Inactive)
REMARK    1  A    between atoms: C_2  and  C_3 
REMARK    2  A    between atoms: C_4  and  N_5 
REMARK       I    between atoms: N_5  and  C_6 
REMARK    3  A    between atoms: C_6  and  C_7 
REMARK    4  A    between atoms: C_10  and  O_11 
REMARK    5  A    between atoms: C_20  and  C_21 
ROOT
HETATM    1  C   UNL     1       6.941  24.517  55.941  1.00  0.00     0.018 A 
HETATM    2  C   UNL     1       7.236  25.218  57.096  1.00  0.00     0.133 A 
HETATM    3  N   UNL     1       8.071  24.429  57.825  1.00  0.00    -0.261 N 
HETATM    4  H   UNL     1       8.454  24.623  58.747  1.00  0.00     0.191 HD
HETATM    5  N   UNL     1       8.434  23.315  57.192  1.00  0.00    -0.172 NA
HETATM    6  C   UNL     1       7.770  23.331  56.020  1.00  0.00     0.097 A 
ENDROOT
BRANCH   2   7
HETATM    7  N   UNL     1       6.774  26.486  57.419  1.00  0.00    -0.307 N 
HETATM    8  C   UNL     1       7.658  27.612  57.481  1.00  0.00     0.260 C 
HETATM    9  O   UNL     1       8.863  27.441  57.374  1.00  0.00    -0.267 OA
HETATM   10  H   UNL     1       5.778  26.615  57.556  1.00  0.00     0.170 HD
BRANCH   8  11
HETATM   11  C   UNL     1       7.058  28.945  57.687  1.00  0.00     0.073 A 
HETATM   12  C   UNL     1       7.793  29.973  58.281  1.00  0.00     0.165 A 
HETATM   13  F   UNL     1       9.078  29.753  58.605  1.00  0.00    -0.202 F 
HETATM   14  C   UNL     1       7.207  31.217  58.522  1.00  0.00     0.107 A 
HETATM   15  C   UNL     1       5.889  31.437  58.111  1.00  0.00     0.040 A 
HETATM   16  C   UNL     1       5.149  30.415  57.513  1.00  0.00     0.004 A 
HETATM   17  C   UNL     1       5.727  29.162  57.313  1.00  0.00     0.020 A 
BRANCH  14  18
HETATM   18  O   UNL     1       7.811  32.292  59.111  1.00  0.00    -0.353 OA
HETATM   19  C   UNL     1       7.811  32.316  60.535  1.00  0.00     0.210 C 
ENDBRANCH  14  18
ENDBRANCH   8  11
ENDBRANCH   2   7
BRANCH   1  20
HETATM   20  C   UNL     1       5.968  24.950  54.894  1.00  0.00     0.040 C 
HETATM   21  C   UNL     1       6.588  25.866  53.851  1.00  0.00     0.010 C 
ENDBRANCH   1  20
BRANCH   6  22
HETATM   22  C   UNL     1       7.998  22.217  55.072  1.00  0.00    -0.002 A 
HETATM   23  C   UNL     1       8.485  20.992  55.559  1.00  0.00     0.033 A 
HETATM   24  C   UNL     1       8.726  19.949  54.680  1.00  0.00     0.117 A 
HETATM   25  N   UNL     1       8.515  20.031  53.353  1.00  0.00    -0.273 NA
HETATM   26  C   UNL     1       8.048  21.207  52.893  1.00  0.00     0.117 A 
HETATM   27  C   UNL     1       7.783  22.310  53.696  1.00  0.00     0.033 A 
ENDBRANCH   6  22
TORSDOF 5
ENDMDL
MODEL 2
REMARK VINA RESULT:      -8.7      2.716      3.367
REMARK  5 active torsions:
REMARK  status: ('A' for Active; 'I' for Inactive)
REMARK    1  A    between atoms: C_2  and  C_3 
REMARK    2  A    between atoms: C_4  and  N_5 
REMARK       I    between atoms: N_5  and  C_6 
REMARK    3  A    between atoms: C_6  and  C_7 
REMARK    4  A    between atoms: C_10  and  O_11 
REMARK    5  A    between atoms: C_20  and  C_21 
ROOT
HETATM    1  C   UNL     1       6.367  24.684  55.086  1.00  0.00     0.018 A 
HETATM    2  C   UNL     1       5.709  25.641  54.336  1.00  0.00     0.133 A 
HETATM    3  N   UNL     1       5.887  25.299  53.030  1.00  0.00    -0.261 N 
HETATM    4  H   UNL     1       5.565  25.807  52.211  1.00  0.00     0.191 HD
HETATM    5  N   UNL     1       6.517  24.136  52.869  1.00  0.00    -0.172 NA
HETATM    6  C   UNL     1       6.823  23.713  54.112  1.00  0.00     0.097 A 
ENDROOT
BRANCH   2   7
HETATM    7  N   UNL     1       4.995  26.720  54.837  1.00  0.00    -0.307 N 
HETATM    8  C   UNL     1       5.524  28.050  54.800  1.00  0.00     0.260 C 
HETATM    9  O   UNL     1       6.676  28.233  54.438  1.00  0.00    -0.267 OA
HETATM   10  H   UNL     1       4.056  26.556  55.182  1.00  0.00     0.170 HD
BRANCH   8  11
HETATM   11  C   UNL     1       4.637  29.154  55.220  1.00  0.00     0.073 A 
HETATM   12  C   UNL     1       4.398  29.399  56.574  1.00  0.00     0.165 A 
HETATM   13  F   UNL     1       5.038  28.659  57.494  1.00  0.00    -0.202 F 
HETATM   14  C   UNL     1       3.519  30.410  56.968  1.00  0.00     0.107 A 
HETATM   15  C   UNL     1       2.922  31.209  55.988  1.00  0.00     0.040 A 
HETATM   16  C   UNL     1       3.159  30.972  54.632  1.00  0.00     0.004 A 
HETATM   17  C   UNL     1       4.006  29.935  54.245  1.00  0.00     0.020 A 
BRANCH  14  18
HETATM   18  O   UNL     1       3.188  30.735  58.253  1.00  0.00    -0.353 OA
HETATM   19  C   UNL     1       3.991  31.730  58.880  1.00  0.00     0.210 C 
ENDBRANCH  14  18
ENDBRANCH   8  11
ENDBRANCH   2   7
BRANCH   1  20
HETATM   20  C   UNL     1       6.533  24.717  56.570  1.00  0.00     0.040 C 
HETATM   21  C   UNL     1       7.728  25.545  57.015  1.00  0.00     0.010 C 
ENDBRANCH   1  20
BRANCH   6  22
HETATM   22  C   UNL     1       7.511  22.411  54.257  1.00  0.00    -0.002 A 
HETATM   23  C   UNL     1       7.933  21.727  53.105  1.00  0.00     0.033 A 
HETATM   24  C   UNL     1       8.557  20.496  53.225  1.00  0.00     0.117 A 
HETATM   25  N   UNL     1       8.796  19.896  54.407  1.00  0.00    -0.273 NA
HETATM   26  C   UNL     1       8.391  20.557  55.507  1.00  0.00     0.117 A 
HETATM   27  C   UNL     1       7.752  21.791  55.484  1.00  0.00     0.033 A 
ENDBRANCH   6  22
TORSDOF 5
ENDMDL
MODEL 3
REMARK VINA RESULT:      -8.6      5.987      9.132
REMARK  5 active torsions:
REMARK  status: ('A' for Active; 'I' for Inactive)
REMARK    1  A    between atoms: C_2  and  C_3 
REMARK    2  A    between atoms: C_4  and  N_5 
REMARK       I    between atoms: N_5  and  C_6 
REMARK    3  A    between atoms: C_6  and  C_7 
REMARK    4  A    between atoms: C_10  and  O_11 
REMARK    5  A    between atoms: C_20  and  C_21 
ROOT
HETATM    1  C   UNL     1       8.148  31.815  60.891  1.00  0.00     0.018 A 
HETATM    2  C   UNL     1       6.935  32.383  61.234  1.00  0.00     0.133 A 
HETATM    3  N   UNL     1       6.237  32.533  60.075  1.00  0.00    -0.261 N 
HETATM    4  H   UNL     1       5.318  32.952  59.959  1.00  0.00     0.191 HD
HETATM    5  N   UNL     1       6.851  32.008  59.016  1.00  0.00    -0.172 NA
HETATM    6  C   UNL     1       8.031  31.544  59.473  1.00  0.00     0.097 A 
ENDROOT
BRANCH   2   7
HETATM    7  N   UNL     1       6.523  32.710  62.517  1.00  0.00    -0.307 N 
HETATM    8  C   UNL     1       6.051  34.023  62.842  1.00  0.00     0.260 C 
HETATM    9  O   UNL     1       6.128  34.915  62.011  1.00  0.00    -0.267 OA
HETATM   10  H   UNL     1       6.507  31.978  63.219  1.00  0.00     0.170 HD
BRANCH   8  11
HETATM   11  C   UNL     1       5.497  34.240  64.193  1.00  0.00     0.073 A 
HETATM   12  C   UNL     1       6.317  34.165  65.320  1.00  0.00     0.165 A 
HETATM   13  F   UNL     1       7.633  33.956  65.156  1.00  0.00    -0.202 F 
HETATM   14  C   UNL     1       5.780  34.318  66.600  1.00  0.00     0.107 A 
HETATM   15  C   UNL     1       4.418  34.603  66.735  1.00  0.00     0.040 A 
HETATM   16  C   UNL     1       3.592  34.684  65.611  1.00  0.00     0.004 A 
HETATM   17  C   UNL     1       4.126  34.488  64.339  1.00  0.00     0.020 A 
BRANCH  14  18
HETATM   18  O   UNL     1       6.471  34.248  67.778  1.00  0.00    -0.353 OA
HETATM   19  C   UNL     1       5.784  34.698  68.941  1.00  0.00     0.210 C 
ENDBRANCH  14  18
ENDBRANCH   8  11
ENDBRANCH   2   7
BRANCH   1  20
HETATM   20  C   UNL     1       9.283  31.572  61.832  1.00  0.00     0.040 C 
HETATM   21  C   UNL     1       9.448  30.105  62.196  1.00  0.00     0.010 C 
ENDBRANCH   1  20
BRANCH   6  22
HETATM   22  C   UNL     1       8.934  30.868  58.515  1.00  0.00    -0.002 A 
HETATM   23  C   UNL     1       8.501  29.695  57.876  1.00  0.00     0.033 A 
HETATM   24  C   UNL     1       9.345  29.039  56.995  1.00  0.00     0.117 A 
HETATM   25  N   UNL     1      10.587  29.465  56.699  1.00  0.00    -0.273 NA
HETATM   26  C   UNL     1      10.997  30.591  57.314  1.00  0.00     0.117 A 
HETATM   27  C   UNL     1      10.223  31.311  58.217  1.00  0.00     0.033 A 
ENDBRANCH   6  22
TORSDOF 5
ENDMDL
MODEL 4
REMARK VINA RESULT:      -8.6      1.577      2.186
REMARK  5 active torsions:
REMARK  status: ('A' for Active; 'I' for Inactive)
REMARK    1  A    between atoms: C_2  and  C_3 
REMARK    2  A    between atoms: C_4  and  N_5 
REMARK       I    between atoms: N_5  and  C_6 
REMARK    3  A    between atoms: C_6  and  C_7 
REMARK    4  A    between atoms: C_10  and  O_11 
REMARK    5  A    between atoms: C_20  and  C_21 
ROOT
HETATM    1  C   UNL     1       7.885  24.712  55.757  1.00  0.00     0.018 A 
HETATM    2  C   UNL     1       6.993  25.764  55.649  1.00  0.00     0.133 A 
HETATM    3  N   UNL     1       6.135  25.440  54.643  1.00  0.00    -0.261 N 
HETATM    4  H   UNL     1       5.375  26.007  54.275  1.00  0.00     0.191 HD
HETATM    5  N   UNL     1       6.327  24.215  54.156  1.00  0.00    -0.172 NA
HETATM    6  C   UNL     1       7.390  23.723  54.821  1.00  0.00     0.097 A 
ENDROOT
BRANCH   2   7
HETATM    7  N   UNL     1       6.981  26.905  56.436  1.00  0.00    -0.307 N 
HETATM    8  C   UNL     1       7.303  28.192  55.896  1.00  0.00     0.260 C 
HETATM    9  O   UNL     1       7.721  28.280  54.752  1.00  0.00    -0.267 OA
HETATM   10  H   UNL     1       6.680  26.821  57.401  1.00  0.00     0.170 HD
BRANCH   8  11
HETATM   11  C   UNL     1       7.123  29.369  56.769  1.00  0.00     0.073 A 
HETATM   12  C   UNL     1       8.117  29.744  57.674  1.00  0.00     0.165 A 
HETATM   13  F   UNL     1       9.272  29.058  57.696  1.00  0.00    -0.202 F 
HETATM   14  C   UNL     1       7.923  30.826  58.536  1.00  0.00     0.107 A 
HETATM   15  C   UNL     1       6.738  31.563  58.442  1.00  0.00     0.040 A 
HETATM   16  C   UNL     1       5.740  31.196  57.536  1.00  0.00     0.004 A 
HETATM   17  C   UNL     1       5.924  30.090  56.708  1.00  0.00     0.020 A 
BRANCH  14  18
HETATM   18  O   UNL     1       8.807  31.278  59.475  1.00  0.00    -0.353 OA
HETATM   19  C   UNL     1       8.670  30.736  60.784  1.00  0.00     0.210 C 
ENDBRANCH  14  18
ENDBRANCH   8  11
ENDBRANCH   2   7
BRANCH   1  20
HETATM   20  C   UNL     1       9.076  24.681  56.659  1.00  0.00     0.040 C 
HETATM   21  C   UNL     1       8.738  24.232  58.071  1.00  0.00     0.010 C 
ENDBRANCH   1  20
BRANCH   6  22
HETATM   22  C   UNL     1       7.830  22.343  54.513  1.00  0.00    -0.002 A 
HETATM   23  C   UNL     1       7.977  21.955  53.171  1.00  0.00     0.033 A 
HETATM   24  C   UNL     1       8.364  20.660  52.867  1.00  0.00     0.117 A 
HETATM   25  N   UNL     1       8.620  19.723  53.800  1.00  0.00    -0.273 NA
HETATM   26  C   UNL     1       8.477  20.101  55.084  1.00  0.00     0.117 A 
HETATM   27  C   UNL     1       8.087  21.374  55.483  1.00  0.00     0.033 A 
ENDBRANCH   6  22
TORSDOF 5
ENDMDL
MODEL 5
REMARK VINA RESULT:      -8.6      1.421      2.173
REMARK  5 active torsions:
REMARK  status: ('A' for Active; 'I' for Inactive)
REMARK    1  A    between atoms: C_2  and  C_3 
REMARK    2  A    between atoms: C_4  and  N_5 
REMARK       I    between atoms: N_5  and  C_6 
REMARK    3  A    between atoms: C_6  and  C_7 
REMARK    4  A    between atoms: C_10  and  O_11 
REMARK    5  A    between atoms: C_20  and  C_21 
ROOT
HETATM    1  C   UNL     1       6.969  24.923  56.371  1.00  0.00     0.018 A 
HETATM    2  C   UNL     1       7.512  25.645  57.418  1.00  0.00     0.133 A 
HETATM    3  N   UNL     1       8.527  24.891  57.921  1.00  0.00    -0.261 N 
HETATM    4  H   UNL     1       9.116  25.106  58.721  1.00  0.00     0.191 HD
HETATM    5  N   UNL     1       8.763  23.784  57.219  1.00  0.00    -0.172 NA
HETATM    6  C   UNL     1       7.832  23.766  56.245  1.00  0.00     0.097 A 
ENDROOT
BRANCH   2   7
HETATM    7  N   UNL     1       7.099  26.899  57.843  1.00  0.00    -0.307 N 
HETATM    8  C   UNL     1       7.893  28.068  57.611  1.00  0.00     0.260 C 
HETATM    9  O   UNL     1       9.016  27.953  57.144  1.00  0.00    -0.267 OA
HETATM   10  H   UNL     1       6.186  26.983  58.276  1.00  0.00     0.170 HD
BRANCH   8  11
HETATM   11  C   UNL     1       7.310  29.377  57.966  1.00  0.00     0.073 A 
HETATM   12  C   UNL     1       6.166  29.846  57.319  1.00  0.00     0.165 A 
HETATM   13  F   UNL     1       5.562  29.061  56.411  1.00  0.00    -0.202 F 
HETATM   14  C   UNL     1       5.645  31.106  57.619  1.00  0.00     0.107 A 
HETATM   15  C   UNL     1       6.256  31.871  58.618  1.00  0.00     0.040 A 
HETATM   16  C   UNL     1       7.399  31.407  59.273  1.00  0.00     0.004 A 
HETATM   17  C   UNL     1       7.937  30.165  58.939  1.00  0.00     0.020 A 
BRANCH  14  18
HETATM   18  O   UNL     1       4.548  31.684  57.045  1.00  0.00    -0.353 OA
HETATM   19  C   UNL     1       4.762  32.353  55.806  1.00  0.00     0.210 C 
ENDBRANCH  14  18
ENDBRANCH   8  11
ENDBRANCH   2   7
BRANCH   1  20
HETATM   20  C   UNL     1       5.755  25.313  55.593  1.00  0.00     0.040 C 
HETATM   21  C   UNL     1       6.074  26.201  54.400  1.00  0.00     0.010 C 
ENDBRANCH   1  20
BRANCH   6  22
HETATM   22  C   UNL     1       7.861  22.652  55.271  1.00  0.00    -0.002 A 
HETATM   23  C   UNL     1       7.909  22.944  53.897  1.00  0.00     0.033 A 
HETATM   24  C   UNL     1       7.912  21.911  52.974  1.00  0.00     0.117 A 
HETATM   25  N   UNL     1       7.875  20.610  53.315  1.00  0.00    -0.273 NA
HETATM   26  C   UNL     1       7.830  20.336  54.632  1.00  0.00     0.117 A 
HETATM   27  C   UNL     1       7.816  21.305  55.629  1.00  0.00     0.033 A 
ENDBRANCH   6  22
TORSDOF 5
ENDMDL
MODEL 6
REMARK VINA RESULT:      -8.3      3.596      4.289
REMARK  5 active torsions:
REMARK  status: ('A' for Active; 'I' for Inactive)
REMARK    1  A    between atoms: C_2  and  C_3 
REMARK    2  A    between atoms: C_4  and  N_5 
REMARK       I    between atoms: N_5  and  C_6 
REMARK    3  A    between atoms: C_6  and  C_7 
REMARK    4  A    between atoms: C_10  and  O_11 
REMARK    5  A    between atoms: C_20  and  C_21 
ROOT
HETATM    1  C   UNL     1       7.247  24.948  54.792  1.00  0.00     0.018 A 
HETATM    2  C   UNL     1       7.068  26.092  54.036  1.00  0.00     0.133 A 
HETATM    3  N   UNL     1       7.643  25.850  52.826  1.00  0.00    -0.261 N 
HETATM    4  H   UNL     1       7.724  26.493  52.043  1.00  0.00     0.191 HD
HETATM    5  N   UNL     1       8.088  24.602  52.691  1.00  0.00    -0.172 NA
HETATM    6  C   UNL     1       7.855  24.004  53.877  1.00  0.00     0.097 A 
ENDROOT
BRANCH   2   7
HETATM    7  N   UNL     1       6.410  27.243  54.444  1.00  0.00    -0.307 N 
HETATM    8  C   UNL     1       5.053  27.505  54.065  1.00  0.00     0.260 C 
HETATM    9  O   UNL     1       4.497  26.770  53.264  1.00  0.00    -0.267 OA
HETATM   10  H   UNL     1       6.893  27.877  55.071  1.00  0.00     0.170 HD
BRANCH   8  11
HETATM   11  C   UNL     1       4.387  28.679  54.664  1.00  0.00     0.073 A 
HETATM   12  C   UNL     1       3.863  29.689  53.857  1.00  0.00     0.165 A 
HETATM   13  F   UNL     1       3.914  29.550  52.522  1.00  0.00    -0.202 F 
HETATM   14  C   UNL     1       3.280  30.823  54.427  1.00  0.00     0.107 A 
HETATM   15  C   UNL     1       3.180  30.907  55.819  1.00  0.00     0.040 A 
HETATM   16  C   UNL     1       3.699  29.898  56.633  1.00  0.00     0.004 A 
HETATM   17  C   UNL     1       4.316  28.788  56.059  1.00  0.00     0.020 A 
BRANCH  14  18
HETATM   18  O   UNL     1       2.751  31.885  53.749  1.00  0.00    -0.353 OA
HETATM   19  C   UNL     1       2.088  32.871  54.535  1.00  0.00     0.210 C 
ENDBRANCH  14  18
ENDBRANCH   8  11
ENDBRANCH   2   7
BRANCH   1  20
HETATM   20  C   UNL     1       6.874  24.799  56.231  1.00  0.00     0.040 C 
HETATM   21  C   UNL     1       7.982  25.232  57.178  1.00  0.00     0.010 C 
ENDBRANCH   1  20
BRANCH   6  22
HETATM   22  C   UNL     1       8.222  22.577  54.023  1.00  0.00    -0.002 A 
HETATM   23  C   UNL     1       7.982  21.695  52.957  1.00  0.00     0.033 A 
HETATM   24  C   UNL     1       8.298  20.353  53.089  1.00  0.00     0.117 A 
HETATM   25  N   UNL     1       8.839  19.823  54.202  1.00  0.00    -0.273 NA
HETATM   26  C   UNL     1       9.068  20.674  55.220  1.00  0.00     0.117 A 
HETATM   27  C   UNL     1       8.777  22.032  55.182  1.00  0.00     0.033 A 
ENDBRANCH   6  22
TORSDOF 5
ENDMDL
MODEL 7
REMARK VINA RESULT:      -8.3      2.257      2.620
REMARK  5 active torsions:
REMARK  status: ('A' for Active; 'I' for Inactive)
REMARK    1  A    between atoms: C_2  and  C_3 
REMARK    2  A    between atoms: C_4  and  N_5 
REMARK       I    between atoms: N_5  and  C_6 
REMARK    3  A    between atoms: C_6  and  C_7 
REMARK    4  A    between atoms: C_10  and  O_11 
REMARK    5  A    between atoms: C_20  and  C_21 
ROOT
HETATM    1  C   UNL     1       6.651  24.611  54.311  1.00  0.00     0.018 A 
HETATM    2  C   UNL     1       6.551  25.638  55.231  1.00  0.00     0.133 A 
HETATM    3  N   UNL     1       7.008  25.142  56.414  1.00  0.00    -0.261 N 
HETATM    4  H   UNL     1       7.041  25.621  57.311  1.00  0.00     0.191 HD
HETATM    5  N   UNL     1       7.501  23.909  56.316  1.00  0.00    -0.172 NA
HETATM    6  C   UNL     1       7.312  23.543  55.033  1.00  0.00     0.097 A 
ENDROOT
BRANCH   2   7
HETATM    7  N   UNL     1       6.090  26.920  54.974  1.00  0.00    -0.307 N 
HETATM    8  C   UNL     1       5.158  27.572  55.846  1.00  0.00     0.260 C 
HETATM    9  O   UNL     1       4.656  26.948  56.768  1.00  0.00    -0.267 OA
HETATM   10  H   UNL     1       6.473  27.418  54.177  1.00  0.00     0.170 HD
BRANCH   8  11
HETATM   11  C   UNL     1       4.837  28.986  55.573  1.00  0.00     0.073 A 
HETATM   12  C   UNL     1       5.321  30.000  56.403  1.00  0.00     0.165 A 
HETATM   13  F   UNL     1       6.140  29.676  57.417  1.00  0.00    -0.202 F 
HETATM   14  C   UNL     1       4.973  31.332  56.174  1.00  0.00     0.107 A 
HETATM   15  C   UNL     1       4.175  31.644  55.069  1.00  0.00     0.040 A 
HETATM   16  C   UNL     1       3.690  30.637  54.232  1.00  0.00     0.004 A 
HETATM   17  C   UNL     1       4.007  29.304  54.491  1.00  0.00     0.020 A 
BRANCH  14  18
HETATM   18  O   UNL     1       5.364  32.408  56.921  1.00  0.00    -0.353 OA
HETATM   19  C   UNL     1       4.741  33.651  56.612  1.00  0.00     0.210 C 
ENDBRANCH  14  18
ENDBRANCH   8  11
ENDBRANCH   2   7
BRANCH   1  20
HETATM   20  C   UNL     1       6.158  24.665  52.902  1.00  0.00     0.040 C 
HETATM   21  C   UNL     1       7.205  25.179  51.926  1.00  0.00     0.010 C 
ENDBRANCH   1  20
BRANCH   6  22
HETATM   22  C   UNL     1       7.794  22.209  54.608  1.00  0.00    -0.002 A 
HETATM   23  C   UNL     1       8.149  21.266  55.587  1.00  0.00     0.033 A 
HETATM   24  C   UNL     1       8.625  20.023  55.204  1.00  0.00     0.117 A 
HETATM   25  N   UNL     1       8.770  19.646  53.919  1.00  0.00    -0.273 NA
HETATM   26  C   UNL     1       8.427  20.554  52.986  1.00  0.00     0.117 A 
HETATM   27  C   UNL     1       7.948  21.826  53.276  1.00  0.00     0.033 A 
ENDBRANCH   6  22
TORSDOF 5
ENDMDL
MODEL 8
REMARK VINA RESULT:      -8.2      2.314      3.082
REMARK  5 active torsions:
REMARK  status: ('A' for Active; 'I' for Inactive)
REMARK    1  A    between atoms: C_2  and  C_3 
REMARK    2  A    between atoms: C_4  and  N_5 
REMARK       I    between atoms: N_5  and  C_6 
REMARK    3  A    between atoms: C_6  and  C_7 
REMARK    4  A    between atoms: C_10  and  O_11 
REMARK    5  A    between atoms: C_20  and  C_21 
ROOT
HETATM    1  C   UNL     1       7.599  24.983  55.163  1.00  0.00     0.018 A 
HETATM    2  C   UNL     1       6.693  25.967  54.814  1.00  0.00     0.133 A 
HETATM    3  N   UNL     1       5.920  25.446  53.821  1.00  0.00    -0.261 N 
HETATM    4  H   UNL     1       5.177  25.914  53.309  1.00  0.00     0.191 HD
HETATM    5  N   UNL     1       6.177  24.164  53.568  1.00  0.00    -0.172 NA
HETATM    6  C   UNL     1       7.200  23.831  54.381  1.00  0.00     0.097 A 
ENDROOT
BRANCH   2   7
HETATM    7  N   UNL     1       6.595  27.225  55.389  1.00  0.00    -0.307 N 
HETATM    8  C   UNL     1       5.756  27.466  56.525  1.00  0.00     0.260 C 
HETATM    9  O   UNL     1       5.011  26.584  56.925  1.00  0.00    -0.267 OA
HETATM   10  H   UNL     1       7.179  27.968  55.023  1.00  0.00     0.170 HD
BRANCH   8  11
HETATM   11  C   UNL     1       5.825  28.797  57.160  1.00  0.00     0.073 A 
HETATM   12  C   UNL     1       4.728  29.660  57.129  1.00  0.00     0.165 A 
HETATM   13  F   UNL     1       3.583  29.238  56.569  1.00  0.00    -0.202 F 
HETATM   14  C   UNL     1       4.813  30.938  57.685  1.00  0.00     0.107 A 
HETATM   15  C   UNL     1       5.997  31.323  58.322  1.00  0.00     0.040 A 
HETATM   16  C   UNL     1       7.098  30.464  58.361  1.00  0.00     0.004 A 
HETATM   17  C   UNL     1       7.019  29.205  57.767  1.00  0.00     0.020 A 
BRANCH  14  18
HETATM   18  O   UNL     1       3.821  31.878  57.701  1.00  0.00    -0.353 OA
HETATM   19  C   UNL     1       3.609  32.594  56.488  1.00  0.00     0.210 C 
ENDBRANCH  14  18
ENDBRANCH   8  11
ENDBRANCH   2   7
BRANCH   1  20
HETATM   20  C   UNL     1       8.719  25.149  56.138  1.00  0.00     0.040 C 
HETATM   21  C   UNL     1       8.301  24.880  57.574  1.00  0.00     0.010 C 
ENDBRANCH   1  20
BRANCH   6  22
HETATM   22  C   UNL     1       7.693  22.436  54.347  1.00  0.00    -0.002 A 
HETATM   23  C   UNL     1       8.014  21.853  53.110  1.00  0.00     0.033 A 
HETATM   24  C   UNL     1       8.454  20.540  53.061  1.00  0.00     0.117 A 
HETATM   25  N   UNL     1       8.603  19.765  54.152  1.00  0.00    -0.273 NA
HETATM   26  C   UNL     1       8.295  20.330  55.334  1.00  0.00     0.117 A 
HETATM   27  C   UNL     1       7.840  21.635  55.480  1.00  0.00     0.033 A 
ENDBRANCH   6  22
TORSDOF 5
ENDMDL
MODEL 9
REMARK VINA RESULT:      -8.2      5.325      7.829
REMARK  5 active torsions:
REMARK  status: ('A' for Active; 'I' for Inactive)
REMARK    1  A    between atoms: C_2  and  C_3 
REMARK    2  A    between atoms: C_4  and  N_5 
REMARK       I    between atoms: N_5  and  C_6 
REMARK    3  A    between atoms: C_6  and  C_7 
REMARK    4  A    between atoms: C_10  and  O_11 
REMARK    5  A    between atoms: C_20  and  C_21 
ROOT
HETATM    1  C   UNL     1       5.661  25.583  53.613  1.00  0.00     0.018 A 
HETATM    2  C   UNL     1       4.794  26.633  53.372  1.00  0.00     0.133 A 
HETATM    3  N   UNL     1       4.589  27.247  54.569  1.00  0.00    -0.261 N 
HETATM    4  H   UNL     1       3.976  28.036  54.759  1.00  0.00     0.191 HD
HETATM    5  N   UNL     1       5.336  26.751  55.554  1.00  0.00    -0.172 NA
HETATM    6  C   UNL     1       6.023  25.728  55.009  1.00  0.00     0.097 A 
ENDROOT
BRANCH   2   7
HETATM    7  N   UNL     1       4.266  26.985  52.139  1.00  0.00    -0.307 N 
HETATM    8  C   UNL     1       4.891  27.973  51.310  1.00  0.00     0.260 C 
HETATM    9  O   UNL     1       5.836  28.614  51.742  1.00  0.00    -0.267 OA
HETATM   10  H   UNL     1       3.451  26.484  51.804  1.00  0.00     0.170 HD
BRANCH   8  11
HETATM   11  C   UNL     1       4.343  28.178  49.954  1.00  0.00     0.073 A 
HETATM   12  C   UNL     1       4.263  27.117  49.050  1.00  0.00     0.165 A 
HETATM   13  F   UNL     1       4.632  25.889  49.451  1.00  0.00    -0.202 F 
HETATM   14  C   UNL     1       3.794  27.325  47.751  1.00  0.00     0.107 A 
HETATM   15  C   UNL     1       3.353  28.600  47.386  1.00  0.00     0.040 A 
HETATM   16  C   UNL     1       3.426  29.665  48.286  1.00  0.00     0.004 A 
HETATM   17  C   UNL     1       3.935  29.460  49.568  1.00  0.00     0.020 A 
BRANCH  14  18
HETATM   18  O   UNL     1       3.686  26.378  46.772  1.00  0.00    -0.353 OA
HETATM   19  C   UNL     1       2.549  25.523  46.842  1.00  0.00     0.210 C 
ENDBRANCH  14  18
ENDBRANCH   8  11
ENDBRANCH   2   7
BRANCH   1  20
HETATM   20  C   UNL     1       6.080  24.562  52.606  1.00  0.00     0.040 C 
HETATM   21  C   UNL     1       7.449  24.846  52.008  1.00  0.00     0.010 C 
ENDBRANCH   1  20
BRANCH   6  22
HETATM   22  C   UNL     1       6.976  24.990  55.868  1.00  0.00    -0.002 A 
HETATM   23  C   UNL     1       7.730  25.697  56.819  1.00  0.00     0.033 A 
HETATM   24  C   UNL     1       8.642  25.022  57.613  1.00  0.00     0.117 A 
HETATM   25  N   UNL     1       8.859  23.696  57.535  1.00  0.00    -0.273 NA
HETATM   26  C   UNL     1       8.133  23.024  56.622  1.00  0.00     0.117 A 
HETATM   27  C   UNL     1       7.200  23.616  55.778  1.00  0.00     0.033 A 
ENDBRANCH   6  22
TORSDOF 5
ENDMDL
MODEL 10
REMARK VINA RESULT:      -8.2      9.734     13.197
REMARK  5 active torsions:
REMARK  status: ('A' for Active; 'I' for Inactive)
REMARK    1  A    between atoms: C_2  and  C_3 
REMARK    2  A    between atoms: C_4  and  N_5 
REMARK       I    between atoms: N_5  and  C_6 
REMARK    3  A    between atoms: C_6  and  C_7 
REMARK    4  A    between atoms: C_10  and  O_11 
REMARK    5  A    between atoms: C_20  and  C_21 
ROOT
HETATM    1  C   UNL     1       5.687  33.806  64.184  1.00  0.00     0.018 A 
HETATM    2  C   UNL     1       5.290  33.830  65.508  1.00  0.00     0.133 A 
HETATM    3  N   UNL     1       3.930  33.874  65.503  1.00  0.00    -0.261 N 
HETATM    4  H   UNL     1       3.312  33.936  66.308  1.00  0.00     0.191 HD
HETATM    5  N   UNL     1       3.401  33.771  64.284  1.00  0.00    -0.172 NA
HETATM    6  C   UNL     1       4.448  33.716  63.438  1.00  0.00     0.097 A 
ENDROOT
BRANCH   2   7
HETATM    7  N   UNL     1       6.130  33.794  66.611  1.00  0.00    -0.307 N 
HETATM    8  C   UNL     1       5.775  34.429  67.845  1.00  0.00     0.260 C 
HETATM    9  O   UNL     1       4.773  35.125  67.900  1.00  0.00    -0.267 OA
HETATM   10  H   UNL     1       6.987  33.255  66.546  1.00  0.00     0.170 HD
BRANCH   8  11
HETATM   11  C   UNL     1       6.661  34.216  69.007  1.00  0.00     0.073 A 
HETATM   12  C   UNL     1       6.327  33.289  69.996  1.00  0.00     0.165 A 
HETATM   13  F   UNL     1       5.220  32.544  69.846  1.00  0.00    -0.202 F 
HETATM   14  C   UNL     1       7.140  33.126  71.120  1.00  0.00     0.107 A 
HETATM   15  C   UNL     1       8.322  33.867  71.215  1.00  0.00     0.040 A 
HETATM   16  C   UNL     1       8.664  34.793  70.227  1.00  0.00     0.004 A 
HETATM   17  C   UNL     1       7.827  34.980  69.128  1.00  0.00     0.020 A 
BRANCH  14  18
HETATM   18  O   UNL     1       6.914  32.271  72.162  1.00  0.00    -0.353 OA
HETATM   19  C   UNL     1       7.720  31.097  72.202  1.00  0.00     0.210 C 
ENDBRANCH  14  18
ENDBRANCH   8  11
ENDBRANCH   2   7
BRANCH   1  20
HETATM   20  C   UNL     1       7.102  33.869  63.707  1.00  0.00     0.040 C 
HETATM   21  C   UNL     1       7.722  32.495  63.508  1.00  0.00     0.010 C 
ENDBRANCH   1  20
BRANCH   6  22
HETATM   22  C   UNL     1       4.171  33.567  61.992  1.00  0.00    -0.002 A 
HETATM   23  C   UNL     1       4.108  32.279  61.435  1.00  0.00     0.033 A 
HETATM   24  C   UNL     1       3.872  32.126  60.079  1.00  0.00     0.117 A 
HETATM   25  N   UNL     1       3.691  33.159  59.235  1.00  0.00    -0.273 NA
HETATM   26  C   UNL     1       3.752  34.391  59.774  1.00  0.00     0.117 A 
HETATM   27  C   UNL     1       3.990  34.642  61.120  1.00  0.00     0.033 A 
ENDBRANCH   6  22
TORSDOF 5
ENDMDL
