MODEL 1
REMARK VINA RESULT:     -10.9      0.000      0.000
REMARK  3 active torsions:
REMARK  status: ('A' for Active; 'I' for Inactive)
REMARK    1  A    between atoms: C_6  and  N_7 
REMARK       I    between atoms: N_7  and  C_8 
REMARK    2  A    between atoms: C_8  and  C_9 
REMARK    3  A    between atoms: C_9  and  N_10 
ROOT
HETATM    1  N   UNL     1       6.744  28.500  56.473  1.00  0.00    -0.224 N 
HETATM    2  N   UNL     1       8.093  28.252  56.809  1.00  0.00    -0.180 NA
HETATM    3  C   UNL     1       8.646  28.915  57.784  1.00  0.00     0.153 A 
HETATM    4  C   UNL     1       7.908  29.904  58.515  1.00  0.00     0.028 A 
HETATM    5  C   UNL     1       6.612  30.165  58.149  1.00  0.00     0.116 A 
HETATM    6  N   UNL     1       6.122  31.142  58.968  1.00  0.00    -0.350 N 
HETATM    7  H   UNL     1       5.188  31.527  58.913  1.00  0.00     0.166 HD
HETATM    8  C   UNL     1       7.094  31.514  59.875  1.00  0.00     0.044 A 
HETATM    9  C   UNL     1       8.236  30.747  59.607  1.00  0.00     0.005 A 
HETATM   10  C   UNL     1       7.051  32.465  60.901  1.00  0.00     0.030 A 
HETATM   11  C   UNL     1       8.204  32.640  61.672  1.00  0.00     0.002 A 
HETATM   12  C   UNL     1       9.354  31.892  61.427  1.00  0.00     0.001 A 
HETATM   13  C   UNL     1       9.384  30.943  60.398  1.00  0.00     0.014 A 
HETATM   14  C   UNL     1       5.949  29.499  57.068  1.00  0.00     0.291 A 
HETATM   15  O   UNL     1       4.808  29.779  56.717  1.00  0.00    -0.264 OA
ENDROOT
BRANCH   1  16
HETATM   16  C   UNL     1       6.236  27.828  55.283  1.00  0.00     0.258 C 
BRANCH  16  17
HETATM   17  C   UNL     1       7.017  26.588  54.802  1.00  0.00     0.244 C 
HETATM   18  N   UNL     1       6.715  25.333  55.365  1.00  0.00    -0.321 N 
HETATM   19  C   UNL     1       6.010  25.255  56.645  1.00  0.00     0.159 C 
HETATM   20  O   UNL     1       7.946  26.792  54.014  1.00  0.00    -0.271 OA
BRANCH  18  21
HETATM   21  C   UNL     1       7.136  24.077  54.775  1.00  0.00     0.037 A 
HETATM   22  C   UNL     1       7.407  22.924  55.525  1.00  0.00     0.037 A 
HETATM   23  C   UNL     1       7.803  21.703  54.933  1.00  0.00    -0.054 A 
HETATM   24  C   UNL     1       7.922  21.617  53.537  1.00  0.00    -0.056 A 
HETATM   25  C   UNL     1       8.026  20.508  55.820  1.00  0.00     0.049 C 
HETATM   26  C   UNL     1       8.327  20.344  52.850  1.00  0.00     0.049 C 
HETATM   27  C   UNL     1       7.692  22.766  52.776  1.00  0.00     0.009 A 
HETATM   28  C   UNL     1       7.307  23.968  53.384  1.00  0.00     0.030 A 
ENDBRANCH  18  21
ENDBRANCH  16  17
ENDBRANCH   1  16
TORSDOF 3
ENDMDL
MODEL 2
REMARK VINA RESULT:     -10.7      1.185      9.152
REMARK  3 active torsions:
REMARK  status: ('A' for Active; 'I' for Inactive)
REMARK    1  A    between atoms: C_6  and  N_7 
REMARK       I    between atoms: N_7  and  C_8 
REMARK    2  A    between atoms: C_8  and  C_9 
REMARK    3  A    between atoms: C_9  and  N_10 
ROOT
HETATM    1  N   UNL     1       7.127  26.856  55.296  1.00  0.00    -0.224 N 
HETATM    2  N   UNL     1       7.208  26.155  56.520  1.00  0.00    -0.180 NA
HETATM    3  C   UNL     1       7.400  24.866  56.511  1.00  0.00     0.153 A 
HETATM    4  C   UNL     1       7.516  24.146  55.277  1.00  0.00     0.028 A 
HETATM    5  C   UNL     1       7.391  24.833  54.097  1.00  0.00     0.116 A 
HETATM    6  N   UNL     1       7.523  23.947  53.067  1.00  0.00    -0.350 N 
HETATM    7  H   UNL     1       7.468  24.190  52.086  1.00  0.00     0.166 HD
HETATM    8  C   UNL     1       7.742  22.681  53.572  1.00  0.00     0.044 A 
HETATM    9  C   UNL     1       7.739  22.780  54.970  1.00  0.00     0.005 A 
HETATM   10  C   UNL     1       7.936  21.467  52.905  1.00  0.00     0.030 A 
HETATM   11  C   UNL     1       8.131  20.323  53.683  1.00  0.00     0.002 A 
HETATM   12  C   UNL     1       8.132  20.391  55.075  1.00  0.00     0.001 A 
HETATM   13  C   UNL     1       7.937  21.612  55.731  1.00  0.00     0.014 A 
HETATM   14  C   UNL     1       7.149  26.244  54.028  1.00  0.00     0.291 A 
HETATM   15  O   UNL     1       6.987  26.837  52.967  1.00  0.00    -0.264 OA
ENDROOT
BRANCH   1  16
HETATM   16  C   UNL     1       6.769  28.266  55.378  1.00  0.00     0.258 C 
BRANCH  16  17
HETATM   17  C   UNL     1       6.625  28.864  56.793  1.00  0.00     0.244 C 
HETATM   18  N   UNL     1       7.700  29.591  57.338  1.00  0.00    -0.321 N 
HETATM   19  C   UNL     1       9.047  29.432  56.787  1.00  0.00     0.159 C 
HETATM   20  O   UNL     1       5.595  28.573  57.413  1.00  0.00    -0.271 OA
BRANCH  18  21
HETATM   21  C   UNL     1       7.567  30.459  58.492  1.00  0.00     0.037 A 
HETATM   22  C   UNL     1       8.351  30.333  59.648  1.00  0.00     0.037 A 
HETATM   23  C   UNL     1       8.218  31.197  60.758  1.00  0.00    -0.054 A 
HETATM   24  C   UNL     1       7.278  32.238  60.718  1.00  0.00    -0.056 A 
HETATM   25  C   UNL     1       9.139  31.010  61.934  1.00  0.00     0.049 C 
HETATM   26  C   UNL     1       7.099  33.194  61.863  1.00  0.00     0.049 C 
HETATM   27  C   UNL     1       6.462  32.355  59.590  1.00  0.00     0.009 A 
HETATM   28  C   UNL     1       6.606  31.484  58.502  1.00  0.00     0.030 A 
ENDBRANCH  18  21
ENDBRANCH  16  17
ENDBRANCH   1  16
TORSDOF 3
ENDMDL
MODEL 3
REMARK VINA RESULT:     -10.4      1.929      3.518
REMARK  3 active torsions:
REMARK  status: ('A' for Active; 'I' for Inactive)
REMARK    1  A    between atoms: C_6  and  N_7 
REMARK       I    between atoms: N_7  and  C_8 
REMARK    2  A    between atoms: C_8  and  C_9 
REMARK    3  A    between atoms: C_9  and  N_10 
ROOT
HETATM    1  N   UNL     1       6.814  30.834  58.489  1.00  0.00    -0.224 N 
HETATM    2  N   UNL     1       7.905  30.371  59.258  1.00  0.00    -0.180 NA
HETATM    3  C   UNL     1       8.113  30.870  60.444  1.00  0.00     0.153 A 
HETATM    4  C   UNL     1       7.259  31.891  60.975  1.00  0.00     0.028 A 
HETATM    5  C   UNL     1       6.230  32.361  60.199  1.00  0.00     0.116 A 
HETATM    6  N   UNL     1       5.569  33.328  60.901  1.00  0.00    -0.350 N 
HETATM    7  H   UNL     1       4.769  33.845  60.559  1.00  0.00     0.166 HD
HETATM    8  C   UNL     1       6.160  33.485  62.139  1.00  0.00     0.044 A 
HETATM    9  C   UNL     1       7.234  32.589  62.209  1.00  0.00     0.005 A 
HETATM   10  C   UNL     1       5.830  34.348  63.191  1.00  0.00     0.030 A 
HETATM   11  C   UNL     1       6.619  34.295  64.344  1.00  0.00     0.002 A 
HETATM   12  C   UNL     1       7.694  33.415  64.441  1.00  0.00     0.001 A 
HETATM   13  C   UNL     1       8.013  32.556  63.382  1.00  0.00     0.014 A 
HETATM   14  C   UNL     1       5.959  31.885  58.876  1.00  0.00     0.291 A 
HETATM   15  O   UNL     1       5.069  32.350  58.173  1.00  0.00    -0.264 OA
ENDROOT
BRANCH   1  16
HETATM   16  C   UNL     1       6.727  30.338  57.121  1.00  0.00     0.258 C 
BRANCH  16  17
HETATM   17  C   UNL     1       6.596  28.811  56.945  1.00  0.00     0.244 C 
HETATM   18  N   UNL     1       7.577  28.126  56.203  1.00  0.00    -0.321 N 
HETATM   19  C   UNL     1       8.442  28.858  55.278  1.00  0.00     0.159 C 
HETATM   20  O   UNL     1       5.565  28.291  57.385  1.00  0.00    -0.271 OA
BRANCH  18  21
HETATM   21  C   UNL     1       7.739  26.685  56.245  1.00  0.00     0.037 A 
HETATM   22  C   UNL     1       7.294  25.827  55.229  1.00  0.00     0.037 A 
HETATM   23  C   UNL     1       7.473  24.426  55.279  1.00  0.00    -0.054 A 
HETATM   24  C   UNL     1       8.134  23.851  56.376  1.00  0.00    -0.056 A 
HETATM   25  C   UNL     1       7.002  23.595  54.116  1.00  0.00     0.049 C 
HETATM   26  C   UNL     1       8.364  22.370  56.479  1.00  0.00     0.049 C 
HETATM   27  C   UNL     1       8.551  24.686  57.415  1.00  0.00     0.009 A 
HETATM   28  C   UNL     1       8.357  26.072  57.349  1.00  0.00     0.030 A 
ENDBRANCH  18  21
ENDBRANCH  16  17
ENDBRANCH   1  16
TORSDOF 3
ENDMDL
MODEL 4
REMARK VINA RESULT:     -10.4      1.644      8.721
REMARK  3 active torsions:
REMARK  status: ('A' for Active; 'I' for Inactive)
REMARK    1  A    between atoms: C_6  and  N_7 
REMARK       I    between atoms: N_7  and  C_8 
REMARK    2  A    between atoms: C_8  and  C_9 
REMARK    3  A    between atoms: C_9  and  N_10 
ROOT
HETATM    1  N   UNL     1       5.796  25.993  54.502  1.00  0.00    -0.224 N 
HETATM    2  N   UNL     1       6.026  25.668  53.147  1.00  0.00    -0.180 NA
HETATM    3  C   UNL     1       6.596  24.536  52.845  1.00  0.00     0.153 A 
HETATM    4  C   UNL     1       7.006  23.621  53.869  1.00  0.00     0.028 A 
HETATM    5  C   UNL     1       6.816  23.969  55.182  1.00  0.00     0.116 A 
HETATM    6  N   UNL     1       7.290  22.959  55.969  1.00  0.00    -0.350 N 
HETATM    7  H   UNL     1       7.278  22.961  56.981  1.00  0.00     0.166 HD
HETATM    8  C   UNL     1       7.784  21.946  55.172  1.00  0.00     0.044 A 
HETATM    9  C   UNL     1       7.618  22.342  53.838  1.00  0.00     0.005 A 
HETATM   10  C   UNL     1       8.363  20.723  55.526  1.00  0.00     0.030 A 
HETATM   11  C   UNL     1       8.786  19.881  54.493  1.00  0.00     0.002 A 
HETATM   12  C   UNL     1       8.635  20.249  53.158  1.00  0.00     0.001 A 
HETATM   13  C   UNL     1       8.054  21.476  52.815  1.00  0.00     0.014 A 
HETATM   14  C   UNL     1       6.225  25.209  55.591  1.00  0.00     0.291 A 
HETATM   15  O   UNL     1       6.109  25.531  56.768  1.00  0.00    -0.264 OA
ENDROOT
BRANCH   1  16
HETATM   16  C   UNL     1       5.287  27.332  54.771  1.00  0.00     0.258 C 
BRANCH  16  17
HETATM   17  C   UNL     1       6.309  28.374  55.273  1.00  0.00     0.244 C 
HETATM   18  N   UNL     1       6.116  28.962  56.537  1.00  0.00    -0.321 N 
HETATM   19  C   UNL     1       4.796  28.927  57.168  1.00  0.00     0.159 C 
HETATM   20  O   UNL     1       7.192  28.709  54.475  1.00  0.00    -0.271 OA
BRANCH  18  21
HETATM   21  C   UNL     1       7.156  29.688  57.241  1.00  0.00     0.037 A 
HETATM   22  C   UNL     1       8.525  29.483  57.022  1.00  0.00     0.037 A 
HETATM   23  C   UNL     1       9.525  30.210  57.707  1.00  0.00    -0.054 A 
HETATM   24  C   UNL     1       9.153  31.189  58.640  1.00  0.00    -0.056 A 
HETATM   25  C   UNL     1      10.968  29.951  57.366  1.00  0.00     0.049 C 
HETATM   26  C   UNL     1      10.171  32.001  59.391  1.00  0.00     0.049 C 
HETATM   27  C   UNL     1       7.794  31.381  58.900  1.00  0.00     0.009 A 
HETATM   28  C   UNL     1       6.818  30.645  58.214  1.00  0.00     0.030 A 
ENDBRANCH  18  21
ENDBRANCH  16  17
ENDBRANCH   1  16
TORSDOF 3
ENDMDL
MODEL 5
REMARK VINA RESULT:     -10.0      1.770      3.297
REMARK  3 active torsions:
REMARK  status: ('A' for Active; 'I' for Inactive)
REMARK    1  A    between atoms: C_6  and  N_7 
REMARK       I    between atoms: N_7  and  C_8 
REMARK    2  A    between atoms: C_8  and  C_9 
REMARK    3  A    between atoms: C_9  and  N_10 
ROOT
HETATM    1  N   UNL     1       6.638  30.708  57.511  1.00  0.00    -0.224 N 
HETATM    2  N   UNL     1       5.580  31.602  57.787  1.00  0.00    -0.180 NA
HETATM    3  C   UNL     1       5.532  32.205  58.941  1.00  0.00     0.153 A 
HETATM    4  C   UNL     1       6.530  31.963  59.941  1.00  0.00     0.028 A 
HETATM    5  C   UNL     1       7.527  31.059  59.676  1.00  0.00     0.116 A 
HETATM    6  N   UNL     1       8.343  30.985  60.768  1.00  0.00    -0.350 N 
HETATM    7  H   UNL     1       9.158  30.388  60.841  1.00  0.00     0.166 HD
HETATM    8  C   UNL     1       7.887  31.847  61.745  1.00  0.00     0.044 A 
HETATM    9  C   UNL     1       6.737  32.475  61.247  1.00  0.00     0.005 A 
HETATM   10  C   UNL     1       8.396  32.111  63.021  1.00  0.00     0.030 A 
HETATM   11  C   UNL     1       7.714  33.041  63.812  1.00  0.00     0.002 A 
HETATM   12  C   UNL     1       6.568  33.681  63.344  1.00  0.00     0.001 A 
HETATM   13  C   UNL     1       6.069  33.408  62.065  1.00  0.00     0.014 A 
HETATM   14  C   UNL     1       7.627  30.336  58.443  1.00  0.00     0.291 A 
HETATM   15  O   UNL     1       8.492  29.492  58.238  1.00  0.00    -0.264 OA
ENDROOT
BRANCH   1  16
HETATM   16  C   UNL     1       6.550  29.964  56.261  1.00  0.00     0.258 C 
BRANCH  16  17
HETATM   17  C   UNL     1       6.480  28.426  56.373  1.00  0.00     0.244 C 
HETATM   18  N   UNL     1       7.319  27.646  55.556  1.00  0.00    -0.321 N 
HETATM   19  C   UNL     1       7.919  28.227  54.354  1.00  0.00     0.159 C 
HETATM   20  O   UNL     1       5.601  27.966  57.111  1.00  0.00    -0.271 OA
BRANCH  18  21
HETATM   21  C   UNL     1       7.577  26.239  55.798  1.00  0.00     0.037 A 
HETATM   22  C   UNL     1       7.347  25.237  54.845  1.00  0.00     0.037 A 
HETATM   23  C   UNL     1       7.617  23.872  55.093  1.00  0.00    -0.054 A 
HETATM   24  C   UNL     1       8.150  23.485  56.332  1.00  0.00    -0.056 A 
HETATM   25  C   UNL     1       7.382  22.877  53.989  1.00  0.00     0.049 C 
HETATM   26  C   UNL     1       8.468  22.051  56.649  1.00  0.00     0.049 C 
HETATM   27  C   UNL     1       8.350  24.465  57.308  1.00  0.00     0.009 A 
HETATM   28  C   UNL     1       8.069  25.812  57.044  1.00  0.00     0.030 A 
ENDBRANCH  18  21
ENDBRANCH  16  17
ENDBRANCH   1  16
TORSDOF 3
ENDMDL
MODEL 6
REMARK VINA RESULT:     -10.0      5.324      9.038
REMARK  3 active torsions:
REMARK  status: ('A' for Active; 'I' for Inactive)
REMARK    1  A    between atoms: C_6  and  N_7 
REMARK       I    between atoms: N_7  and  C_8 
REMARK    2  A    between atoms: C_8  and  C_9 
REMARK    3  A    between atoms: C_9  and  N_10 
ROOT
HETATM    1  N   UNL     1       6.382  26.273  52.832  1.00  0.00    -0.224 N 
HETATM    2  N   UNL     1       7.055  25.597  51.790  1.00  0.00    -0.180 NA
HETATM    3  C   UNL     1       7.559  24.416  52.010  1.00  0.00     0.153 A 
HETATM    4  C   UNL     1       7.451  23.796  53.298  1.00  0.00     0.028 A 
HETATM    5  C   UNL     1       6.833  24.482  54.312  1.00  0.00     0.116 A 
HETATM    6  N   UNL     1       6.861  23.708  55.436  1.00  0.00    -0.350 N 
HETATM    7  H   UNL     1       6.476  23.977  56.333  1.00  0.00     0.166 HD
HETATM    8  C   UNL     1       7.491  22.512  55.157  1.00  0.00     0.044 A 
HETATM    9  C   UNL     1       7.876  22.544  53.810  1.00  0.00     0.005 A 
HETATM   10  C   UNL     1       7.749  21.415  55.987  1.00  0.00     0.030 A 
HETATM   11  C   UNL     1       8.421  20.323  55.429  1.00  0.00     0.002 A 
HETATM   12  C   UNL     1       8.818  20.328  54.093  1.00  0.00     0.001 A 
HETATM   13  C   UNL     1       8.552  21.431  53.272  1.00  0.00     0.014 A 
HETATM   14  C   UNL     1       6.283  25.796  54.154  1.00  0.00     0.291 A 
HETATM   15  O   UNL     1       5.780  26.420  55.082  1.00  0.00    -0.264 OA
ENDROOT
BRANCH   1  16
HETATM   16  C   UNL     1       5.972  27.644  52.558  1.00  0.00     0.258 C 
BRANCH  16  17
HETATM   17  C   UNL     1       4.680  27.830  51.735  1.00  0.00     0.244 C 
HETATM   18  N   UNL     1       4.785  28.102  50.358  1.00  0.00    -0.321 N 
HETATM   19  C   UNL     1       6.040  28.615  49.805  1.00  0.00     0.159 C 
HETATM   20  O   UNL     1       3.618  27.832  52.367  1.00  0.00    -0.271 OA
BRANCH  18  21
HETATM   21  C   UNL     1       3.672  27.972  49.436  1.00  0.00     0.037 A 
HETATM   22  C   UNL     1       2.774  29.012  49.158  1.00  0.00     0.037 A 
HETATM   23  C   UNL     1       1.703  28.872  48.246  1.00  0.00    -0.054 A 
HETATM   24  C   UNL     1       1.522  27.655  47.572  1.00  0.00    -0.056 A 
HETATM   25  C   UNL     1       0.822  30.062  47.979  1.00  0.00     0.049 C 
HETATM   26  C   UNL     1       0.409  27.451  46.583  1.00  0.00     0.049 C 
HETATM   27  C   UNL     1       2.385  26.595  47.865  1.00  0.00     0.009 A 
HETATM   28  C   UNL     1       3.436  26.753  48.777  1.00  0.00     0.030 A 
ENDBRANCH  18  21
ENDBRANCH  16  17
ENDBRANCH   1  16
TORSDOF 3
ENDMDL
MODEL 7
REMARK VINA RESULT:      -9.9      2.402      4.288
REMARK  3 active torsions:
REMARK  status: ('A' for Active; 'I' for Inactive)
REMARK    1  A    between atoms: C_6  and  N_7 
REMARK       I    between atoms: N_7  and  C_8 
REMARK    2  A    between atoms: C_8  and  C_9 
REMARK    3  A    between atoms: C_9  and  N_10 
ROOT
HETATM    1  N   UNL     1       8.269  31.303  59.556  1.00  0.00    -0.224 N 
HETATM    2  N   UNL     1       9.106  30.954  60.639  1.00  0.00    -0.180 NA
HETATM    3  C   UNL     1       8.860  31.437  61.824  1.00  0.00     0.153 A 
HETATM    4  C   UNL     1       7.759  32.329  62.042  1.00  0.00     0.028 A 
HETATM    5  C   UNL     1       6.981  32.693  60.973  1.00  0.00     0.116 A 
HETATM    6  N   UNL     1       6.013  33.549  61.416  1.00  0.00    -0.350 N 
HETATM    7  H   UNL     1       5.306  33.973  60.830  1.00  0.00     0.166 HD
HETATM    8  C   UNL     1       6.153  33.739  62.776  1.00  0.00     0.044 A 
HETATM    9  C   UNL     1       7.253  32.980  63.196  1.00  0.00     0.005 A 
HETATM   10  C   UNL     1       5.398  34.521  63.657  1.00  0.00     0.030 A 
HETATM   11  C   UNL     1       5.777  34.531  65.003  1.00  0.00     0.002 A 
HETATM   12  C   UNL     1       6.867  33.787  65.449  1.00  0.00     0.001 A 
HETATM   13  C   UNL     1       7.614  33.007  64.558  1.00  0.00     0.014 A 
HETATM   14  C   UNL     1       7.209  32.227  59.637  1.00  0.00     0.291 A 
HETATM   15  O   UNL     1       6.539  32.602  58.681  1.00  0.00    -0.264 OA
ENDROOT
BRANCH   1  16
HETATM   16  C   UNL     1       8.687  30.842  58.238  1.00  0.00     0.258 C 
BRANCH  16  17
HETATM   17  C   UNL     1       7.987  29.582  57.690  1.00  0.00     0.244 C 
HETATM   18  N   UNL     1       8.609  28.852  56.659  1.00  0.00    -0.321 N 
HETATM   19  C   UNL     1       9.648  29.479  55.841  1.00  0.00     0.159 C 
HETATM   20  O   UNL     1       6.854  29.346  58.125  1.00  0.00    -0.271 OA
BRANCH  18  21
HETATM   21  C   UNL     1       8.222  27.501  56.298  1.00  0.00     0.037 A 
HETATM   22  C   UNL     1       8.595  26.368  57.034  1.00  0.00     0.037 A 
HETATM   23  C   UNL     1       8.198  25.060  56.676  1.00  0.00    -0.054 A 
HETATM   24  C   UNL     1       7.384  24.868  55.549  1.00  0.00    -0.056 A 
HETATM   25  C   UNL     1       8.610  23.912  57.558  1.00  0.00     0.049 C 
HETATM   26  C   UNL     1       6.920  23.502  55.126  1.00  0.00     0.049 C 
HETATM   27  C   UNL     1       7.034  25.982  54.782  1.00  0.00     0.009 A 
HETATM   28  C   UNL     1       7.444  27.269  55.151  1.00  0.00     0.030 A 
ENDBRANCH  18  21
ENDBRANCH  16  17
ENDBRANCH   1  16
TORSDOF 3
ENDMDL
MODEL 8
REMARK VINA RESULT:      -9.7      6.819     10.901
REMARK  3 active torsions:
REMARK  status: ('A' for Active; 'I' for Inactive)
REMARK    1  A    between atoms: C_6  and  N_7 
REMARK       I    between atoms: N_7  and  C_8 
REMARK    2  A    between atoms: C_8  and  C_9 
REMARK    3  A    between atoms: C_9  and  N_10 
ROOT
HETATM    1  N   UNL     1       5.168  33.940  65.736  1.00  0.00    -0.224 N 
HETATM    2  N   UNL     1       6.575  33.890  65.624  1.00  0.00    -0.180 NA
HETATM    3  C   UNL     1       7.312  34.105  66.677  1.00  0.00     0.153 A 
HETATM    4  C   UNL     1       6.716  34.403  67.946  1.00  0.00     0.028 A 
HETATM    5  C   UNL     1       5.350  34.491  68.030  1.00  0.00     0.116 A 
HETATM    6  N   UNL     1       5.016  34.795  69.319  1.00  0.00    -0.350 N 
HETATM    7  H   UNL     1       4.070  34.923  69.656  1.00  0.00     0.166 HD
HETATM    8  C   UNL     1       6.163  34.899  70.080  1.00  0.00     0.044 A 
HETATM    9  C   UNL     1       7.253  34.658  69.233  1.00  0.00     0.005 A 
HETATM   10  C   UNL     1       6.317  35.188  71.440  1.00  0.00     0.030 A 
HETATM   11  C   UNL     1       7.618  35.235  71.950  1.00  0.00     0.002 A 
HETATM   12  C   UNL     1       8.721  35.002  71.131  1.00  0.00     0.001 A 
HETATM   13  C   UNL     1       8.554  34.712  69.772  1.00  0.00     0.014 A 
HETATM   14  C   UNL     1       4.477  34.299  66.910  1.00  0.00     0.291 A 
HETATM   15  O   UNL     1       3.261  34.433  66.987  1.00  0.00    -0.264 OA
ENDROOT
BRANCH   1  16
HETATM   16  C   UNL     1       4.413  33.833  64.494  1.00  0.00     0.258 C 
BRANCH  16  17
HETATM   17  C   UNL     1       4.976  32.878  63.421  1.00  0.00     0.244 C 
HETATM   18  N   UNL     1       5.679  33.421  62.329  1.00  0.00    -0.321 N 
HETATM   19  C   UNL     1       5.520  34.834  61.984  1.00  0.00     0.159 C 
HETATM   20  O   UNL     1       4.680  31.684  63.535  1.00  0.00    -0.271 OA
BRANCH  18  21
HETATM   21  C   UNL     1       6.519  32.627  61.452  1.00  0.00     0.037 A 
HETATM   22  C   UNL     1       7.669  31.954  61.886  1.00  0.00     0.037 A 
HETATM   23  C   UNL     1       8.469  31.172  61.021  1.00  0.00    -0.054 A 
HETATM   24  C   UNL     1       8.106  31.042  59.672  1.00  0.00    -0.056 A 
HETATM   25  C   UNL     1       9.658  30.449  61.593  1.00  0.00     0.049 C 
HETATM   26  C   UNL     1       8.910  30.216  58.708  1.00  0.00     0.049 C 
HETATM   27  C   UNL     1       6.984  31.736  59.213  1.00  0.00     0.009 A 
HETATM   28  C   UNL     1       6.209  32.511  60.086  1.00  0.00     0.030 A 
ENDBRANCH  18  21
ENDBRANCH  16  17
ENDBRANCH   1  16
TORSDOF 3
ENDMDL
MODEL 9
REMARK VINA RESULT:      -9.6      1.692      2.526
REMARK  3 active torsions:
REMARK  status: ('A' for Active; 'I' for Inactive)
REMARK    1  A    between atoms: C_6  and  N_7 
REMARK       I    between atoms: N_7  and  C_8 
REMARK    2  A    between atoms: C_8  and  C_9 
REMARK    3  A    between atoms: C_9  and  N_10 
ROOT
HETATM    1  N   UNL     1       6.288  28.713  55.819  1.00  0.00    -0.224 N 
HETATM    2  N   UNL     1       7.469  29.171  56.442  1.00  0.00    -0.180 NA
HETATM    3  C   UNL     1       7.392  30.066  57.386  1.00  0.00     0.153 A 
HETATM    4  C   UNL     1       6.126  30.603  57.792  1.00  0.00     0.028 A 
HETATM    5  C   UNL     1       4.992  30.180  57.148  1.00  0.00     0.116 A 
HETATM    6  N   UNL     1       3.921  30.830  57.690  1.00  0.00    -0.350 N 
HETATM    7  H   UNL     1       2.960  30.707  57.395  1.00  0.00     0.166 HD
HETATM    8  C   UNL     1       4.352  31.673  58.694  1.00  0.00     0.044 A 
HETATM    9  C   UNL     1       5.746  31.549  58.777  1.00  0.00     0.005 A 
HETATM   10  C   UNL     1       3.623  32.530  59.526  1.00  0.00     0.030 A 
HETATM   11  C   UNL     1       4.334  33.283  60.465  1.00  0.00     0.002 A 
HETATM   12  C   UNL     1       5.720  33.181  60.569  1.00  0.00     0.001 A 
HETATM   13  C   UNL     1       6.438  32.320  59.732  1.00  0.00     0.014 A 
HETATM   14  C   UNL     1       5.001  29.223  56.081  1.00  0.00     0.291 A 
HETATM   15  O   UNL     1       3.987  28.893  55.478  1.00  0.00    -0.264 OA
ENDROOT
BRANCH   1  16
HETATM   16  C   UNL     1       6.460  27.822  54.678  1.00  0.00     0.258 C 
BRANCH  16  17
HETATM   17  C   UNL     1       6.440  26.308  54.972  1.00  0.00     0.244 C 
HETATM   18  N   UNL     1       7.248  25.454  54.197  1.00  0.00    -0.321 N 
HETATM   19  C   UNL     1       7.753  25.901  52.898  1.00  0.00     0.159 C 
HETATM   20  O   UNL     1       5.623  25.919  55.814  1.00  0.00    -0.271 OA
BRANCH  18  21
HETATM   21  C   UNL     1       7.560  24.091  54.583  1.00  0.00     0.037 A 
HETATM   22  C   UNL     1       7.550  23.013  53.686  1.00  0.00     0.037 A 
HETATM   23  C   UNL     1       7.871  21.693  54.077  1.00  0.00    -0.054 A 
HETATM   24  C   UNL     1       8.228  21.431  55.408  1.00  0.00    -0.056 A 
HETATM   25  C   UNL     1       7.879  20.612  53.030  1.00  0.00     0.049 C 
HETATM   26  C   UNL     1       8.590  20.051  55.879  1.00  0.00     0.049 C 
HETATM   27  C   UNL     1       8.206  22.487  56.324  1.00  0.00     0.009 A 
HETATM   28  C   UNL     1       7.879  23.787  55.917  1.00  0.00     0.030 A 
ENDBRANCH  18  21
ENDBRANCH  16  17
ENDBRANCH   1  16
TORSDOF 3
ENDMDL
MODEL 10
REMARK VINA RESULT:      -9.5      2.058      9.483
REMARK  3 active torsions:
REMARK  status: ('A' for Active; 'I' for Inactive)
REMARK    1  A    between atoms: C_6  and  N_7 
REMARK       I    between atoms: N_7  and  C_8 
REMARK    2  A    between atoms: C_8  and  C_9 
REMARK    3  A    between atoms: C_9  and  N_10 
ROOT
HETATM    1  N   UNL     1       6.509  29.627  57.172  1.00  0.00    -0.224 N 
HETATM    2  N   UNL     1       7.404  29.123  58.142  1.00  0.00    -0.180 NA
HETATM    3  C   UNL     1       7.842  27.901  58.039  1.00  0.00     0.153 A 
HETATM    4  C   UNL     1       7.419  27.054  56.963  1.00  0.00     0.028 A 
HETATM    5  C   UNL     1       6.516  27.542  56.054  1.00  0.00     0.116 A 
HETATM    6  N   UNL     1       6.254  26.564  55.138  1.00  0.00    -0.350 N 
HETATM    7  H   UNL     1       5.616  26.658  54.358  1.00  0.00     0.166 HD
HETATM    8  C   UNL     1       6.992  25.437  55.443  1.00  0.00     0.044 A 
HETATM    9  C   UNL     1       7.735  25.721  56.596  1.00  0.00     0.005 A 
HETATM   10  C   UNL     1       7.053  24.199  54.794  1.00  0.00     0.030 A 
HETATM   11  C   UNL     1       7.895  23.223  55.337  1.00  0.00     0.002 A 
HETATM   12  C   UNL     1       8.645  23.477  56.484  1.00  0.00     0.001 A 
HETATM   13  C   UNL     1       8.575  24.720  57.123  1.00  0.00     0.014 A 
HETATM   14  C   UNL     1       5.967  28.864  56.120  1.00  0.00     0.291 A 
HETATM   15  O   UNL     1       5.120  29.271  55.332  1.00  0.00    -0.264 OA
ENDROOT
BRANCH   1  16
HETATM   16  C   UNL     1       5.950  30.948  57.429  1.00  0.00     0.258 C 
BRANCH  16  17
HETATM   17  C   UNL     1       6.528  31.724  58.632  1.00  0.00     0.244 C 
HETATM   18  N   UNL     1       5.659  32.124  59.664  1.00  0.00    -0.321 N 
HETATM   19  C   UNL     1       4.217  32.193  59.423  1.00  0.00     0.159 C 
HETATM   20  O   UNL     1       7.720  32.041  58.562  1.00  0.00    -0.271 OA
BRANCH  18  21
HETATM   21  C   UNL     1       6.122  32.556  60.969  1.00  0.00     0.037 A 
HETATM   22  C   UNL     1       5.720  33.755  61.574  1.00  0.00     0.037 A 
HETATM   23  C   UNL     1       6.171  34.153  62.852  1.00  0.00    -0.054 A 
HETATM   24  C   UNL     1       7.047  33.323  63.568  1.00  0.00    -0.056 A 
HETATM   25  C   UNL     1       5.644  35.436  63.437  1.00  0.00     0.049 C 
HETATM   26  C   UNL     1       7.551  33.688  64.936  1.00  0.00     0.049 C 
HETATM   27  C   UNL     1       7.488  32.142  62.965  1.00  0.00     0.009 A 
HETATM   28  C   UNL     1       7.034  31.769  61.694  1.00  0.00     0.030 A 
ENDBRANCH  18  21
ENDBRANCH  16  17
ENDBRANCH   1  16
TORSDOF 3
ENDMDL
