MODEL 1
REMARK VINA RESULT:     -10.7      0.000      0.000
REMARK  9 active torsions:
REMARK  status: ('A' for Active; 'I' for Inactive)
REMARK    1  A    between atoms: C_2  and  O_3 
REMARK    2  A    between atoms: O_3  and  C_4 
REMARK    3  A    between atoms: C_6  and  C_7 
REMARK       I    between atoms: C_7  and  N_8 
REMARK    4  A    between atoms: N_8  and  C_9 
REMARK    5  A    between atoms: C_9  and  N_10 
REMARK    6  A    between atoms: N_10  and  C_11 
REMARK    7  A    between atoms: C_14  and  N_15 
REMARK    8  A    between atoms: N_18  and  C_20 
REMARK    9  A    between atoms: C_20  and  C_21 
ROOT
HETATM    1  C   UNL     1       6.275  30.390  57.323  1.00  0.00     0.034 A 
HETATM    2  C   UNL     1       7.241  29.712  56.580  1.00  0.00     0.032 A 
HETATM    3  C   UNL     1       6.912  28.555  55.858  1.00  0.00     0.031 A 
HETATM    4  C   UNL     1       5.609  28.037  55.825  1.00  0.00     0.030 A 
HETATM    5  C   UNL     1       4.649  28.759  56.554  1.00  0.00     0.031 A 
HETATM    6  C   UNL     1       4.972  29.913  57.295  1.00  0.00     0.032 A 
ENDROOT
BRANCH   1   7
HETATM    7  N   UNL     1       6.732  31.443  58.152  1.00  0.00    -0.333 N 
HETATM    8  H   UNL     1       6.844  32.319  57.652  1.00  0.00     0.168 HD
BRANCH   7   9
HETATM    9  C   UNL     1       7.535  31.365  59.234  1.00  0.00     0.179 C 
HETATM   10  S   UNL     1       9.192  31.484  59.015  1.00  0.00    -0.040 SA
BRANCH   9  11
HETATM   11  N   UNL     1       7.073  31.264  60.508  1.00  0.00    -0.299 N 
HETATM   12  C   UNL     1       6.077  32.061  61.064  1.00  0.00     0.257 C 
HETATM   13  O   UNL     1       5.002  32.306  60.522  1.00  0.00    -0.267 OA
HETATM   14  H   UNL     1       7.855  31.059  61.108  1.00  0.00     0.171 HD
BRANCH  12  15
HETATM   15  C   UNL     1       6.313  32.572  62.462  1.00  0.00     0.035 A 
HETATM   16  C   UNL     1       5.292  32.848  63.383  1.00  0.00     0.053 A 
HETATM   17  C   UNL     1       5.590  33.310  64.671  1.00  0.00     0.070 A 
HETATM   18  C   UNL     1       6.914  33.460  65.069  1.00  0.00     0.037 A 
HETATM   19  C   UNL     1       7.942  33.184  64.169  1.00  0.00     0.004 A 
HETATM   20  C   UNL     1       7.644  32.749  62.873  1.00  0.00     0.017 A 
BRANCH  17  21
HETATM   21  O   UNL     1       4.506  33.516  65.478  1.00  0.00    -0.347 OA
BRANCH  21  22
HETATM   22  C   UNL     1       4.634  34.524  66.492  1.00  0.00     0.120 C 
HETATM   23  C   UNL     1       4.308  33.910  67.849  1.00  0.00     0.040 C 
HETATM   24  C   UNL     1       3.628  35.622  66.153  1.00  0.00     0.040 C 
ENDBRANCH  21  22
ENDBRANCH  17  21
ENDBRANCH  12  15
ENDBRANCH   9  11
ENDBRANCH   7   9
ENDBRANCH   1   7
BRANCH   4  25
HETATM   25  N   UNL     1       5.329  26.845  55.166  1.00  0.00    -0.378 N 
HETATM   26  C   UNL     1       5.584  25.554  55.839  1.00  0.00     0.150 C 
HETATM   27  C   UNL     1       6.902  24.934  55.328  1.00  0.00     0.255 C 
HETATM   28  N   UNL     1       6.884  24.818  53.802  1.00  0.00    -0.064 N 
HETATM   29  H   UNL     1       6.089  24.212  53.553  1.00  0.00     0.280 HD
HETATM   30  C   UNL     1       6.613  26.177  53.156  1.00  0.00     0.255 C 
HETATM   31  C   UNL     1       5.293  26.761  53.697  1.00  0.00     0.150 C 
BRANCH  28  32
HETATM   32  C   UNL     1       8.117  24.152  53.248  1.00  0.00     0.276 C 
BRANCH  32  33
HETATM   33  C   UNL     1       8.303  22.737  53.713  1.00  0.00     0.006 A 
HETATM   34  C   UNL     1       9.054  22.472  54.864  1.00  0.00     0.124 A 
HETATM   35  F   UNL     1       9.648  23.494  55.497  1.00  0.00    -0.206 F 
HETATM   36  C   UNL     1       9.229  21.180  55.344  1.00  0.00     0.043 A 
HETATM   37  C   UNL     1       8.636  20.117  54.668  1.00  0.00     0.003 A 
HETATM   38  C   UNL     1       7.876  20.357  53.522  1.00  0.00     0.001 A 
HETATM   39  C   UNL     1       7.706  21.660  53.046  1.00  0.00     0.012 A 
ENDBRANCH  32  33
ENDBRANCH  28  32
ENDBRANCH   4  25
TORSDOF 9
ENDMDL
MODEL 2
REMARK VINA RESULT:     -10.6      4.472     11.471
REMARK  9 active torsions:
REMARK  status: ('A' for Active; 'I' for Inactive)
REMARK    1  A    between atoms: C_2  and  O_3 
REMARK    2  A    between atoms: O_3  and  C_4 
REMARK    3  A    between atoms: C_6  and  C_7 
REMARK       I    between atoms: C_7  and  N_8 
REMARK    4  A    between atoms: N_8  and  C_9 
REMARK    5  A    between atoms: C_9  and  N_10 
REMARK    6  A    between atoms: N_10  and  C_11 
REMARK    7  A    between atoms: C_14  and  N_15 
REMARK    8  A    between atoms: N_18  and  C_20 
REMARK    9  A    between atoms: C_20  and  C_21 
ROOT
HETATM    1  C   UNL     1       5.971  28.300  52.932  1.00  0.00     0.034 A 
HETATM    2  C   UNL     1       4.851  28.739  53.639  1.00  0.00     0.032 A 
HETATM    3  C   UNL     1       4.909  28.940  55.026  1.00  0.00     0.031 A 
HETATM    4  C   UNL     1       6.084  28.737  55.764  1.00  0.00     0.030 A 
HETATM    5  C   UNL     1       7.206  28.329  55.023  1.00  0.00     0.031 A 
HETATM    6  C   UNL     1       7.154  28.110  53.632  1.00  0.00     0.032 A 
ENDROOT
BRANCH   1   7
HETATM    7  N   UNL     1       5.774  27.963  51.572  1.00  0.00    -0.333 N 
HETATM    8  H   UNL     1       5.315  28.699  51.044  1.00  0.00     0.168 HD
BRANCH   7   9
HETATM    9  C   UNL     1       5.562  26.742  51.037  1.00  0.00     0.179 C 
HETATM   10  S   UNL     1       4.741  26.635  49.580  1.00  0.00    -0.040 SA
BRANCH   9  11
HETATM   11  N   UNL     1       6.039  25.591  51.577  1.00  0.00    -0.299 N 
HETATM   12  C   UNL     1       5.441  24.887  52.620  1.00  0.00     0.257 C 
HETATM   13  O   UNL     1       4.247  24.607  52.671  1.00  0.00    -0.267 OA
HETATM   14  H   UNL     1       7.043  25.654  51.612  1.00  0.00     0.171 HD
BRANCH  12  15
HETATM   15  C   UNL     1       6.353  24.365  53.701  1.00  0.00     0.035 A 
HETATM   16  C   UNL     1       7.398  23.456  53.480  1.00  0.00     0.053 A 
HETATM   17  C   UNL     1       8.211  23.025  54.534  1.00  0.00     0.070 A 
HETATM   18  C   UNL     1       8.020  23.531  55.816  1.00  0.00     0.037 A 
HETATM   19  C   UNL     1       6.990  24.441  56.052  1.00  0.00     0.004 A 
HETATM   20  C   UNL     1       6.159  24.850  55.004  1.00  0.00     0.017 A 
BRANCH  17  21
HETATM   21  O   UNL     1       9.209  22.159  54.180  1.00  0.00    -0.347 OA
BRANCH  21  22
HETATM   22  C   UNL     1       8.870  20.765  54.132  1.00  0.00     0.120 C 
HETATM   23  C   UNL     1       8.035  20.498  52.886  1.00  0.00     0.040 C 
HETATM   24  C   UNL     1       8.056  20.465  55.389  1.00  0.00     0.040 C 
ENDBRANCH  21  22
ENDBRANCH  17  21
ENDBRANCH  12  15
ENDBRANCH   9  11
ENDBRANCH   7   9
ENDBRANCH   1   7
BRANCH   4  25
HETATM   25  N   UNL     1       6.091  28.867  57.149  1.00  0.00    -0.378 N 
HETATM   26  C   UNL     1       5.192  29.841  57.802  1.00  0.00     0.150 C 
HETATM   27  C   UNL     1       5.971  31.116  58.188  1.00  0.00     0.255 C 
HETATM   28  N   UNL     1       7.189  30.762  59.044  1.00  0.00    -0.064 N 
HETATM   29  H   UNL     1       6.839  30.292  59.892  1.00  0.00     0.280 HD
HETATM   30  C   UNL     1       8.084  29.751  58.327  1.00  0.00     0.255 C 
HETATM   31  C   UNL     1       7.266  28.497  57.956  1.00  0.00     0.150 C 
BRANCH  28  32
HETATM   32  C   UNL     1       7.951  31.974  59.515  1.00  0.00     0.276 C 
BRANCH  32  33
HETATM   33  C   UNL     1       7.627  32.386  60.922  1.00  0.00     0.006 A 
HETATM   34  C   UNL     1       8.484  32.033  61.969  1.00  0.00     0.124 A 
HETATM   35  F   UNL     1       9.556  31.272  61.698  1.00  0.00    -0.206 F 
HETATM   36  C   UNL     1       8.237  32.416  63.281  1.00  0.00     0.043 A 
HETATM   37  C   UNL     1       7.108  33.180  63.565  1.00  0.00     0.003 A 
HETATM   38  C   UNL     1       6.242  33.552  62.536  1.00  0.00     0.001 A 
HETATM   39  C   UNL     1       6.499  33.162  61.218  1.00  0.00     0.012 A 
ENDBRANCH  32  33
ENDBRANCH  28  32
ENDBRANCH   4  25
TORSDOF 9
ENDMDL
MODEL 3
REMARK VINA RESULT:     -10.4      1.818      2.497
REMARK  9 active torsions:
REMARK  status: ('A' for Active; 'I' for Inactive)
REMARK    1  A    between atoms: C_2  and  O_3 
REMARK    2  A    between atoms: O_3  and  C_4 
REMARK    3  A    between atoms: C_6  and  C_7 
REMARK       I    between atoms: C_7  and  N_8 
REMARK    4  A    between atoms: N_8  and  C_9 
REMARK    5  A    between atoms: C_9  and  N_10 
REMARK    6  A    between atoms: N_10  and  C_11 
REMARK    7  A    between atoms: C_14  and  N_15 
REMARK    8  A    between atoms: N_18  and  C_20 
REMARK    9  A    between atoms: C_20  and  C_21 
ROOT
HETATM    1  C   UNL     1       7.532  29.417  58.095  1.00  0.00     0.034 A 
HETATM    2  C   UNL     1       8.206  28.270  57.677  1.00  0.00     0.032 A 
HETATM    3  C   UNL     1       7.764  27.540  56.564  1.00  0.00     0.031 A 
HETATM    4  C   UNL     1       6.649  27.931  55.807  1.00  0.00     0.030 A 
HETATM    5  C   UNL     1       6.009  29.108  56.229  1.00  0.00     0.031 A 
HETATM    6  C   UNL     1       6.437  29.840  57.354  1.00  0.00     0.032 A 
ENDROOT
BRANCH   1   7
HETATM    7  N   UNL     1       7.947  29.988  59.321  1.00  0.00    -0.333 N 
HETATM    8  H   UNL     1       7.207  30.015  60.016  1.00  0.00     0.168 HD
BRANCH   7   9
HETATM    9  C   UNL     1       8.873  30.950  59.523  1.00  0.00     0.179 C 
HETATM   10  S   UNL     1      10.038  31.203  58.346  1.00  0.00    -0.040 SA
BRANCH   9  11
HETATM   11  N   UNL     1       8.874  31.779  60.600  1.00  0.00    -0.299 N 
HETATM   12  C   UNL     1       8.433  31.436  61.875  1.00  0.00     0.257 C 
HETATM   13  O   UNL     1       8.750  30.406  62.464  1.00  0.00    -0.267 OA
HETATM   14  H   UNL     1       8.625  32.702  60.284  1.00  0.00     0.171 HD
BRANCH  12  15
HETATM   15  C   UNL     1       7.588  32.452  62.600  1.00  0.00     0.035 A 
HETATM   16  C   UNL     1       6.435  33.044  62.064  1.00  0.00     0.053 A 
HETATM   17  C   UNL     1       5.693  33.973  62.804  1.00  0.00     0.070 A 
HETATM   18  C   UNL     1       6.068  34.288  64.105  1.00  0.00     0.037 A 
HETATM   19  C   UNL     1       7.207  33.702  64.657  1.00  0.00     0.004 A 
HETATM   20  C   UNL     1       7.965  32.797  63.907  1.00  0.00     0.017 A 
BRANCH  17  21
HETATM   21  O   UNL     1       4.578  34.456  62.176  1.00  0.00    -0.347 OA
BRANCH  21  22
HETATM   22  C   UNL     1       3.445  33.579  62.102  1.00  0.00     0.120 C 
HETATM   23  C   UNL     1       2.846  33.655  60.702  1.00  0.00     0.040 C 
HETATM   24  C   UNL     1       2.435  34.074  63.136  1.00  0.00     0.040 C 
ENDBRANCH  21  22
ENDBRANCH  17  21
ENDBRANCH  12  15
ENDBRANCH   9  11
ENDBRANCH   7   9
ENDBRANCH   1   7
BRANCH   4  25
HETATM   25  N   UNL     1       6.185  27.145  54.757  1.00  0.00    -0.378 N 
HETATM   26  C   UNL     1       5.503  25.865  55.040  1.00  0.00     0.150 C 
HETATM   27  C   UNL     1       6.471  24.681  54.826  1.00  0.00     0.255 C 
HETATM   28  N   UNL     1       7.080  24.735  53.423  1.00  0.00    -0.064 N 
HETATM   29  H   UNL     1       6.301  24.680  52.751  1.00  0.00     0.280 HD
HETATM   30  C   UNL     1       7.770  26.077  53.179  1.00  0.00     0.255 C 
HETATM   31  C   UNL     1       6.771  27.230  53.408  1.00  0.00     0.150 C 
BRANCH  28  32
HETATM   32  C   UNL     1       7.980  23.563  53.127  1.00  0.00     0.276 C 
BRANCH  32  33
HETATM   33  C   UNL     1       8.087  22.579  54.256  1.00  0.00     0.006 A 
HETATM   34  C   UNL     1       7.821  21.224  54.032  1.00  0.00     0.124 A 
HETATM   35  F   UNL     1       7.411  20.839  52.813  1.00  0.00    -0.206 F 
HETATM   36  C   UNL     1       7.934  20.277  55.042  1.00  0.00     0.043 A 
HETATM   37  C   UNL     1       8.330  20.682  56.313  1.00  0.00     0.003 A 
HETATM   38  C   UNL     1       8.609  22.027  56.560  1.00  0.00     0.001 A 
HETATM   39  C   UNL     1       8.493  22.974  55.538  1.00  0.00     0.012 A 
ENDBRANCH  32  33
ENDBRANCH  28  32
ENDBRANCH   4  25
TORSDOF 9
ENDMDL
MODEL 4
REMARK VINA RESULT:     -10.2      1.597      1.838
REMARK  9 active torsions:
REMARK  status: ('A' for Active; 'I' for Inactive)
REMARK    1  A    between atoms: C_2  and  O_3 
REMARK    2  A    between atoms: O_3  and  C_4 
REMARK    3  A    between atoms: C_6  and  C_7 
REMARK       I    between atoms: C_7  and  N_8 
REMARK    4  A    between atoms: N_8  and  C_9 
REMARK    5  A    between atoms: C_9  and  N_10 
REMARK    6  A    between atoms: N_10  and  C_11 
REMARK    7  A    between atoms: C_14  and  N_15 
REMARK    8  A    between atoms: N_18  and  C_20 
REMARK    9  A    between atoms: C_20  and  C_21 
ROOT
HETATM    1  C   UNL     1       5.444  30.904  57.532  1.00  0.00     0.034 A 
HETATM    2  C   UNL     1       6.448  29.968  57.782  1.00  0.00     0.032 A 
HETATM    3  C   UNL     1       6.362  28.665  57.271  1.00  0.00     0.031 A 
HETATM    4  C   UNL     1       5.289  28.244  56.471  1.00  0.00     0.030 A 
HETATM    5  C   UNL     1       4.310  29.215  56.205  1.00  0.00     0.031 A 
HETATM    6  C   UNL     1       4.379  30.522  56.727  1.00  0.00     0.032 A 
ENDROOT
BRANCH   1   7
HETATM    7  N   UNL     1       5.532  32.133  58.225  1.00  0.00    -0.333 N 
HETATM    8  H   UNL     1       6.383  32.646  58.017  1.00  0.00     0.168 HD
BRANCH   7   9
HETATM    9  C   UNL     1       5.033  32.443  59.442  1.00  0.00     0.179 C 
HETATM   10  S   UNL     1       3.459  31.998  59.801  1.00  0.00    -0.040 SA
BRANCH   9  11
HETATM   11  N   UNL     1       5.761  33.037  60.424  1.00  0.00    -0.299 N 
HETATM   12  C   UNL     1       6.527  32.364  61.371  1.00  0.00     0.257 C 
HETATM   13  O   UNL     1       7.318  31.462  61.108  1.00  0.00    -0.267 OA
HETATM   14  H   UNL     1       5.238  33.827  60.765  1.00  0.00     0.171 HD
BRANCH  12  15
HETATM   15  C   UNL     1       6.436  32.852  62.794  1.00  0.00     0.035 A 
HETATM   16  C   UNL     1       5.230  33.080  63.473  1.00  0.00     0.053 A 
HETATM   17  C   UNL     1       5.225  33.523  64.801  1.00  0.00     0.070 A 
HETATM   18  C   UNL     1       6.424  33.701  65.482  1.00  0.00     0.037 A 
HETATM   19  C   UNL     1       7.632  33.472  64.825  1.00  0.00     0.004 A 
HETATM   20  C   UNL     1       7.638  33.057  63.489  1.00  0.00     0.017 A 
BRANCH  17  21
HETATM   21  O   UNL     1       3.984  33.683  65.354  1.00  0.00    -0.347 OA
BRANCH  21  22
HETATM   22  C   UNL     1       3.456  35.016  65.388  1.00  0.00     0.120 C 
HETATM   23  C   UNL     1       4.057  35.820  64.241  1.00  0.00     0.040 C 
HETATM   24  C   UNL     1       3.867  35.620  66.729  1.00  0.00     0.040 C 
ENDBRANCH  21  22
ENDBRANCH  17  21
ENDBRANCH  12  15
ENDBRANCH   9  11
ENDBRANCH   7   9
ENDBRANCH   1   7
BRANCH   4  25
HETATM   25  N   UNL     1       5.190  26.923  56.044  1.00  0.00    -0.378 N 
HETATM   26  C   UNL     1       5.174  25.827  57.035  1.00  0.00     0.150 C 
HETATM   27  C   UNL     1       6.563  25.160  57.121  1.00  0.00     0.255 C 
HETATM   28  N   UNL     1       7.025  24.705  55.735  1.00  0.00    -0.064 N 
HETATM   29  H   UNL     1       6.329  24.027  55.390  1.00  0.00     0.280 HD
HETATM   30  C   UNL     1       7.020  25.871  54.747  1.00  0.00     0.255 C 
HETATM   31  C   UNL     1       5.618  26.511  54.697  1.00  0.00     0.150 C 
BRANCH  28  32
HETATM   32  C   UNL     1       8.346  23.979  55.763  1.00  0.00     0.276 C 
BRANCH  32  33
HETATM   33  C   UNL     1       8.342  22.681  55.007  1.00  0.00     0.006 A 
HETATM   34  C   UNL     1       8.446  21.469  55.698  1.00  0.00     0.124 A 
HETATM   35  F   UNL     1       8.611  21.496  57.030  1.00  0.00    -0.206 F 
HETATM   36  C   UNL     1       8.419  20.246  55.041  1.00  0.00     0.043 A 
HETATM   37  C   UNL     1       8.278  20.221  53.656  1.00  0.00     0.003 A 
HETATM   38  C   UNL     1       8.165  21.416  52.945  1.00  0.00     0.001 A 
HETATM   39  C   UNL     1       8.193  22.643  53.615  1.00  0.00     0.012 A 
ENDBRANCH  32  33
ENDBRANCH  28  32
ENDBRANCH   4  25
TORSDOF 9
ENDMDL
MODEL 5
REMARK VINA RESULT:      -9.8      1.779      3.167
REMARK  9 active torsions:
REMARK  status: ('A' for Active; 'I' for Inactive)
REMARK    1  A    between atoms: C_2  and  O_3 
REMARK    2  A    between atoms: O_3  and  C_4 
REMARK    3  A    between atoms: C_6  and  C_7 
REMARK       I    between atoms: C_7  and  N_8 
REMARK    4  A    between atoms: N_8  and  C_9 
REMARK    5  A    between atoms: C_9  and  N_10 
REMARK    6  A    between atoms: N_10  and  C_11 
REMARK    7  A    between atoms: C_14  and  N_15 
REMARK    8  A    between atoms: N_18  and  C_20 
REMARK    9  A    between atoms: C_20  and  C_21 
ROOT
HETATM    1  C   UNL     1       6.762  31.919  59.655  1.00  0.00     0.034 A 
HETATM    2  C   UNL     1       7.944  31.379  59.150  1.00  0.00     0.032 A 
HETATM    3  C   UNL     1       7.937  30.587  57.992  1.00  0.00     0.031 A 
HETATM    4  C   UNL     1       6.762  30.319  57.275  1.00  0.00     0.030 A 
HETATM    5  C   UNL     1       5.591  30.904  57.785  1.00  0.00     0.031 A 
HETATM    6  C   UNL     1       5.585  31.687  58.956  1.00  0.00     0.032 A 
ENDROOT
BRANCH   1   7
HETATM    7  N   UNL     1       6.840  32.558  60.915  1.00  0.00    -0.333 N 
HETATM    8  H   UNL     1       7.341  33.440  60.881  1.00  0.00     0.168 HD
BRANCH   7   9
HETATM    9  C   UNL     1       6.891  31.988  62.138  1.00  0.00     0.179 C 
HETATM   10  S   UNL     1       8.238  31.079  62.546  1.00  0.00    -0.040 SA
BRANCH   9  11
HETATM   11  N   UNL     1       5.939  32.167  63.091  1.00  0.00    -0.299 N 
HETATM   12  C   UNL     1       5.110  33.280  63.197  1.00  0.00     0.257 C 
HETATM   13  O   UNL     1       4.493  33.776  62.258  1.00  0.00    -0.267 OA
HETATM   14  H   UNL     1       6.295  31.803  63.960  1.00  0.00     0.171 HD
BRANCH  12  15
HETATM   15  C   UNL     1       4.897  33.843  64.578  1.00  0.00     0.035 A 
HETATM   16  C   UNL     1       5.859  33.815  65.598  1.00  0.00     0.053 A 
HETATM   17  C   UNL     1       5.591  34.370  66.855  1.00  0.00     0.070 A 
HETATM   18  C   UNL     1       4.375  35.001  67.095  1.00  0.00     0.037 A 
HETATM   19  C   UNL     1       3.409  35.044  66.090  1.00  0.00     0.004 A 
HETATM   20  C   UNL     1       3.666  34.465  64.844  1.00  0.00     0.017 A 
BRANCH  17  21
HETATM   21  O   UNL     1       6.622  34.300  67.752  1.00  0.00    -0.347 OA
BRANCH  21  22
HETATM   22  C   UNL     1       6.363  34.785  69.077  1.00  0.00     0.120 C 
HETATM   23  C   UNL     1       7.511  35.689  69.510  1.00  0.00     0.040 C 
HETATM   24  C   UNL     1       6.281  33.561  69.987  1.00  0.00     0.040 C 
ENDBRANCH  21  22
ENDBRANCH  17  21
ENDBRANCH  12  15
ENDBRANCH   9  11
ENDBRANCH   7   9
ENDBRANCH   1   7
BRANCH   4  25
HETATM   25  N   UNL     1       6.772  29.467  56.176  1.00  0.00    -0.378 N 
HETATM   26  C   UNL     1       5.505  28.894  55.675  1.00  0.00     0.150 C 
HETATM   27  C   UNL     1       5.344  27.438  56.161  1.00  0.00     0.255 C 
HETATM   28  N   UNL     1       6.569  26.606  55.773  1.00  0.00    -0.064 N 
HETATM   29  H   UNL     1       6.640  26.629  54.745  1.00  0.00     0.280 HD
HETATM   30  C   UNL     1       7.852  27.241  56.311  1.00  0.00     0.255 C 
HETATM   31  C   UNL     1       7.969  28.693  55.806  1.00  0.00     0.150 C 
BRANCH  28  32
HETATM   32  C   UNL     1       6.440  25.154  56.157  1.00  0.00     0.276 C 
BRANCH  32  33
HETATM   33  C   UNL     1       7.170  24.217  55.240  1.00  0.00     0.006 A 
HETATM   34  C   UNL     1       8.275  23.498  55.710  1.00  0.00     0.124 A 
HETATM   35  F   UNL     1       8.699  23.711  56.965  1.00  0.00    -0.206 F 
HETATM   36  C   UNL     1       8.963  22.600  54.903  1.00  0.00     0.043 A 
HETATM   37  C   UNL     1       8.540  22.402  53.592  1.00  0.00     0.003 A 
HETATM   38  C   UNL     1       7.436  23.101  53.103  1.00  0.00     0.001 A 
HETATM   39  C   UNL     1       6.749  24.003  53.921  1.00  0.00     0.012 A 
ENDBRANCH  32  33
ENDBRANCH  28  32
ENDBRANCH   4  25
TORSDOF 9
ENDMDL
MODEL 6
REMARK VINA RESULT:      -9.8      2.797      4.652
REMARK  9 active torsions:
REMARK  status: ('A' for Active; 'I' for Inactive)
REMARK    1  A    between atoms: C_2  and  O_3 
REMARK    2  A    between atoms: O_3  and  C_4 
REMARK    3  A    between atoms: C_6  and  C_7 
REMARK       I    between atoms: C_7  and  N_8 
REMARK    4  A    between atoms: N_8  and  C_9 
REMARK    5  A    between atoms: C_9  and  N_10 
REMARK    6  A    between atoms: N_10  and  C_11 
REMARK    7  A    between atoms: C_14  and  N_15 
REMARK    8  A    between atoms: N_18  and  C_20 
REMARK    9  A    between atoms: C_20  and  C_21 
ROOT
HETATM    1  C   UNL     1       4.290  31.902  58.163  1.00  0.00     0.034 A 
HETATM    2  C   UNL     1       3.574  30.740  57.876  1.00  0.00     0.032 A 
HETATM    3  C   UNL     1       4.087  29.778  56.994  1.00  0.00     0.031 A 
HETATM    4  C   UNL     1       5.340  29.917  56.379  1.00  0.00     0.030 A 
HETATM    5  C   UNL     1       6.055  31.079  56.712  1.00  0.00     0.031 A 
HETATM    6  C   UNL     1       5.543  32.059  57.585  1.00  0.00     0.032 A 
ENDROOT
BRANCH   1   7
HETATM    7  N   UNL     1       3.623  32.889  58.926  1.00  0.00    -0.333 N 
HETATM    8  H   UNL     1       3.492  33.760  58.419  1.00  0.00     0.168 HD
BRANCH   7   9
HETATM    9  C   UNL     1       3.657  33.076  60.262  1.00  0.00     0.179 C 
HETATM   10  S   UNL     1       2.391  33.896  60.991  1.00  0.00    -0.040 SA
BRANCH   9  11
HETATM   11  N   UNL     1       4.630  32.575  61.067  1.00  0.00    -0.299 N 
HETATM   12  C   UNL     1       5.791  33.249  61.436  1.00  0.00     0.257 C 
HETATM   13  O   UNL     1       5.820  34.405  61.850  1.00  0.00    -0.267 OA
HETATM   14  H   UNL     1       4.742  31.598  60.851  1.00  0.00     0.171 HD
BRANCH  12  15
HETATM   15  C   UNL     1       7.076  32.462  61.406  1.00  0.00     0.035 A 
HETATM   16  C   UNL     1       7.987  32.480  60.340  1.00  0.00     0.053 A 
HETATM   17  C   UNL     1       9.168  31.729  60.389  1.00  0.00     0.070 A 
HETATM   18  C   UNL     1       9.475  30.985  61.523  1.00  0.00     0.037 A 
HETATM   19  C   UNL     1       8.584  30.961  62.595  1.00  0.00     0.004 A 
HETATM   20  C   UNL     1       7.391  31.688  62.534  1.00  0.00     0.017 A 
BRANCH  17  21
HETATM   21  O   UNL     1       9.981  31.856  59.297  1.00  0.00    -0.347 OA
BRANCH  21  22
HETATM   22  C   UNL     1       9.645  31.071  58.144  1.00  0.00     0.120 C 
HETATM   23  C   UNL     1       8.790  29.887  58.579  1.00  0.00     0.040 C 
HETATM   24  C   UNL     1      10.961  30.581  57.543  1.00  0.00     0.040 C 
ENDBRANCH  21  22
ENDBRANCH  17  21
ENDBRANCH  12  15
ENDBRANCH   9  11
ENDBRANCH   7   9
ENDBRANCH   1   7
BRANCH   4  25
HETATM   25  N   UNL     1       5.789  28.986  55.448  1.00  0.00    -0.378 N 
HETATM   26  C   UNL     1       4.915  27.863  55.049  1.00  0.00     0.150 C 
HETATM   27  C   UNL     1       5.331  26.571  55.783  1.00  0.00     0.255 C 
HETATM   28  N   UNL     1       6.816  26.281  55.556  1.00  0.00    -0.064 N 
HETATM   29  H   UNL     1       6.952  26.169  54.540  1.00  0.00     0.280 HD
HETATM   30  C   UNL     1       7.676  27.472  55.980  1.00  0.00     0.255 C 
HETATM   31  C   UNL     1       7.223  28.740  55.228  1.00  0.00     0.150 C 
BRANCH  28  32
HETATM   32  C   UNL     1       7.268  24.989  56.189  1.00  0.00     0.276 C 
BRANCH  32  33
HETATM   33  C   UNL     1       7.526  23.888  55.202  1.00  0.00     0.006 A 
HETATM   34  C   UNL     1       7.870  22.609  55.655  1.00  0.00     0.124 A 
HETATM   35  F   UNL     1       8.023  22.410  56.974  1.00  0.00    -0.206 F 
HETATM   36  C   UNL     1       8.091  21.555  54.778  1.00  0.00     0.043 A 
HETATM   37  C   UNL     1       7.961  21.771  53.409  1.00  0.00     0.003 A 
HETATM   38  C   UNL     1       7.611  23.035  52.933  1.00  0.00     0.001 A 
HETATM   39  C   UNL     1       7.391  24.091  53.823  1.00  0.00     0.012 A 
ENDBRANCH  32  33
ENDBRANCH  28  32
ENDBRANCH   4  25
TORSDOF 9
ENDMDL
MODEL 7
REMARK VINA RESULT:      -9.7      2.695      4.367
REMARK  9 active torsions:
REMARK  status: ('A' for Active; 'I' for Inactive)
REMARK    1  A    between atoms: C_2  and  O_3 
REMARK    2  A    between atoms: O_3  and  C_4 
REMARK    3  A    between atoms: C_6  and  C_7 
REMARK       I    between atoms: C_7  and  N_8 
REMARK    4  A    between atoms: N_8  and  C_9 
REMARK    5  A    between atoms: C_9  and  N_10 
REMARK    6  A    between atoms: N_10  and  C_11 
REMARK    7  A    between atoms: C_14  and  N_15 
REMARK    8  A    between atoms: N_18  and  C_20 
REMARK    9  A    between atoms: C_20  and  C_21 
ROOT
HETATM    1  C   UNL     1       4.277  32.626  57.131  1.00  0.00     0.034 A 
HETATM    2  C   UNL     1       5.278  31.707  57.446  1.00  0.00     0.032 A 
HETATM    3  C   UNL     1       5.248  30.404  56.927  1.00  0.00     0.031 A 
HETATM    4  C   UNL     1       4.238  29.967  56.057  1.00  0.00     0.030 A 
HETATM    5  C   UNL     1       3.262  30.922  55.729  1.00  0.00     0.031 A 
HETATM    6  C   UNL     1       3.274  32.229  56.257  1.00  0.00     0.032 A 
ENDROOT
BRANCH   1   7
HETATM    7  N   UNL     1       4.297  33.855  57.832  1.00  0.00    -0.333 N 
HETATM    8  H   UNL     1       5.070  34.454  57.559  1.00  0.00     0.168 HD
BRANCH   7   9
HETATM    9  C   UNL     1       3.876  34.105  59.091  1.00  0.00     0.179 C 
HETATM   10  S   UNL     1       2.634  35.206  59.317  1.00  0.00    -0.040 SA
BRANCH   9  11
HETATM   11  N   UNL     1       4.357  33.462  60.186  1.00  0.00    -0.299 N 
HETATM   12  C   UNL     1       5.243  34.006  61.111  1.00  0.00     0.257 C 
HETATM   13  O   UNL     1       5.117  35.118  61.619  1.00  0.00    -0.267 OA
HETATM   14  H   UNL     1       4.522  32.500  59.937  1.00  0.00     0.171 HD
BRANCH  12  15
HETATM   15  C   UNL     1       6.372  33.123  61.577  1.00  0.00     0.035 A 
HETATM   16  C   UNL     1       6.986  32.145  60.781  1.00  0.00     0.053 A 
HETATM   17  C   UNL     1       8.040  31.369  61.281  1.00  0.00     0.070 A 
HETATM   18  C   UNL     1       8.523  31.592  62.566  1.00  0.00     0.037 A 
HETATM   19  C   UNL     1       7.928  32.566  63.368  1.00  0.00     0.004 A 
HETATM   20  C   UNL     1       6.857  33.321  62.879  1.00  0.00     0.017 A 
BRANCH  17  21
HETATM   21  O   UNL     1       8.567  30.470  60.395  1.00  0.00    -0.347 OA
BRANCH  21  22
HETATM   22  C   UNL     1       8.574  30.849  59.012  1.00  0.00     0.120 C 
HETATM   23  C   UNL     1       8.507  29.594  58.150  1.00  0.00     0.040 C 
HETATM   24  C   UNL     1       9.885  31.592  58.764  1.00  0.00     0.040 C 
ENDBRANCH  21  22
ENDBRANCH  17  21
ENDBRANCH  12  15
ENDBRANCH   9  11
ENDBRANCH   7   9
ENDBRANCH   1   7
BRANCH   4  25
HETATM   25  N   UNL     1       4.190  28.647  55.621  1.00  0.00    -0.378 N 
HETATM   26  C   UNL     1       4.711  27.566  56.485  1.00  0.00     0.150 C 
HETATM   27  C   UNL     1       6.117  27.135  56.016  1.00  0.00     0.255 C 
HETATM   28  N   UNL     1       6.094  26.755  54.534  1.00  0.00    -0.064 N 
HETATM   29  H   UNL     1       5.432  25.972  54.431  1.00  0.00     0.280 HD
HETATM   30  C   UNL     1       5.545  27.902  53.685  1.00  0.00     0.255 C 
HETATM   31  C   UNL     1       4.144  28.304  54.190  1.00  0.00     0.150 C 
BRANCH  28  32
HETATM   32  C   UNL     1       7.425  26.254  54.034  1.00  0.00     0.276 C 
BRANCH  32  33
HETATM   33  C   UNL     1       7.552  24.759  54.042  1.00  0.00     0.006 A 
HETATM   34  C   UNL     1       7.804  24.072  52.849  1.00  0.00     0.124 A 
HETATM   35  F   UNL     1       7.864  24.768  51.703  1.00  0.00    -0.206 F 
HETATM   36  C   UNL     1       7.955  22.691  52.815  1.00  0.00     0.043 A 
HETATM   37  C   UNL     1       7.862  21.968  54.001  1.00  0.00     0.003 A 
HETATM   38  C   UNL     1       7.620  22.631  55.205  1.00  0.00     0.001 A 
HETATM   39  C   UNL     1       7.469  24.021  55.229  1.00  0.00     0.012 A 
ENDBRANCH  32  33
ENDBRANCH  28  32
ENDBRANCH   4  25
TORSDOF 9
ENDMDL
MODEL 8
REMARK VINA RESULT:      -9.7      1.486      2.143
REMARK  9 active torsions:
REMARK  status: ('A' for Active; 'I' for Inactive)
REMARK    1  A    between atoms: C_2  and  O_3 
REMARK    2  A    between atoms: O_3  and  C_4 
REMARK    3  A    between atoms: C_6  and  C_7 
REMARK       I    between atoms: C_7  and  N_8 
REMARK    4  A    between atoms: N_8  and  C_9 
REMARK    5  A    between atoms: C_9  and  N_10 
REMARK    6  A    between atoms: N_10  and  C_11 
REMARK    7  A    between atoms: C_14  and  N_15 
REMARK    8  A    between atoms: N_18  and  C_20 
REMARK    9  A    between atoms: C_20  and  C_21 
ROOT
HETATM    1  C   UNL     1       6.121  30.832  57.820  1.00  0.00     0.034 A 
HETATM    2  C   UNL     1       7.158  29.905  57.723  1.00  0.00     0.032 A 
HETATM    3  C   UNL     1       6.956  28.659  57.111  1.00  0.00     0.031 A 
HETATM    4  C   UNL     1       5.724  28.291  56.550  1.00  0.00     0.030 A 
HETATM    5  C   UNL     1       4.706  29.256  56.632  1.00  0.00     0.031 A 
HETATM    6  C   UNL     1       4.895  30.504  57.257  1.00  0.00     0.032 A 
ENDROOT
BRANCH   1   7
HETATM    7  N   UNL     1       6.369  31.986  58.600  1.00  0.00    -0.333 N 
HETATM    8  H   UNL     1       6.674  32.780  58.046  1.00  0.00     0.168 HD
BRANCH   7   9
HETATM    9  C   UNL     1       6.807  32.054  59.875  1.00  0.00     0.179 C 
HETATM   10  S   UNL     1       8.450  32.235  60.151  1.00  0.00    -0.040 SA
BRANCH   9  11
HETATM   11  N   UNL     1       5.983  32.054  60.955  1.00  0.00    -0.299 N 
HETATM   12  C   UNL     1       4.628  32.373  60.929  1.00  0.00     0.257 C 
HETATM   13  O   UNL     1       3.826  31.923  60.115  1.00  0.00    -0.267 OA
HETATM   14  H   UNL     1       6.500  32.409  61.743  1.00  0.00     0.171 HD
BRANCH  12  15
HETATM   15  C   UNL     1       4.114  33.256  62.037  1.00  0.00     0.035 A 
HETATM   16  C   UNL     1       4.909  33.763  63.074  1.00  0.00     0.053 A 
HETATM   17  C   UNL     1       4.361  34.589  64.063  1.00  0.00     0.070 A 
HETATM   18  C   UNL     1       3.020  34.955  64.003  1.00  0.00     0.037 A 
HETATM   19  C   UNL     1       2.217  34.466  62.974  1.00  0.00     0.004 A 
HETATM   20  C   UNL     1       2.757  33.618  62.002  1.00  0.00     0.017 A 
BRANCH  17  21
HETATM   21  O   UNL     1       5.249  35.036  65.003  1.00  0.00    -0.347 OA
BRANCH  21  22
HETATM   22  C   UNL     1       5.509  34.166  66.114  1.00  0.00     0.120 C 
HETATM   23  C   UNL     1       5.157  34.892  67.408  1.00  0.00     0.040 C 
HETATM   24  C   UNL     1       7.001  33.840  66.081  1.00  0.00     0.040 C 
ENDBRANCH  21  22
ENDBRANCH  17  21
ENDBRANCH  12  15
ENDBRANCH   9  11
ENDBRANCH   7   9
ENDBRANCH   1   7
BRANCH   4  25
HETATM   25  N   UNL     1       5.529  27.019  56.021  1.00  0.00    -0.378 N 
HETATM   26  C   UNL     1       5.285  25.875  56.924  1.00  0.00     0.150 C 
HETATM   27  C   UNL     1       6.576  25.048  57.103  1.00  0.00     0.255 C 
HETATM   28  N   UNL     1       7.135  24.626  55.743  1.00  0.00    -0.064 N 
HETATM   29  H   UNL     1       6.411  24.055  55.281  1.00  0.00     0.280 HD
HETATM   30  C   UNL     1       7.366  25.842  54.846  1.00  0.00     0.255 C 
HETATM   31  C   UNL     1       6.055  26.642  54.699  1.00  0.00     0.150 C 
BRANCH  28  32
HETATM   32  C   UNL     1       8.357  23.751  55.854  1.00  0.00     0.276 C 
BRANCH  32  33
HETATM   33  C   UNL     1       8.345  22.570  54.927  1.00  0.00     0.006 A 
HETATM   34  C   UNL     1       8.622  21.291  55.421  1.00  0.00     0.124 A 
HETATM   35  F   UNL     1       8.957  21.155  56.713  1.00  0.00    -0.206 F 
HETATM   36  C   UNL     1       8.596  20.168  54.604  1.00  0.00     0.043 A 
HETATM   37  C   UNL     1       8.278  20.314  53.256  1.00  0.00     0.003 A 
HETATM   38  C   UNL     1       7.990  21.579  52.742  1.00  0.00     0.001 A 
HETATM   39  C   UNL     1       8.019  22.704  53.571  1.00  0.00     0.012 A 
ENDBRANCH  32  33
ENDBRANCH  28  32
ENDBRANCH   4  25
TORSDOF 9
ENDMDL
MODEL 9
REMARK VINA RESULT:      -9.6      1.594      2.206
REMARK  9 active torsions:
REMARK  status: ('A' for Active; 'I' for Inactive)
REMARK    1  A    between atoms: C_2  and  O_3 
REMARK    2  A    between atoms: O_3  and  C_4 
REMARK    3  A    between atoms: C_6  and  C_7 
REMARK       I    between atoms: C_7  and  N_8 
REMARK    4  A    between atoms: N_8  and  C_9 
REMARK    5  A    between atoms: C_9  and  N_10 
REMARK    6  A    between atoms: N_10  and  C_11 
REMARK    7  A    between atoms: C_14  and  N_15 
REMARK    8  A    between atoms: N_18  and  C_20 
REMARK    9  A    between atoms: C_20  and  C_21 
ROOT
HETATM    1  C   UNL     1       7.052  30.170  58.389  1.00  0.00     0.034 A 
HETATM    2  C   UNL     1       6.076  30.599  57.490  1.00  0.00     0.032 A 
HETATM    3  C   UNL     1       5.980  30.037  56.209  1.00  0.00     0.031 A 
HETATM    4  C   UNL     1       6.832  29.010  55.775  1.00  0.00     0.030 A 
HETATM    5  C   UNL     1       7.783  28.573  56.712  1.00  0.00     0.031 A 
HETATM    6  C   UNL     1       7.897  29.141  57.996  1.00  0.00     0.032 A 
ENDROOT
BRANCH   1   7
HETATM    7  N   UNL     1       7.181  30.908  59.589  1.00  0.00    -0.333 N 
HETATM    8  H   UNL     1       6.296  31.270  59.929  1.00  0.00     0.168 HD
BRANCH   7   9
HETATM    9  C   UNL     1       8.230  31.651  60.003  1.00  0.00     0.179 C 
HETATM   10  S   UNL     1       9.597  31.719  59.036  1.00  0.00    -0.040 SA
BRANCH   9  11
HETATM   11  N   UNL     1       8.217  32.408  61.131  1.00  0.00    -0.299 N 
HETATM   12  C   UNL     1       7.423  32.168  62.248  1.00  0.00     0.257 C 
HETATM   13  O   UNL     1       7.301  31.072  62.789  1.00  0.00    -0.267 OA
HETATM   14  H   UNL     1       8.310  33.373  60.860  1.00  0.00     0.171 HD
BRANCH  12  15
HETATM   15  C   UNL     1       6.749  33.361  62.876  1.00  0.00     0.035 A 
HETATM   16  C   UNL     1       6.539  33.513  64.254  1.00  0.00     0.053 A 
HETATM   17  C   UNL     1       5.916  34.658  64.765  1.00  0.00     0.070 A 
HETATM   18  C   UNL     1       5.534  35.686  63.909  1.00  0.00     0.037 A 
HETATM   19  C   UNL     1       5.742  35.555  62.537  1.00  0.00     0.004 A 
HETATM   20  C   UNL     1       6.339  34.399  62.023  1.00  0.00     0.017 A 
BRANCH  17  21
HETATM   21  O   UNL     1       5.795  34.693  66.127  1.00  0.00    -0.347 OA
BRANCH  21  22
HETATM   22  C   UNL     1       4.527  34.306  66.675  1.00  0.00     0.120 C 
HETATM   23  C   UNL     1       3.569  35.489  66.602  1.00  0.00     0.040 C 
HETATM   24  C   UNL     1       4.776  33.916  68.131  1.00  0.00     0.040 C 
ENDBRANCH  21  22
ENDBRANCH  17  21
ENDBRANCH  12  15
ENDBRANCH   9  11
ENDBRANCH   7   9
ENDBRANCH   1   7
BRANCH   4  25
HETATM   25  N   UNL     1       6.766  28.527  54.473  1.00  0.00    -0.378 N 
HETATM   26  C   UNL     1       5.451  28.295  53.838  1.00  0.00     0.150 C 
HETATM   27  C   UNL     1       5.096  26.794  53.872  1.00  0.00     0.255 C 
HETATM   28  N   UNL     1       6.217  25.964  53.242  1.00  0.00    -0.064 N 
HETATM   29  H   UNL     1       6.318  26.281  52.266  1.00  0.00     0.280 HD
HETATM   30  C   UNL     1       7.554  26.242  53.929  1.00  0.00     0.255 C 
HETATM   31  C   UNL     1       7.866  27.751  53.878  1.00  0.00     0.150 C 
BRANCH  28  32
HETATM   32  C   UNL     1       5.896  24.492  53.178  1.00  0.00     0.276 C 
BRANCH  32  33
HETATM   33  C   UNL     1       6.964  23.613  53.761  1.00  0.00     0.006 A 
HETATM   34  C   UNL     1       7.043  23.431  55.146  1.00  0.00     0.124 A 
HETATM   35  F   UNL     1       6.191  24.105  55.935  1.00  0.00    -0.206 F 
HETATM   36  C   UNL     1       7.998  22.605  55.725  1.00  0.00     0.043 A 
HETATM   37  C   UNL     1       8.900  21.931  54.906  1.00  0.00     0.003 A 
HETATM   38  C   UNL     1       8.836  22.089  53.521  1.00  0.00     0.001 A 
HETATM   39  C   UNL     1       7.872  22.923  52.947  1.00  0.00     0.012 A 
ENDBRANCH  32  33
ENDBRANCH  28  32
ENDBRANCH   4  25
TORSDOF 9
ENDMDL
MODEL 10
REMARK VINA RESULT:      -9.6      4.251     12.636
REMARK  9 active torsions:
REMARK  status: ('A' for Active; 'I' for Inactive)
REMARK    1  A    between atoms: C_2  and  O_3 
REMARK    2  A    between atoms: O_3  and  C_4 
REMARK    3  A    between atoms: C_6  and  C_7 
REMARK       I    between atoms: C_7  and  N_8 
REMARK    4  A    between atoms: N_8  and  C_9 
REMARK    5  A    between atoms: C_9  and  N_10 
REMARK    6  A    between atoms: N_10  and  C_11 
REMARK    7  A    between atoms: C_14  and  N_15 
REMARK    8  A    between atoms: N_18  and  C_20 
REMARK    9  A    between atoms: C_20  and  C_21 
ROOT
HETATM    1  C   UNL     1       5.224  30.365  56.633  1.00  0.00     0.034 A 
HETATM    2  C   UNL     1       6.028  31.149  57.460  1.00  0.00     0.032 A 
HETATM    3  C   UNL     1       5.490  31.801  58.579  1.00  0.00     0.031 A 
HETATM    4  C   UNL     1       4.140  31.684  58.938  1.00  0.00     0.030 A 
HETATM    5  C   UNL     1       3.359  30.861  58.109  1.00  0.00     0.031 A 
HETATM    6  C   UNL     1       3.886  30.214  56.974  1.00  0.00     0.032 A 
ENDROOT
BRANCH   1   7
HETATM    7  N   UNL     1       5.812  29.887  55.439  1.00  0.00    -0.333 N 
HETATM    8  H   UNL     1       6.307  30.609  54.925  1.00  0.00     0.168 HD
BRANCH   7   9
HETATM    9  C   UNL     1       5.378  28.894  54.634  1.00  0.00     0.179 C 
HETATM   10  S   UNL     1       4.442  29.290  53.302  1.00  0.00    -0.040 SA
BRANCH   9  11
HETATM   11  N   UNL     1       5.716  27.588  54.801  1.00  0.00    -0.299 N 
HETATM   12  C   UNL     1       7.011  27.114  54.995  1.00  0.00     0.257 C 
HETATM   13  O   UNL     1       7.811  27.592  55.795  1.00  0.00    -0.267 OA
HETATM   14  H   UNL     1       5.134  27.035  54.194  1.00  0.00     0.171 HD
BRANCH  12  15
HETATM   15  C   UNL     1       7.406  25.877  54.230  1.00  0.00     0.035 A 
HETATM   16  C   UNL     1       7.861  24.693  54.828  1.00  0.00     0.053 A 
HETATM   17  C   UNL     1       8.199  23.579  54.050  1.00  0.00     0.070 A 
HETATM   18  C   UNL     1       8.044  23.618  52.669  1.00  0.00     0.037 A 
HETATM   19  C   UNL     1       7.585  24.785  52.059  1.00  0.00     0.004 A 
HETATM   20  C   UNL     1       7.275  25.908  52.832  1.00  0.00     0.017 A 
BRANCH  17  21
HETATM   21  O   UNL     1       8.605  22.480  54.757  1.00  0.00    -0.347 OA
BRANCH  21  22
HETATM   22  C   UNL     1       7.836  21.281  54.588  1.00  0.00     0.120 C 
HETATM   23  C   UNL     1       7.640  20.619  55.947  1.00  0.00     0.040 C 
HETATM   24  C   UNL     1       8.641  20.367  53.666  1.00  0.00     0.040 C 
ENDBRANCH  21  22
ENDBRANCH  17  21
ENDBRANCH  12  15
ENDBRANCH   9  11
ENDBRANCH   7   9
ENDBRANCH   1   7
BRANCH   4  25
HETATM   25  N   UNL     1       3.617  32.405  60.006  1.00  0.00    -0.378 N 
HETATM   26  C   UNL     1       3.318  33.844  59.849  1.00  0.00     0.150 C 
HETATM   27  C   UNL     1       4.438  34.697  60.481  1.00  0.00     0.255 C 
HETATM   28  N   UNL     1       4.662  34.291  61.939  1.00  0.00    -0.064 N 
HETATM   29  H   UNL     1       3.775  34.448  62.439  1.00  0.00     0.280 HD
HETATM   30  C   UNL     1       4.963  32.796  62.049  1.00  0.00     0.255 C 
HETATM   31  C   UNL     1       3.824  31.983  61.401  1.00  0.00     0.150 C 
BRANCH  28  32
HETATM   32  C   UNL     1       5.696  35.140  62.635  1.00  0.00     0.276 C 
BRANCH  32  33
HETATM   33  C   UNL     1       5.815  34.867  64.106  1.00  0.00     0.006 A 
HETATM   34  C   UNL     1       4.847  35.358  64.989  1.00  0.00     0.124 A 
HETATM   35  F   UNL     1       3.857  36.122  64.503  1.00  0.00    -0.206 F 
HETATM   36  C   UNL     1       4.904  35.107  66.354  1.00  0.00     0.043 A 
HETATM   37  C   UNL     1       5.949  34.339  66.861  1.00  0.00     0.003 A 
HETATM   38  C   UNL     1       6.922  33.831  65.999  1.00  0.00     0.001 A 
HETATM   39  C   UNL     1       6.857  34.089  64.627  1.00  0.00     0.012 A 
ENDBRANCH  32  33
ENDBRANCH  28  32
ENDBRANCH   4  25
TORSDOF 9
ENDMDL
