MODEL 1
REMARK VINA RESULT:      -9.1      0.000      0.000
REMARK  7 active torsions:
REMARK  status: ('A' for Active; 'I' for Inactive)
REMARK    1  A    between atoms: C_2  and  C_3 
REMARK    2  A    between atoms: C_3  and  C_4 
REMARK    3  A    between atoms: C_7  and  C_8 
REMARK    4  A    between atoms: C_14  and  C_15 
REMARK    5  A    between atoms: C_18  and  O_19 
REMARK    6  A    between atoms: O_19  and  C_20 
REMARK       I    between atoms: C_20  and  N_21 
REMARK    7  A    between atoms: C_33  and  N_34 
ROOT
HETATM    1  C   UNL     1       9.232  30.795  58.773  1.00  0.00     0.099 A 
HETATM    2  N   UNL     1      10.473  30.976  58.272  1.00  0.00    -0.172 NA
HETATM    3  N   UNL     1      10.429  30.449  57.036  1.00  0.00    -0.256 N 
HETATM    4  H   UNL     1      11.270  30.461  56.470  1.00  0.00     0.191 HD
HETATM    5  C   UNL     1       9.208  29.963  56.716  1.00  0.00     0.175 A 
HETATM    6  C   UNL     1       8.397  30.164  57.805  1.00  0.00     0.040 A 
HETATM    7  C   UNL     1       6.971  29.728  57.743  1.00  0.00     0.106 A 
HETATM    8  C   UNL     1       6.671  29.042  56.407  1.00  0.00     0.081 A 
HETATM    9  C   UNL     1       5.372  28.473  56.258  1.00  0.00     0.100 C 
HETATM   10  N   UNL     1       4.319  28.002  56.134  1.00  0.00    -0.191 NA
HETATM   11  C   UNL     1       7.596  28.912  55.417  1.00  0.00     0.140 A 
HETATM   12  O   UNL     1       8.903  29.406  55.551  1.00  0.00    -0.279 OA
ENDROOT
BRANCH   7  13
HETATM   13  C   UNL     1       6.110  30.962  57.979  1.00  0.00    -0.044 A 
HETATM   14  C   UNL     1       5.782  31.869  56.954  1.00  0.00     0.011 A 
HETATM   15  C   UNL     1       4.979  32.983  57.215  1.00  0.00     0.038 A 
HETATM   16  C   UNL     1       4.471  33.178  58.496  1.00  0.00     0.081 A 
HETATM   17  C   UNL     1       4.775  32.294  59.528  1.00  0.00     0.038 A 
HETATM   18  C   UNL     1       5.578  31.185  59.265  1.00  0.00     0.011 A 
BRANCH  16  19
HETATM   19  O   UNL     1       3.738  34.351  58.727  1.00  0.00    -0.261 OA
BRANCH  19  20
HETATM   20  C   UNL     1       2.890  34.382  59.834  1.00  0.00     0.368 C 
HETATM   21  N   UNL     1       3.392  35.173  60.857  1.00  0.00    -0.324 N 
HETATM   22  C   UNL     1       2.533  35.477  61.999  1.00  0.00     0.154 C 
HETATM   23  C   UNL     1       4.532  36.071  60.679  1.00  0.00     0.154 C 
HETATM   24  C   UNL     1       3.356  35.738  63.262  1.00  0.00     0.187 C 
HETATM   25  O   UNL     1       4.360  36.739  63.029  1.00  0.00    -0.388 OA
HETATM   26  C   UNL     1       5.265  36.308  62.003  1.00  0.00     0.187 C 
HETATM   27  O   UNL     1       1.824  33.778  59.911  1.00  0.00    -0.238 OA
ENDBRANCH  19  20
ENDBRANCH  16  19
ENDBRANCH   7  13
BRANCH  11  28
HETATM   28  N   UNL     1       7.386  28.296  54.203  1.00  0.00    -0.282 NA
HETATM   29  H   UNL     1       8.211  28.190  53.617  1.00  0.00     0.126 HD
HETATM   30  H   UNL     1       6.852  27.436  54.297  1.00  0.00     0.126 HD
ENDBRANCH  11  28
BRANCH   1  31
HETATM   31  C   UNL     1       8.909  31.266  60.122  1.00  0.00    -0.005 A 
HETATM   32  C   UNL     1       8.472  32.585  60.309  1.00  0.00     0.014 A 
HETATM   33  C   UNL     1       8.141  33.057  61.581  1.00  0.00     0.008 A 
HETATM   34  C   UNL     1       8.238  32.217  62.695  1.00  0.00    -0.058 A 
HETATM   35  C   UNL     1       8.688  30.904  62.515  1.00  0.00     0.008 A 
HETATM   36  C   UNL     1       9.030  30.436  61.241  1.00  0.00     0.014 A 
BRANCH  34  37
HETATM   37  C   UNL     1       7.854  32.719  64.066  1.00  0.00     0.042 C 
BRANCH  37  38
HETATM   38  C   UNL     1       6.530  33.509  64.090  1.00  0.00    -0.019 C 
HETATM   39  C   UNL     1       6.239  34.110  65.468  1.00  0.00     0.010 C 
HETATM   40  C   UNL     1       5.376  32.592  63.677  1.00  0.00     0.010 C 
ENDBRANCH  37  38
ENDBRANCH  34  37
ENDBRANCH   1  31
TORSDOF 7
ENDMDL
MODEL 2
REMARK VINA RESULT:      -9.0      4.174      8.945
REMARK  7 active torsions:
REMARK  status: ('A' for Active; 'I' for Inactive)
REMARK    1  A    between atoms: C_2  and  C_3 
REMARK    2  A    between atoms: C_3  and  C_4 
REMARK    3  A    between atoms: C_7  and  C_8 
REMARK    4  A    between atoms: C_14  and  C_15 
REMARK    5  A    between atoms: C_18  and  O_19 
REMARK    6  A    between atoms: O_19  and  C_20 
REMARK       I    between atoms: C_20  and  N_21 
REMARK    7  A    between atoms: C_33  and  N_34 
ROOT
HETATM    1  C   UNL     1       5.762  26.828  52.510  1.00  0.00     0.099 A 
HETATM    2  N   UNL     1       5.760  27.070  51.182  1.00  0.00    -0.172 NA
HETATM    3  N   UNL     1       5.051  28.202  51.035  1.00  0.00    -0.256 N 
HETATM    4  H   UNL     1       4.906  28.571  50.102  1.00  0.00     0.191 HD
HETATM    5  C   UNL     1       4.622  28.709  52.214  1.00  0.00     0.175 A 
HETATM    6  C   UNL     1       5.058  27.858  53.199  1.00  0.00     0.040 A 
HETATM    7  C   UNL     1       4.734  28.166  54.623  1.00  0.00     0.106 A 
HETATM    8  C   UNL     1       3.874  29.429  54.725  1.00  0.00     0.081 A 
HETATM    9  C   UNL     1       3.397  29.775  56.022  1.00  0.00     0.100 C 
HETATM   10  N   UNL     1       3.000  30.058  57.075  1.00  0.00    -0.191 NA
HETATM   11  C   UNL     1       3.516  30.169  53.640  1.00  0.00     0.140 A 
HETATM   12  O   UNL     1       3.917  29.825  52.339  1.00  0.00    -0.279 OA
ENDROOT
BRANCH   7  13
HETATM   13  C   UNL     1       6.057  28.291  55.370  1.00  0.00    -0.044 A 
HETATM   14  C   UNL     1       6.229  27.839  56.693  1.00  0.00     0.011 A 
HETATM   15  C   UNL     1       7.464  27.965  57.335  1.00  0.00     0.038 A 
HETATM   16  C   UNL     1       8.543  28.512  56.647  1.00  0.00     0.081 A 
HETATM   17  C   UNL     1       8.402  28.962  55.337  1.00  0.00     0.038 A 
HETATM   18  C   UNL     1       7.168  28.837  54.699  1.00  0.00     0.011 A 
BRANCH  16  19
HETATM   19  O   UNL     1       9.738  28.690  57.359  1.00  0.00    -0.261 OA
BRANCH  19  20
HETATM   20  C   UNL     1      10.209  29.992  57.527  1.00  0.00     0.368 C 
HETATM   21  N   UNL     1       9.684  30.597  58.660  1.00  0.00    -0.324 N 
HETATM   22  C   UNL     1      10.233  31.880  59.092  1.00  0.00     0.154 C 
HETATM   23  C   UNL     1       8.947  29.858  59.685  1.00  0.00     0.154 C 
HETATM   24  C   UNL     1       9.195  32.700  59.862  1.00  0.00     0.187 C 
HETATM   25  O   UNL     1       8.628  31.938  60.939  1.00  0.00    -0.388 OA
HETATM   26  C   UNL     1       7.968  30.770  60.431  1.00  0.00     0.187 C 
HETATM   27  O   UNL     1      10.990  30.553  56.765  1.00  0.00    -0.238 OA
ENDBRANCH  19  20
ENDBRANCH  16  19
ENDBRANCH   7  13
BRANCH  11  28
HETATM   28  N   UNL     1       2.736  31.304  53.669  1.00  0.00    -0.282 NA
HETATM   29  H   UNL     1       1.919  31.291  53.063  1.00  0.00     0.126 HD
HETATM   30  H   UNL     1       2.522  31.598  54.619  1.00  0.00     0.126 HD
ENDBRANCH  11  28
BRANCH   1  31
HETATM   31  C   UNL     1       6.463  25.657  53.042  1.00  0.00    -0.005 A 
HETATM   32  C   UNL     1       7.568  25.139  52.352  1.00  0.00     0.014 A 
HETATM   33  C   UNL     1       8.267  24.034  52.844  1.00  0.00     0.008 A 
HETATM   34  C   UNL     1       7.876  23.424  54.041  1.00  0.00    -0.058 A 
HETATM   35  C   UNL     1       6.764  23.930  54.725  1.00  0.00     0.008 A 
HETATM   36  C   UNL     1       6.058  25.030  54.225  1.00  0.00     0.014 A 
BRANCH  34  37
HETATM   37  C   UNL     1       8.647  22.247  54.586  1.00  0.00     0.042 C 
BRANCH  37  38
HETATM   38  C   UNL     1       7.953  20.889  54.355  1.00  0.00    -0.019 C 
HETATM   39  C   UNL     1       8.287  19.874  55.451  1.00  0.00     0.010 C 
HETATM   40  C   UNL     1       8.365  20.326  52.992  1.00  0.00     0.010 C 
ENDBRANCH  37  38
ENDBRANCH  34  37
ENDBRANCH   1  31
TORSDOF 7
ENDMDL
MODEL 3
REMARK VINA RESULT:      -8.8      0.809      1.467
REMARK  7 active torsions:
REMARK  status: ('A' for Active; 'I' for Inactive)
REMARK    1  A    between atoms: C_2  and  C_3 
REMARK    2  A    between atoms: C_3  and  C_4 
REMARK    3  A    between atoms: C_7  and  C_8 
REMARK    4  A    between atoms: C_14  and  C_15 
REMARK    5  A    between atoms: C_18  and  O_19 
REMARK    6  A    between atoms: O_19  and  C_20 
REMARK       I    between atoms: C_20  and  N_21 
REMARK    7  A    between atoms: C_33  and  N_34 
ROOT
HETATM    1  C   UNL     1       9.425  30.745  58.540  1.00  0.00     0.099 A 
HETATM    2  N   UNL     1      10.633  31.039  58.016  1.00  0.00    -0.172 NA
HETATM    3  N   UNL     1      10.630  30.475  56.797  1.00  0.00    -0.256 N 
HETATM    4  H   UNL     1      11.458  30.557  56.218  1.00  0.00     0.191 HD
HETATM    5  C   UNL     1       9.462  29.855  56.508  1.00  0.00     0.175 A 
HETATM    6  C   UNL     1       8.648  30.003  57.603  1.00  0.00     0.040 A 
HETATM    7  C   UNL     1       7.275  29.419  57.574  1.00  0.00     0.106 A 
HETATM    8  C   UNL     1       7.032  28.667  56.263  1.00  0.00     0.081 A 
HETATM    9  C   UNL     1       5.797  27.963  56.148  1.00  0.00     0.100 C 
HETATM   10  N   UNL     1       4.798  27.382  56.053  1.00  0.00    -0.191 NA
HETATM   11  C   UNL     1       7.953  28.606  55.263  1.00  0.00     0.140 A 
HETATM   12  O   UNL     1       9.204  29.237  55.364  1.00  0.00    -0.279 OA
ENDROOT
BRANCH   7  13
HETATM   13  C   UNL     1       6.292  30.564  57.789  1.00  0.00    -0.044 A 
HETATM   14  C   UNL     1       5.815  30.928  59.063  1.00  0.00     0.011 A 
HETATM   15  C   UNL     1       4.922  31.993  59.214  1.00  0.00     0.038 A 
HETATM   16  C   UNL     1       4.528  32.721  58.095  1.00  0.00     0.081 A 
HETATM   17  C   UNL     1       4.988  32.387  56.825  1.00  0.00     0.038 A 
HETATM   18  C   UNL     1       5.877  31.322  56.677  1.00  0.00     0.011 A 
BRANCH  16  19
HETATM   19  O   UNL     1       3.570  33.728  58.287  1.00  0.00    -0.261 OA
BRANCH  19  20
HETATM   20  C   UNL     1       4.025  35.016  58.565  1.00  0.00     0.368 C 
HETATM   21  N   UNL     1       3.692  35.424  59.849  1.00  0.00    -0.324 N 
HETATM   22  C   UNL     1       4.271  36.661  60.368  1.00  0.00     0.154 C 
HETATM   23  C   UNL     1       3.171  34.507  60.863  1.00  0.00     0.154 C 
HETATM   24  C   UNL     1       3.363  37.304  61.418  1.00  0.00     0.187 C 
HETATM   25  O   UNL     1       3.019  36.366  62.450  1.00  0.00    -0.388 OA
HETATM   26  C   UNL     1       2.314  35.248  61.893  1.00  0.00     0.187 C 
HETATM   27  O   UNL     1       4.641  35.723  57.774  1.00  0.00    -0.238 OA
ENDBRANCH  19  20
ENDBRANCH  16  19
ENDBRANCH   7  13
BRANCH  11  28
HETATM   28  N   UNL     1       7.795  27.936  54.070  1.00  0.00    -0.282 NA
HETATM   29  H   UNL     1       8.649  27.772  53.542  1.00  0.00     0.126 HD
HETATM   30  H   UNL     1       7.224  27.101  54.172  1.00  0.00     0.126 HD
ENDBRANCH  11  28
BRANCH   1  31
HETATM   31  C   UNL     1       9.070  31.219  59.881  1.00  0.00    -0.005 A 
HETATM   32  C   UNL     1       8.669  32.550  60.061  1.00  0.00     0.014 A 
HETATM   33  C   UNL     1       8.309  33.026  61.324  1.00  0.00     0.008 A 
HETATM   34  C   UNL     1       8.341  32.178  62.435  1.00  0.00    -0.058 A 
HETATM   35  C   UNL     1       8.756  30.852  62.263  1.00  0.00     0.008 A 
HETATM   36  C   UNL     1       9.127  30.379  60.998  1.00  0.00     0.014 A 
BRANCH  34  37
HETATM   37  C   UNL     1       7.927  32.685  63.796  1.00  0.00     0.042 C 
BRANCH  37  38
HETATM   38  C   UNL     1       6.524  33.325  63.819  1.00  0.00    -0.019 C 
HETATM   39  C   UNL     1       6.173  33.900  65.193  1.00  0.00     0.010 C 
HETATM   40  C   UNL     1       5.476  32.284  63.416  1.00  0.00     0.010 C 
ENDBRANCH  37  38
ENDBRANCH  34  37
ENDBRANCH   1  31
TORSDOF 7
ENDMDL
MODEL 4
REMARK VINA RESULT:      -8.4      2.673      7.762
REMARK  7 active torsions:
REMARK  status: ('A' for Active; 'I' for Inactive)
REMARK    1  A    between atoms: C_2  and  C_3 
REMARK    2  A    between atoms: C_3  and  C_4 
REMARK    3  A    between atoms: C_7  and  C_8 
REMARK    4  A    between atoms: C_14  and  C_15 
REMARK    5  A    between atoms: C_18  and  O_19 
REMARK    6  A    between atoms: O_19  and  C_20 
REMARK       I    between atoms: C_20  and  N_21 
REMARK    7  A    between atoms: C_33  and  N_34 
ROOT
HETATM    1  C   UNL     1       6.134  32.158  61.634  1.00  0.00     0.099 A 
HETATM    2  N   UNL     1       6.138  31.533  62.831  1.00  0.00    -0.172 NA
HETATM    3  N   UNL     1       4.994  31.912  63.425  1.00  0.00    -0.256 N 
HETATM    4  H   UNL     1       4.790  31.569  64.357  1.00  0.00     0.191 HD
HETATM    5  C   UNL     1       4.247  32.732  62.650  1.00  0.00     0.175 A 
HETATM    6  C   UNL     1       4.939  32.920  61.480  1.00  0.00     0.040 A 
HETATM    7  C   UNL     1       4.351  33.786  60.417  1.00  0.00     0.106 A 
HETATM    8  C   UNL     1       3.021  34.388  60.879  1.00  0.00     0.081 A 
HETATM    9  C   UNL     1       2.405  35.328  60.003  1.00  0.00     0.100 C 
HETATM   10  N   UNL     1       1.903  36.099  59.296  1.00  0.00    -0.191 NA
HETATM   11  C   UNL     1       2.462  34.106  62.088  1.00  0.00     0.140 A 
HETATM   12  O   UNL     1       3.069  33.231  63.003  1.00  0.00    -0.279 OA
ENDROOT
BRANCH   7  13
HETATM   13  C   UNL     1       4.208  32.930  59.164  1.00  0.00    -0.044 A 
HETATM   14  C   UNL     1       4.778  33.289  57.928  1.00  0.00     0.011 A 
HETATM   15  C   UNL     1       4.629  32.467  56.807  1.00  0.00     0.038 A 
HETATM   16  C   UNL     1       3.938  31.264  56.925  1.00  0.00     0.081 A 
HETATM   17  C   UNL     1       3.369  30.883  58.136  1.00  0.00     0.038 A 
HETATM   18  C   UNL     1       3.517  31.706  59.252  1.00  0.00     0.011 A 
BRANCH  16  19
HETATM   19  O   UNL     1       3.747  30.513  55.756  1.00  0.00    -0.261 OA
BRANCH  19  20
HETATM   20  C   UNL     1       4.673  29.513  55.465  1.00  0.00     0.368 C 
HETATM   21  N   UNL     1       4.567  29.063  54.157  1.00  0.00    -0.324 N 
HETATM   22  C   UNL     1       5.595  28.168  53.633  1.00  0.00     0.154 C 
HETATM   23  C   UNL     1       3.765  29.751  53.144  1.00  0.00     0.154 C 
HETATM   24  C   UNL     1       5.041  27.269  52.525  1.00  0.00     0.187 C 
HETATM   25  O   UNL     1       4.396  28.046  51.503  1.00  0.00    -0.388 OA
HETATM   26  C   UNL     1       3.295  28.781  52.055  1.00  0.00     0.187 C 
HETATM   27  O   UNL     1       5.488  29.065  56.266  1.00  0.00    -0.238 OA
ENDBRANCH  19  20
ENDBRANCH  16  19
ENDBRANCH   7  13
BRANCH  11  28
HETATM   28  N   UNL     1       1.277  34.625  62.561  1.00  0.00    -0.282 NA
HETATM   29  H   UNL     1       1.149  35.624  62.419  1.00  0.00     0.126 HD
HETATM   30  H   UNL     1       0.474  34.075  62.269  1.00  0.00     0.126 HD
ENDBRANCH  11  28
BRANCH   1  31
HETATM   31  C   UNL     1       7.245  31.962  60.699  1.00  0.00    -0.005 A 
HETATM   32  C   UNL     1       7.050  31.192  59.544  1.00  0.00     0.014 A 
HETATM   33  C   UNL     1       8.086  31.001  58.626  1.00  0.00     0.008 A 
HETATM   34  C   UNL     1       9.340  31.580  58.844  1.00  0.00    -0.058 A 
HETATM   35  C   UNL     1       9.543  32.337  60.004  1.00  0.00     0.008 A 
HETATM   36  C   UNL     1       8.508  32.518  60.929  1.00  0.00     0.014 A 
BRANCH  34  37
HETATM   37  C   UNL     1      10.452  31.396  57.839  1.00  0.00     0.042 C 
BRANCH  37  38
HETATM   38  C   UNL     1      10.622  29.940  57.361  1.00  0.00    -0.019 C 
HETATM   39  C   UNL     1      12.086  29.494  57.375  1.00  0.00     0.010 C 
HETATM   40  C   UNL     1      10.054  29.793  55.947  1.00  0.00     0.010 C 
ENDBRANCH  37  38
ENDBRANCH  34  37
ENDBRANCH   1  31
TORSDOF 7
ENDMDL
MODEL 5
REMARK VINA RESULT:      -7.8      6.842     11.232
REMARK  7 active torsions:
REMARK  status: ('A' for Active; 'I' for Inactive)
REMARK    1  A    between atoms: C_2  and  C_3 
REMARK    2  A    between atoms: C_3  and  C_4 
REMARK    3  A    between atoms: C_7  and  C_8 
REMARK    4  A    between atoms: C_14  and  C_15 
REMARK    5  A    between atoms: C_18  and  O_19 
REMARK    6  A    between atoms: O_19  and  C_20 
REMARK       I    between atoms: C_20  and  N_21 
REMARK    7  A    between atoms: C_33  and  N_34 
ROOT
HETATM    1  C   UNL     1       4.633  28.277  54.834  1.00  0.00     0.099 A 
HETATM    2  N   UNL     1       3.986  28.132  56.010  1.00  0.00    -0.172 NA
HETATM    3  N   UNL     1       3.361  29.304  56.211  1.00  0.00    -0.256 N 
HETATM    4  H   UNL     1       2.816  29.429  57.057  1.00  0.00     0.191 HD
HETATM    5  C   UNL     1       3.559  30.184  55.202  1.00  0.00     0.175 A 
HETATM    6  C   UNL     1       4.373  29.566  54.285  1.00  0.00     0.040 A 
HETATM    7  C   UNL     1       4.764  30.302  53.047  1.00  0.00     0.106 A 
HETATM    8  C   UNL     1       4.190  31.722  53.054  1.00  0.00     0.081 A 
HETATM    9  C   UNL     1       4.580  32.575  51.980  1.00  0.00     0.100 C 
HETATM   10  N   UNL     1       4.901  33.276  51.113  1.00  0.00    -0.191 NA
HETATM   11  C   UNL     1       3.395  32.194  54.053  1.00  0.00     0.140 A 
HETATM   12  O   UNL     1       3.038  31.403  55.156  1.00  0.00    -0.279 OA
ENDROOT
BRANCH   7  13
HETATM   13  C   UNL     1       4.282  29.477  51.860  1.00  0.00    -0.044 A 
HETATM   14  C   UNL     1       5.158  28.746  51.035  1.00  0.00     0.011 A 
HETATM   15  C   UNL     1       4.670  27.994  49.963  1.00  0.00     0.038 A 
HETATM   16  C   UNL     1       3.298  27.940  49.731  1.00  0.00     0.081 A 
HETATM   17  C   UNL     1       2.409  28.649  50.533  1.00  0.00     0.038 A 
HETATM   18  C   UNL     1       2.899  29.400  51.601  1.00  0.00     0.011 A 
BRANCH  16  19
HETATM   19  O   UNL     1       2.863  27.238  48.597  1.00  0.00    -0.261 OA
BRANCH  19  20
HETATM   20  C   UNL     1       1.649  27.613  48.024  1.00  0.00     0.368 C 
HETATM   21  N   UNL     1       1.767  28.752  47.241  1.00  0.00    -0.324 N 
HETATM   22  C   UNL     1       0.637  29.156  46.408  1.00  0.00     0.154 C 
HETATM   23  C   UNL     1       3.059  29.319  46.855  1.00  0.00     0.154 C 
HETATM   24  C   UNL     1       0.636  30.666  46.163  1.00  0.00     0.187 C 
HETATM   25  O   UNL     1       1.902  31.109  45.649  1.00  0.00    -0.388 OA
HETATM   26  C   UNL     1       2.949  30.823  46.587  1.00  0.00     0.187 C 
HETATM   27  O   UNL     1       0.588  27.019  48.190  1.00  0.00    -0.238 OA
ENDBRANCH  19  20
ENDBRANCH  16  19
ENDBRANCH   7  13
BRANCH  11  28
HETATM   28  N   UNL     1       2.862  33.462  54.118  1.00  0.00    -0.282 NA
HETATM   29  H   UNL     1       1.973  33.540  54.608  1.00  0.00     0.126 HD
HETATM   30  H   UNL     1       3.545  34.150  54.422  1.00  0.00     0.126 HD
ENDBRANCH  11  28
BRANCH   1  31
HETATM   31  C   UNL     1       5.424  27.171  54.289  1.00  0.00    -0.005 A 
HETATM   32  C   UNL     1       6.815  27.167  54.455  1.00  0.00     0.014 A 
HETATM   33  C   UNL     1       7.594  26.118  53.961  1.00  0.00     0.008 A 
HETATM   34  C   UNL     1       6.995  25.047  53.289  1.00  0.00    -0.058 A 
HETATM   35  C   UNL     1       5.606  25.054  53.108  1.00  0.00     0.008 A 
HETATM   36  C   UNL     1       4.829  26.112  53.594  1.00  0.00     0.014 A 
BRANCH  34  37
HETATM   37  C   UNL     1       7.833  23.900  52.778  1.00  0.00     0.042 C 
BRANCH  37  38
HETATM   38  C   UNL     1       7.801  22.655  53.687  1.00  0.00    -0.019 C 
HETATM   39  C   UNL     1       8.881  22.702  54.771  1.00  0.00     0.010 C 
HETATM   40  C   UNL     1       7.981  21.393  52.838  1.00  0.00     0.010 C 
ENDBRANCH  37  38
ENDBRANCH  34  37
ENDBRANCH   1  31
TORSDOF 7
ENDMDL
MODEL 6
REMARK VINA RESULT:      -7.8      2.204      3.232
REMARK  7 active torsions:
REMARK  status: ('A' for Active; 'I' for Inactive)
REMARK    1  A    between atoms: C_2  and  C_3 
REMARK    2  A    between atoms: C_3  and  C_4 
REMARK    3  A    between atoms: C_7  and  C_8 
REMARK    4  A    between atoms: C_14  and  C_15 
REMARK    5  A    between atoms: C_18  and  O_19 
REMARK    6  A    between atoms: O_19  and  C_20 
REMARK       I    between atoms: C_20  and  N_21 
REMARK    7  A    between atoms: C_33  and  N_34 
ROOT
HETATM    1  C   UNL     1       8.784  31.810  59.729  1.00  0.00     0.099 A 
HETATM    2  N   UNL     1      10.029  32.186  59.367  1.00  0.00    -0.172 NA
HETATM    3  N   UNL     1      10.268  31.536  58.216  1.00  0.00    -0.256 N 
HETATM    4  H   UNL     1      11.166  31.660  57.762  1.00  0.00     0.191 HD
HETATM    5  C   UNL     1       9.220  30.782  57.812  1.00  0.00     0.175 A 
HETATM    6  C   UNL     1       8.234  30.926  58.756  1.00  0.00     0.040 A 
HETATM    7  C   UNL     1       6.940  30.205  58.574  1.00  0.00     0.106 A 
HETATM    8  C   UNL     1       6.974  29.338  57.312  1.00  0.00     0.081 A 
HETATM    9  C   UNL     1       5.841  28.505  57.077  1.00  0.00     0.100 C 
HETATM   10  N   UNL     1       4.925  27.820  56.886  1.00  0.00    -0.191 NA
HETATM   11  C   UNL     1       8.044  29.297  56.471  1.00  0.00     0.140 A 
HETATM   12  O   UNL     1       9.201  30.058  56.701  1.00  0.00    -0.279 OA
ENDROOT
BRANCH   7  13
HETATM   13  C   UNL     1       5.838  31.256  58.537  1.00  0.00    -0.044 A 
HETATM   14  C   UNL     1       4.838  31.345  59.524  1.00  0.00     0.011 A 
HETATM   15  C   UNL     1       3.852  32.333  59.457  1.00  0.00     0.038 A 
HETATM   16  C   UNL     1       3.880  33.260  58.419  1.00  0.00     0.081 A 
HETATM   17  C   UNL     1       4.860  33.199  57.432  1.00  0.00     0.038 A 
HETATM   18  C   UNL     1       5.841  32.211  57.501  1.00  0.00     0.011 A 
BRANCH  16  19
HETATM   19  O   UNL     1       2.825  34.182  58.349  1.00  0.00    -0.261 OA
BRANCH  19  20
HETATM   20  C   UNL     1       3.146  35.537  58.303  1.00  0.00     0.368 C 
HETATM   21  N   UNL     1       2.498  36.196  57.269  1.00  0.00    -0.324 N 
HETATM   22  C   UNL     1       2.563  37.654  57.210  1.00  0.00     0.154 C 
HETATM   23  C   UNL     1       1.409  35.590  56.501  1.00  0.00     0.154 C 
HETATM   24  C   UNL     1       2.422  38.162  55.773  1.00  0.00     0.187 C 
HETATM   25  O   UNL     1       1.246  37.624  55.147  1.00  0.00    -0.388 OA
HETATM   26  C   UNL     1       1.318  36.192  55.095  1.00  0.00     0.187 C 
HETATM   27  O   UNL     1       3.917  36.096  59.077  1.00  0.00    -0.238 OA
ENDBRANCH  19  20
ENDBRANCH  16  19
ENDBRANCH   7  13
BRANCH  11  28
HETATM   28  N   UNL     1       8.135  28.529  55.331  1.00  0.00    -0.282 NA
HETATM   29  H   UNL     1       8.620  28.961  54.548  1.00  0.00     0.126 HD
HETATM   30  H   UNL     1       8.461  27.586  55.529  1.00  0.00     0.126 HD
ENDBRANCH  11  28
BRANCH   1  31
HETATM   31  C   UNL     1       8.183  32.343  60.954  1.00  0.00    -0.005 A 
HETATM   32  C   UNL     1       8.616  31.870  62.201  1.00  0.00     0.014 A 
HETATM   33  C   UNL     1       8.073  32.371  63.387  1.00  0.00     0.008 A 
HETATM   34  C   UNL     1       7.084  33.359  63.350  1.00  0.00    -0.058 A 
HETATM   35  C   UNL     1       6.637  33.823  62.106  1.00  0.00     0.008 A 
HETATM   36  C   UNL     1       7.175  33.312  60.919  1.00  0.00     0.014 A 
BRANCH  34  37
HETATM   37  C   UNL     1       6.516  33.920  64.631  1.00  0.00     0.042 C 
BRANCH  37  38
HETATM   38  C   UNL     1       5.108  34.529  64.472  1.00  0.00    -0.019 C 
HETATM   39  C   UNL     1       5.136  36.059  64.475  1.00  0.00     0.010 C 
HETATM   40  C   UNL     1       4.201  34.030  65.600  1.00  0.00     0.010 C 
ENDBRANCH  37  38
ENDBRANCH  34  37
ENDBRANCH   1  31
TORSDOF 7
ENDMDL
MODEL 7
REMARK VINA RESULT:      -7.8      1.640      2.256
REMARK  7 active torsions:
REMARK  status: ('A' for Active; 'I' for Inactive)
REMARK    1  A    between atoms: C_2  and  C_3 
REMARK    2  A    between atoms: C_3  and  C_4 
REMARK    3  A    between atoms: C_7  and  C_8 
REMARK    4  A    between atoms: C_14  and  C_15 
REMARK    5  A    between atoms: C_18  and  O_19 
REMARK    6  A    between atoms: O_19  and  C_20 
REMARK       I    between atoms: C_20  and  N_21 
REMARK    7  A    between atoms: C_33  and  N_34 
ROOT
HETATM    1  C   UNL     1       8.529  31.943  59.843  1.00  0.00     0.099 A 
HETATM    2  N   UNL     1       9.803  32.313  59.597  1.00  0.00    -0.172 NA
HETATM    3  N   UNL     1      10.160  31.626  58.499  1.00  0.00    -0.256 N 
HETATM    4  H   UNL     1      11.099  31.739  58.135  1.00  0.00     0.191 HD
HETATM    5  C   UNL     1       9.159  30.853  58.017  1.00  0.00     0.175 A 
HETATM    6  C   UNL     1       8.082  31.024  58.850  1.00  0.00     0.040 A 
HETATM    7  C   UNL     1       6.815  30.290  58.562  1.00  0.00     0.106 A 
HETATM    8  C   UNL     1       6.979  29.381  57.340  1.00  0.00     0.081 A 
HETATM    9  C   UNL     1       5.877  28.535  57.020  1.00  0.00     0.100 C 
HETATM   10  N   UNL     1       4.986  27.839  56.760  1.00  0.00    -0.191 NA
HETATM   11  C   UNL     1       8.128  29.317  56.614  1.00  0.00     0.140 A 
HETATM   12  O   UNL     1       9.255  30.091  56.935  1.00  0.00    -0.279 OA
ENDROOT
BRANCH   7  13
HETATM   13  C   UNL     1       5.720  31.334  58.378  1.00  0.00    -0.044 A 
HETATM   14  C   UNL     1       5.808  32.371  57.429  1.00  0.00     0.011 A 
HETATM   15  C   UNL     1       4.775  33.300  57.287  1.00  0.00     0.038 A 
HETATM   16  C   UNL     1       3.630  33.178  58.071  1.00  0.00     0.081 A 
HETATM   17  C   UNL     1       3.514  32.160  59.012  1.00  0.00     0.038 A 
HETATM   18  C   UNL     1       4.548  31.235  59.153  1.00  0.00     0.011 A 
BRANCH  16  19
HETATM   19  O   UNL     1       2.656  34.180  57.949  1.00  0.00    -0.261 OA
BRANCH  19  20
HETATM   20  C   UNL     1       2.335  34.919  59.087  1.00  0.00     0.368 C 
HETATM   21  N   UNL     1       2.917  36.178  59.076  1.00  0.00    -0.324 N 
HETATM   22  C   UNL     1       2.516  37.149  60.090  1.00  0.00     0.154 C 
HETATM   23  C   UNL     1       3.559  36.746  57.890  1.00  0.00     0.154 C 
HETATM   24  C   UNL     1       3.634  38.153  60.376  1.00  0.00     0.187 C 
HETATM   25  O   UNL     1       4.103  38.765  59.164  1.00  0.00    -0.388 OA
HETATM   26  C   UNL     1       4.630  37.771  58.274  1.00  0.00     0.187 C 
HETATM   27  O   UNL     1       1.628  34.513  60.004  1.00  0.00    -0.238 OA
ENDBRANCH  19  20
ENDBRANCH  16  19
ENDBRANCH   7  13
BRANCH  11  28
HETATM   28  N   UNL     1       8.336  28.511  55.517  1.00  0.00    -0.282 NA
HETATM   29  H   UNL     1       8.898  28.919  54.773  1.00  0.00     0.126 HD
HETATM   30  H   UNL     1       8.642  27.577  55.779  1.00  0.00     0.126 HD
ENDBRANCH  11  28
BRANCH   1  31
HETATM   31  C   UNL     1       7.804  32.514  60.982  1.00  0.00    -0.005 A 
HETATM   32  C   UNL     1       8.281  32.300  62.283  1.00  0.00     0.014 A 
HETATM   33  C   UNL     1       7.621  32.845  63.387  1.00  0.00     0.008 A 
HETATM   34  C   UNL     1       6.469  33.619  63.212  1.00  0.00    -0.058 A 
HETATM   35  C   UNL     1       5.982  33.823  61.915  1.00  0.00     0.008 A 
HETATM   36  C   UNL     1       6.638  33.266  60.811  1.00  0.00     0.014 A 
BRANCH  34  37
HETATM   37  C   UNL     1       5.771  34.231  64.402  1.00  0.00     0.042 C 
BRANCH  37  38
HETATM   38  C   UNL     1       4.896  35.450  64.050  1.00  0.00    -0.019 C 
HETATM   39  C   UNL     1       5.732  36.693  63.736  1.00  0.00     0.010 C 
HETATM   40  C   UNL     1       3.943  35.753  65.210  1.00  0.00     0.010 C 
ENDBRANCH  37  38
ENDBRANCH  34  37
ENDBRANCH   1  31
TORSDOF 7
ENDMDL
MODEL 8
REMARK VINA RESULT:      -7.8      5.179      9.489
REMARK  7 active torsions:
REMARK  status: ('A' for Active; 'I' for Inactive)
REMARK    1  A    between atoms: C_2  and  C_3 
REMARK    2  A    between atoms: C_3  and  C_4 
REMARK    3  A    between atoms: C_7  and  C_8 
REMARK    4  A    between atoms: C_14  and  C_15 
REMARK    5  A    between atoms: C_18  and  O_19 
REMARK    6  A    between atoms: O_19  and  C_20 
REMARK       I    between atoms: C_20  and  N_21 
REMARK    7  A    between atoms: C_33  and  N_34 
ROOT
HETATM    1  C   UNL     1       5.690  30.771  56.909  1.00  0.00     0.099 A 
HETATM    2  N   UNL     1       6.626  31.499  57.555  1.00  0.00    -0.172 NA
HETATM    3  N   UNL     1       7.462  30.594  58.091  1.00  0.00    -0.256 N 
HETATM    4  H   UNL     1       8.247  30.920  58.643  1.00  0.00     0.191 HD
HETATM    5  C   UNL     1       7.116  29.320  57.794  1.00  0.00     0.175 A 
HETATM    6  C   UNL     1       5.978  29.381  57.029  1.00  0.00     0.040 A 
HETATM    7  C   UNL     1       5.359  28.113  56.543  1.00  0.00     0.106 A 
HETATM    8  C   UNL     1       6.128  26.896  57.066  1.00  0.00     0.081 A 
HETATM    9  C   UNL     1       5.578  25.615  56.769  1.00  0.00     0.100 C 
HETATM   10  N   UNL     1       5.130  24.571  56.537  1.00  0.00    -0.191 NA
HETATM   11  C   UNL     1       7.250  27.003  57.829  1.00  0.00     0.140 A 
HETATM   12  O   UNL     1       7.788  28.248  58.192  1.00  0.00    -0.279 OA
ENDROOT
BRANCH   7  13
HETATM   13  C   UNL     1       5.326  28.181  55.020  1.00  0.00    -0.044 A 
HETATM   14  C   UNL     1       4.132  28.338  54.291  1.00  0.00     0.011 A 
HETATM   15  C   UNL     1       4.151  28.407  52.895  1.00  0.00     0.038 A 
HETATM   16  C   UNL     1       5.368  28.352  52.222  1.00  0.00     0.081 A 
HETATM   17  C   UNL     1       6.564  28.201  52.918  1.00  0.00     0.038 A 
HETATM   18  C   UNL     1       6.542  28.131  54.311  1.00  0.00     0.011 A 
BRANCH  16  19
HETATM   19  O   UNL     1       5.330  28.344  50.820  1.00  0.00    -0.261 OA
BRANCH  19  20
HETATM   20  C   UNL     1       4.943  27.165  50.186  1.00  0.00     0.368 C 
HETATM   21  N   UNL     1       4.084  27.399  49.122  1.00  0.00    -0.324 N 
HETATM   22  C   UNL     1       3.751  26.293  48.227  1.00  0.00     0.154 C 
HETATM   23  C   UNL     1       3.842  28.735  48.577  1.00  0.00     0.154 C 
HETATM   24  C   UNL     1       2.378  26.491  47.582  1.00  0.00     0.187 C 
HETATM   25  O   UNL     1       2.284  27.776  46.948  1.00  0.00    -0.388 OA
HETATM   26  C   UNL     1       2.464  28.823  47.912  1.00  0.00     0.187 C 
HETATM   27  O   UNL     1       5.304  26.042  50.523  1.00  0.00    -0.238 OA
ENDBRANCH  19  20
ENDBRANCH  16  19
ENDBRANCH   7  13
BRANCH  11  28
HETATM   28  N   UNL     1       7.974  25.947  58.336  1.00  0.00    -0.282 NA
HETATM   29  H   UNL     1       8.139  25.178  57.691  1.00  0.00     0.126 HD
HETATM   30  H   UNL     1       8.819  26.254  58.812  1.00  0.00     0.126 HD
ENDBRANCH  11  28
BRANCH   1  31
HETATM   31  C   UNL     1       4.606  31.443  56.187  1.00  0.00    -0.005 A 
HETATM   32  C   UNL     1       3.274  31.134  56.496  1.00  0.00     0.014 A 
HETATM   33  C   UNL     1       2.219  31.770  55.836  1.00  0.00     0.008 A 
HETATM   34  C   UNL     1       2.476  32.732  54.854  1.00  0.00    -0.058 A 
HETATM   35  C   UNL     1       3.805  33.032  54.532  1.00  0.00     0.008 A 
HETATM   36  C   UNL     1       4.860  32.386  55.186  1.00  0.00     0.014 A 
BRANCH  34  37
HETATM   37  C   UNL     1       1.336  33.438  54.160  1.00  0.00     0.042 C 
BRANCH  37  38
HETATM   38  C   UNL     1       0.148  33.760  55.088  1.00  0.00    -0.019 C 
HETATM   39  C   UNL     1      -1.169  33.183  54.565  1.00  0.00     0.010 C 
HETATM   40  C   UNL     1       0.016  35.278  55.247  1.00  0.00     0.010 C 
ENDBRANCH  37  38
ENDBRANCH  34  37
ENDBRANCH   1  31
TORSDOF 7
ENDMDL
MODEL 9
REMARK VINA RESULT:      -7.6      8.421     11.819
REMARK  7 active torsions:
REMARK  status: ('A' for Active; 'I' for Inactive)
REMARK    1  A    between atoms: C_2  and  C_3 
REMARK    2  A    between atoms: C_3  and  C_4 
REMARK    3  A    between atoms: C_7  and  C_8 
REMARK    4  A    between atoms: C_14  and  C_15 
REMARK    5  A    between atoms: C_18  and  O_19 
REMARK    6  A    between atoms: O_19  and  C_20 
REMARK       I    between atoms: C_20  and  N_21 
REMARK    7  A    between atoms: C_33  and  N_34 
ROOT
HETATM    1  C   UNL     1       4.370  28.086  50.506  1.00  0.00     0.099 A 
HETATM    2  N   UNL     1       5.382  27.237  50.785  1.00  0.00    -0.172 NA
HETATM    3  N   UNL     1       5.295  26.275  49.851  1.00  0.00    -0.256 N 
HETATM    4  H   UNL     1       5.959  25.509  49.875  1.00  0.00     0.191 HD
HETATM    5  C   UNL     1       4.288  26.486  48.973  1.00  0.00     0.175 A 
HETATM    6  C   UNL     1       3.660  27.646  49.352  1.00  0.00     0.040 A 
HETATM    7  C   UNL     1       2.499  28.140  48.556  1.00  0.00     0.106 A 
HETATM    8  C   UNL     1       2.166  27.168  47.420  1.00  0.00     0.081 A 
HETATM    9  C   UNL     1       1.004  27.460  46.647  1.00  0.00     0.100 C 
HETATM   10  N   UNL     1       0.055  27.690  46.021  1.00  0.00    -0.191 NA
HETATM   11  C   UNL     1       2.889  26.041  47.174  1.00  0.00     0.140 A 
HETATM   12  O   UNL     1       4.004  25.688  47.951  1.00  0.00    -0.279 OA
ENDROOT
BRANCH   7  13
HETATM   13  C   UNL     1       2.854  29.534  48.054  1.00  0.00    -0.044 A 
HETATM   14  C   UNL     1       3.966  29.785  47.227  1.00  0.00     0.011 A 
HETATM   15  C   UNL     1       4.247  31.079  46.782  1.00  0.00     0.038 A 
HETATM   16  C   UNL     1       3.399  32.126  47.134  1.00  0.00     0.081 A 
HETATM   17  C   UNL     1       2.291  31.906  47.946  1.00  0.00     0.038 A 
HETATM   18  C   UNL     1       2.014  30.613  48.391  1.00  0.00     0.011 A 
BRANCH  16  19
HETATM   19  O   UNL     1       3.768  33.418  46.730  1.00  0.00    -0.261 OA
BRANCH  19  20
HETATM   20  C   UNL     1       4.827  34.032  47.396  1.00  0.00     0.368 C 
HETATM   21  N   UNL     1       5.889  34.310  46.548  1.00  0.00    -0.324 N 
HETATM   22  C   UNL     1       6.989  35.135  47.042  1.00  0.00     0.154 C 
HETATM   23  C   UNL     1       5.789  34.214  45.092  1.00  0.00     0.154 C 
HETATM   24  C   UNL     1       8.299  34.810  46.322  1.00  0.00     0.187 C 
HETATM   25  O   UNL     1       8.137  34.881  44.896  1.00  0.00    -0.388 OA
HETATM   26  C   UNL     1       7.154  33.933  44.457  1.00  0.00     0.187 C 
HETATM   27  O   UNL     1       4.837  34.294  48.594  1.00  0.00    -0.238 OA
ENDBRANCH  19  20
ENDBRANCH  16  19
ENDBRANCH   7  13
BRANCH  11  28
HETATM   28  N   UNL     1       2.629  25.127  46.177  1.00  0.00    -0.282 NA
HETATM   29  H   UNL     1       2.004  24.366  46.432  1.00  0.00     0.126 HD
HETATM   30  H   UNL     1       2.374  25.576  45.302  1.00  0.00     0.126 HD
ENDBRANCH  11  28
BRANCH   1  31
HETATM   31  C   UNL     1       4.166  29.280  51.330  1.00  0.00    -0.005 A 
HETATM   32  C   UNL     1       3.518  29.165  52.568  1.00  0.00     0.014 A 
HETATM   33  C   UNL     1       3.323  30.283  53.383  1.00  0.00     0.008 A 
HETATM   34  C   UNL     1       3.776  31.542  52.977  1.00  0.00    -0.058 A 
HETATM   35  C   UNL     1       4.410  31.665  51.735  1.00  0.00     0.008 A 
HETATM   36  C   UNL     1       4.594  30.545  50.914  1.00  0.00     0.014 A 
BRANCH  34  37
HETATM   37  C   UNL     1       3.589  32.746  53.869  1.00  0.00     0.042 C 
BRANCH  37  38
HETATM   38  C   UNL     1       2.600  32.512  55.028  1.00  0.00    -0.019 C 
HETATM   39  C   UNL     1       1.212  33.082  54.729  1.00  0.00     0.010 C 
HETATM   40  C   UNL     1       3.149  33.146  56.310  1.00  0.00     0.010 C 
ENDBRANCH  37  38
ENDBRANCH  34  37
ENDBRANCH   1  31
TORSDOF 7
ENDMDL
MODEL 10
REMARK VINA RESULT:      -7.4      2.800      5.530
REMARK  7 active torsions:
REMARK  status: ('A' for Active; 'I' for Inactive)
REMARK    1  A    between atoms: C_2  and  C_3 
REMARK    2  A    between atoms: C_3  and  C_4 
REMARK    3  A    between atoms: C_7  and  C_8 
REMARK    4  A    between atoms: C_14  and  C_15 
REMARK    5  A    between atoms: C_18  and  O_19 
REMARK    6  A    between atoms: O_19  and  C_20 
REMARK       I    between atoms: C_20  and  N_21 
REMARK    7  A    between atoms: C_33  and  N_34 
ROOT
HETATM    1  C   UNL     1       4.083  32.162  54.792  1.00  0.00     0.099 A 
HETATM    2  N   UNL     1       3.162  31.920  53.836  1.00  0.00    -0.172 NA
HETATM    3  N   UNL     1       3.083  30.581  53.759  1.00  0.00    -0.256 N 
HETATM    4  H   UNL     1       2.451  30.167  53.083  1.00  0.00     0.191 HD
HETATM    5  C   UNL     1       3.896  29.957  54.642  1.00  0.00     0.175 A 
HETATM    6  C   UNL     1       4.563  30.936  55.336  1.00  0.00     0.040 A 
HETATM    7  C   UNL     1       5.538  30.542  56.395  1.00  0.00     0.106 A 
HETATM    8  C   UNL     1       5.662  29.018  56.481  1.00  0.00     0.081 A 
HETATM    9  C   UNL     1       6.645  28.505  57.376  1.00  0.00     0.100 C 
HETATM   10  N   UNL     1       7.450  28.083  58.098  1.00  0.00    -0.191 NA
HETATM   11  C   UNL     1       4.926  28.171  55.709  1.00  0.00     0.140 A 
HETATM   12  O   UNL     1       3.991  28.640  54.774  1.00  0.00    -0.279 OA
ENDROOT
BRANCH   7  13
HETATM   13  C   UNL     1       5.065  31.170  57.700  1.00  0.00    -0.044 A 
HETATM   14  C   UNL     1       3.796  30.912  58.253  1.00  0.00     0.011 A 
HETATM   15  C   UNL     1       3.409  31.502  59.459  1.00  0.00     0.038 A 
HETATM   16  C   UNL     1       4.302  32.328  60.137  1.00  0.00     0.081 A 
HETATM   17  C   UNL     1       5.564  32.596  59.616  1.00  0.00     0.038 A 
HETATM   18  C   UNL     1       5.947  32.007  58.411  1.00  0.00     0.011 A 
BRANCH  16  19
HETATM   19  O   UNL     1       3.840  32.960  61.301  1.00  0.00    -0.261 OA
BRANCH  19  20
HETATM   20  C   UNL     1       4.395  32.571  62.519  1.00  0.00     0.368 C 
HETATM   21  N   UNL     1       4.599  33.647  63.370  1.00  0.00    -0.324 N 
HETATM   22  C   UNL     1       4.979  33.387  64.756  1.00  0.00     0.154 C 
HETATM   23  C   UNL     1       4.046  34.977  63.115  1.00  0.00     0.154 C 
HETATM   24  C   UNL     1       5.786  34.548  65.341  1.00  0.00     0.187 C 
HETATM   25  O   UNL     1       5.096  35.796  65.170  1.00  0.00    -0.388 OA
HETATM   26  C   UNL     1       4.893  36.068  63.776  1.00  0.00     0.187 C 
HETATM   27  O   UNL     1       4.683  31.415  62.814  1.00  0.00    -0.238 OA
ENDBRANCH  19  20
ENDBRANCH  16  19
ENDBRANCH   7  13
BRANCH  11  28
HETATM   28  N   UNL     1       5.004  26.796  55.735  1.00  0.00    -0.282 NA
HETATM   29  H   UNL     1       4.984  26.373  56.660  1.00  0.00     0.126 HD
HETATM   30  H   UNL     1       4.352  26.363  55.085  1.00  0.00     0.126 HD
ENDBRANCH  11  28
BRANCH   1  31
HETATM   31  C   UNL     1       4.422  33.541  55.154  1.00  0.00    -0.005 A 
HETATM   32  C   UNL     1       3.800  34.139  56.259  1.00  0.00     0.014 A 
HETATM   33  C   UNL     1       4.115  35.446  56.639  1.00  0.00     0.008 A 
HETATM   34  C   UNL     1       5.062  36.183  55.920  1.00  0.00    -0.058 A 
HETATM   35  C   UNL     1       5.674  35.595  54.807  1.00  0.00     0.008 A 
HETATM   36  C   UNL     1       5.349  34.289  54.421  1.00  0.00     0.014 A 
BRANCH  34  37
HETATM   37  C   UNL     1       5.421  37.586  56.346  1.00  0.00     0.042 C 
BRANCH  37  38
HETATM   38  C   UNL     1       4.447  38.191  57.377  1.00  0.00    -0.019 C 
HETATM   39  C   UNL     1       3.672  39.384  56.810  1.00  0.00     0.010 C 
HETATM   40  C   UNL     1       5.222  38.629  58.623  1.00  0.00     0.010 C 
ENDBRANCH  37  38
ENDBRANCH  34  37
ENDBRANCH   1  31
TORSDOF 7
ENDMDL
