MODEL 1
REMARK VINA RESULT:     -10.3      0.000      0.000
REMARK  6 active torsions:
REMARK  status: ('A' for Active; 'I' for Inactive)
REMARK    1  A    between atoms: C_5  and  N_6 
REMARK    2  A    between atoms: C_8  and  C_9 
REMARK    3  A    between atoms: C_11  and  O_12 
REMARK    4  A    between atoms: C_17  and  C_18 
REMARK       I    between atoms: C_18  and  N_19 
REMARK    5  A    between atoms: N_19  and  N_20 
REMARK       I    between atoms: N_20  and  C_21 
REMARK    6  A    between atoms: C_21  and  C_22 
ROOT
HETATM    1  N   UNL     1       7.475  27.449  55.709  1.00  0.00    -0.244 N 
HETATM    2  N   UNL     1       7.933  26.182  55.707  1.00  0.00    -0.166 NA
HETATM    3  C   UNL     1       7.213  25.522  54.785  1.00  0.00     0.105 A 
HETATM    4  C   UNL     1       6.243  26.386  54.185  1.00  0.00     0.082 A 
HETATM    5  C   UNL     1       6.447  27.605  54.813  1.00  0.00     0.138 A 
ENDROOT
BRANCH   4   6
HETATM    6  C   UNL     1       5.231  26.104  53.176  1.00  0.00     0.274 C 
HETATM    7  N   UNL     1       5.471  26.678  51.940  1.00  0.00    -0.263 N 
HETATM    8  H   UNL     1       6.365  27.095  51.696  1.00  0.00     0.190 HD
HETATM    9  O   UNL     1       4.240  25.403  53.373  1.00  0.00    -0.266 OA
BRANCH   7  10
HETATM   10  N   UNL     1       4.658  26.317  50.856  1.00  0.00    -0.262 N 
HETATM   11  C   UNL     1       4.238  27.313  49.998  1.00  0.00     0.286 C 
HETATM   12  O   UNL     1       4.498  28.497  50.216  1.00  0.00    -0.264 OA
HETATM   13  H   UNL     1       4.548  25.325  50.667  1.00  0.00     0.190 HD
BRANCH  11  14
HETATM   14  C   UNL     1       3.492  26.878  48.840  1.00  0.00     0.102 A 
HETATM   15  N   UNL     1       2.141  27.134  48.723  1.00  0.00    -0.361 N 
HETATM   16  H   UNL     1       1.600  27.629  49.422  1.00  0.00     0.165 HD
HETATM   17  C   UNL     1       1.661  26.626  47.547  1.00  0.00     0.088 A 
HETATM   18  C   UNL     1       2.710  26.032  46.885  1.00  0.00     0.019 A 
HETATM   19  C   UNL     1       3.862  26.188  47.697  1.00  0.00     0.036 A 
ENDBRANCH  11  14
ENDBRANCH   7  10
ENDBRANCH   4   6
BRANCH   3  20
HETATM   20  C   UNL     1       7.512  24.103  54.539  1.00  0.00    -0.002 A 
HETATM   21  C   UNL     1       7.514  23.159  55.575  1.00  0.00     0.050 A 
HETATM   22  C   UNL     1       7.799  21.815  55.313  1.00  0.00     0.069 A 
HETATM   23  C   UNL     1       8.022  21.397  54.001  1.00  0.00     0.037 A 
HETATM   24  C   UNL     1       8.002  22.319  52.958  1.00  0.00     0.004 A 
HETATM   25  C   UNL     1       7.754  23.665  53.227  1.00  0.00     0.014 A 
BRANCH  22  26
HETATM   26  O   UNL     1       7.850  20.824  56.256  1.00  0.00    -0.356 OA
HETATM   27  C   UNL     1       9.127  20.220  56.439  1.00  0.00     0.210 C 
ENDBRANCH  22  26
ENDBRANCH   3  20
BRANCH   1  28
HETATM   28  C   UNL     1       8.047  28.434  56.565  1.00  0.00     0.058 A 
HETATM   29  C   UNL     1       9.243  29.062  56.188  1.00  0.00     0.032 A 
HETATM   30  C   UNL     1       9.817  30.040  57.006  1.00  0.00     0.009 A 
HETATM   31  C   UNL     1       9.211  30.399  58.215  1.00  0.00    -0.062 A 
HETATM   32  C   UNL     1       9.801  31.472  59.080  1.00  0.00     0.048 C 
HETATM   33  C   UNL     1       8.014  29.777  58.585  1.00  0.00     0.009 A 
HETATM   34  C   UNL     1       7.434  28.798  57.771  1.00  0.00     0.032 A 
ENDBRANCH   1  28
TORSDOF 6
ENDMDL
MODEL 2
REMARK VINA RESULT:      -9.9      2.158      8.112
REMARK  6 active torsions:
REMARK  status: ('A' for Active; 'I' for Inactive)
REMARK    1  A    between atoms: C_5  and  N_6 
REMARK    2  A    between atoms: C_8  and  C_9 
REMARK    3  A    between atoms: C_11  and  O_12 
REMARK    4  A    between atoms: C_17  and  C_18 
REMARK       I    between atoms: C_18  and  N_19 
REMARK    5  A    between atoms: N_19  and  N_20 
REMARK       I    between atoms: N_20  and  C_21 
REMARK    6  A    between atoms: C_21  and  C_22 
ROOT
HETATM    1  N   UNL     1       5.104  26.978  51.168  1.00  0.00    -0.244 N 
HETATM    2  N   UNL     1       5.614  25.804  51.589  1.00  0.00    -0.166 NA
HETATM    3  C   UNL     1       6.406  26.090  52.635  1.00  0.00     0.105 A 
HETATM    4  C   UNL     1       6.426  27.499  52.887  1.00  0.00     0.082 A 
HETATM    5  C   UNL     1       5.582  28.023  51.920  1.00  0.00     0.138 A 
ENDROOT
BRANCH   4   6
HETATM    6  C   UNL     1       7.163  28.265  53.883  1.00  0.00     0.274 C 
HETATM    7  N   UNL     1       6.381  29.091  54.671  1.00  0.00    -0.263 N 
HETATM    8  H   UNL     1       5.367  29.027  54.691  1.00  0.00     0.190 HD
HETATM    9  O   UNL     1       8.380  28.193  54.043  1.00  0.00    -0.266 OA
BRANCH   7  10
HETATM   10  N   UNL     1       6.968  29.727  55.776  1.00  0.00    -0.262 N 
HETATM   11  C   UNL     1       6.577  29.329  57.038  1.00  0.00     0.286 C 
HETATM   12  O   UNL     1       5.681  28.499  57.198  1.00  0.00    -0.264 OA
HETATM   13  H   UNL     1       7.761  30.335  55.595  1.00  0.00     0.190 HD
BRANCH  11  14
HETATM   14  C   UNL     1       7.284  29.938  58.141  1.00  0.00     0.102 A 
HETATM   15  N   UNL     1       6.664  30.845  58.974  1.00  0.00    -0.361 N 
HETATM   16  H   UNL     1       5.698  31.136  58.870  1.00  0.00     0.165 HD
HETATM   17  C   UNL     1       7.533  31.279  59.936  1.00  0.00     0.088 A 
HETATM   18  C   UNL     1       8.737  30.648  59.732  1.00  0.00     0.019 A 
HETATM   19  C   UNL     1       8.584  29.805  58.602  1.00  0.00     0.036 A 
ENDBRANCH  11  14
ENDBRANCH   7  10
ENDBRANCH   4   6
BRANCH   3  20
HETATM   20  C   UNL     1       7.088  24.987  53.327  1.00  0.00    -0.002 A 
HETATM   21  C   UNL     1       7.115  24.896  54.726  1.00  0.00     0.050 A 
HETATM   22  C   UNL     1       7.768  23.834  55.358  1.00  0.00     0.069 A 
HETATM   23  C   UNL     1       8.345  22.821  54.592  1.00  0.00     0.037 A 
HETATM   24  C   UNL     1       8.309  22.884  53.202  1.00  0.00     0.004 A 
HETATM   25  C   UNL     1       7.689  23.965  52.574  1.00  0.00     0.014 A 
BRANCH  22  26
HETATM   26  O   UNL     1       7.871  23.669  56.714  1.00  0.00    -0.356 OA
HETATM   27  C   UNL     1       8.747  24.578  57.374  1.00  0.00     0.210 C 
ENDBRANCH  22  26
ENDBRANCH   3  20
BRANCH   1  28
HETATM   28  C   UNL     1       4.191  27.031  50.077  1.00  0.00     0.058 A 
HETATM   29  C   UNL     1       4.119  25.951  49.186  1.00  0.00     0.032 A 
HETATM   30  C   UNL     1       3.222  25.975  48.113  1.00  0.00     0.009 A 
HETATM   31  C   UNL     1       2.390  27.081  47.910  1.00  0.00    -0.062 A 
HETATM   32  C   UNL     1       1.399  27.099  46.784  1.00  0.00     0.048 C 
HETATM   33  C   UNL     1       2.456  28.154  48.805  1.00  0.00     0.009 A 
HETATM   34  C   UNL     1       3.351  28.136  49.881  1.00  0.00     0.032 A 
ENDBRANCH   1  28
TORSDOF 6
ENDMDL
MODEL 3
REMARK VINA RESULT:      -9.8      2.342      8.111
REMARK  6 active torsions:
REMARK  status: ('A' for Active; 'I' for Inactive)
REMARK    1  A    between atoms: C_5  and  N_6 
REMARK    2  A    between atoms: C_8  and  C_9 
REMARK    3  A    between atoms: C_11  and  O_12 
REMARK    4  A    between atoms: C_17  and  C_18 
REMARK       I    between atoms: C_18  and  N_19 
REMARK    5  A    between atoms: N_19  and  N_20 
REMARK       I    between atoms: N_20  and  C_21 
REMARK    6  A    between atoms: C_21  and  C_22 
ROOT
HETATM    1  N   UNL     1       5.915  26.791  52.810  1.00  0.00    -0.244 N 
HETATM    2  N   UNL     1       6.429  25.586  53.126  1.00  0.00    -0.166 NA
HETATM    3  C   UNL     1       6.716  25.629  54.438  1.00  0.00     0.105 A 
HETATM    4  C   UNL     1       6.395  26.912  54.985  1.00  0.00     0.082 A 
HETATM    5  C   UNL     1       5.892  27.620  53.904  1.00  0.00     0.138 A 
ENDROOT
BRANCH   4   6
HETATM    6  C   UNL     1       6.567  27.426  56.337  1.00  0.00     0.274 C 
HETATM    7  N   UNL     1       7.728  28.153  56.535  1.00  0.00    -0.263 N 
HETATM    8  H   UNL     1       8.313  28.468  55.766  1.00  0.00     0.190 HD
HETATM    9  O   UNL     1       5.756  27.258  57.246  1.00  0.00    -0.266 OA
BRANCH   7  10
HETATM   10  N   UNL     1       7.896  28.844  57.744  1.00  0.00    -0.262 N 
HETATM   11  C   UNL     1       8.889  29.800  57.814  1.00  0.00     0.286 C 
HETATM   12  O   UNL     1       9.663  29.989  56.873  1.00  0.00    -0.264 OA
HETATM   13  H   UNL     1       7.181  28.720  58.455  1.00  0.00     0.190 HD
BRANCH  11  14
HETATM   14  C   UNL     1       8.955  30.557  59.042  1.00  0.00     0.102 A 
HETATM   15  N   UNL     1       8.215  30.191  60.148  1.00  0.00    -0.361 N 
HETATM   16  H   UNL     1       7.594  29.390  60.169  1.00  0.00     0.165 HD
HETATM   17  C   UNL     1       8.443  31.057  61.181  1.00  0.00     0.088 A 
HETATM   18  C   UNL     1       9.345  32.001  60.748  1.00  0.00     0.019 A 
HETATM   19  C   UNL     1       9.667  31.689  59.403  1.00  0.00     0.036 A 
ENDBRANCH  11  14
ENDBRANCH   7  10
ENDBRANCH   4   6
BRANCH   3  20
HETATM   20  C   UNL     1       7.274  24.430  55.078  1.00  0.00    -0.002 A 
HETATM   21  C   UNL     1       7.234  23.174  54.456  1.00  0.00     0.050 A 
HETATM   22  C   UNL     1       7.775  22.049  55.086  1.00  0.00     0.069 A 
HETATM   23  C   UNL     1       8.415  22.186  56.318  1.00  0.00     0.037 A 
HETATM   24  C   UNL     1       8.482  23.430  56.940  1.00  0.00     0.004 A 
HETATM   25  C   UNL     1       7.909  24.544  56.325  1.00  0.00     0.014 A 
BRANCH  22  26
HETATM   26  O   UNL     1       7.764  20.779  54.574  1.00  0.00    -0.356 OA
HETATM   27  C   UNL     1       7.880  20.691  53.158  1.00  0.00     0.210 C 
ENDBRANCH  22  26
ENDBRANCH   3  20
BRANCH   1  28
HETATM   28  C   UNL     1       5.476  27.076  51.486  1.00  0.00     0.058 A 
HETATM   29  C   UNL     1       5.052  26.025  50.660  1.00  0.00     0.032 A 
HETATM   30  C   UNL     1       4.606  26.282  49.360  1.00  0.00     0.009 A 
HETATM   31  C   UNL     1       4.584  27.590  48.863  1.00  0.00    -0.062 A 
HETATM   32  C   UNL     1       4.073  27.878  47.483  1.00  0.00     0.048 C 
HETATM   33  C   UNL     1       4.999  28.638  49.692  1.00  0.00     0.009 A 
HETATM   34  C   UNL     1       5.446  28.388  50.994  1.00  0.00     0.032 A 
ENDBRANCH   1  28
TORSDOF 6
ENDMDL
MODEL 4
REMARK VINA RESULT:      -9.8      4.169      8.695
REMARK  6 active torsions:
REMARK  status: ('A' for Active; 'I' for Inactive)
REMARK    1  A    between atoms: C_5  and  N_6 
REMARK    2  A    between atoms: C_8  and  C_9 
REMARK    3  A    between atoms: C_11  and  O_12 
REMARK    4  A    between atoms: C_17  and  C_18 
REMARK       I    between atoms: C_18  and  N_19 
REMARK    5  A    between atoms: N_19  and  N_20 
REMARK       I    between atoms: N_20  and  C_21 
REMARK    6  A    between atoms: C_21  and  C_22 
ROOT
HETATM    1  N   UNL     1       7.040  25.964  55.385  1.00  0.00    -0.244 N 
HETATM    2  N   UNL     1       8.074  26.691  55.850  1.00  0.00    -0.166 NA
HETATM    3  C   UNL     1       7.551  27.839  56.312  1.00  0.00     0.105 A 
HETATM    4  C   UNL     1       6.133  27.864  56.121  1.00  0.00     0.082 A 
HETATM    5  C   UNL     1       5.856  26.645  55.519  1.00  0.00     0.138 A 
ENDROOT
BRANCH   4   6
HETATM    6  C   UNL     1       5.162  28.905  56.428  1.00  0.00     0.274 C 
HETATM    7  N   UNL     1       4.924  29.093  57.778  1.00  0.00    -0.263 N 
HETATM    8  H   UNL     1       5.511  28.682  58.499  1.00  0.00     0.190 HD
HETATM    9  O   UNL     1       4.594  29.589  55.578  1.00  0.00    -0.266 OA
BRANCH   7  10
HETATM   10  N   UNL     1       4.150  30.190  58.184  1.00  0.00    -0.262 N 
HETATM   11  C   UNL     1       4.805  31.347  58.554  1.00  0.00     0.286 C 
HETATM   12  O   UNL     1       6.035  31.396  58.607  1.00  0.00    -0.264 OA
HETATM   13  H   UNL     1       3.146  30.132  58.036  1.00  0.00     0.190 HD
BRANCH  11  14
HETATM   14  C   UNL     1       3.964  32.480  58.861  1.00  0.00     0.102 A 
HETATM   15  N   UNL     1       3.382  32.622  60.104  1.00  0.00    -0.361 N 
HETATM   16  H   UNL     1       3.503  31.959  60.861  1.00  0.00     0.165 HD
HETATM   17  C   UNL     1       2.635  33.767  60.152  1.00  0.00     0.088 A 
HETATM   18  C   UNL     1       2.730  34.383  58.926  1.00  0.00     0.019 A 
HETATM   19  C   UNL     1       3.564  33.575  58.112  1.00  0.00     0.036 A 
ENDBRANCH  11  14
ENDBRANCH   7  10
ENDBRANCH   4   6
BRANCH   3  20
HETATM   20  C   UNL     1       8.451  28.833  56.914  1.00  0.00    -0.002 A 
HETATM   21  C   UNL     1       8.324  29.231  58.253  1.00  0.00     0.050 A 
HETATM   22  C   UNL     1       9.196  30.176  58.801  1.00  0.00     0.069 A 
HETATM   23  C   UNL     1      10.241  30.684  58.029  1.00  0.00     0.037 A 
HETATM   24  C   UNL     1      10.395  30.284  56.704  1.00  0.00     0.004 A 
HETATM   25  C   UNL     1       9.501  29.368  56.149  1.00  0.00     0.014 A 
BRANCH  22  26
HETATM   26  O   UNL     1       9.140  30.647  60.085  1.00  0.00    -0.356 OA
HETATM   27  C   UNL     1       9.469  32.023  60.246  1.00  0.00     0.210 C 
ENDBRANCH  22  26
ENDBRANCH   3  20
BRANCH   1  28
HETATM   28  C   UNL     1       7.244  24.664  54.841  1.00  0.00     0.058 A 
HETATM   29  C   UNL     1       7.380  24.511  53.454  1.00  0.00     0.032 A 
HETATM   30  C   UNL     1       7.593  23.246  52.898  1.00  0.00     0.009 A 
HETATM   31  C   UNL     1       7.666  22.114  53.718  1.00  0.00    -0.062 A 
HETATM   32  C   UNL     1       7.930  20.759  53.133  1.00  0.00     0.048 C 
HETATM   33  C   UNL     1       7.539  22.270  55.102  1.00  0.00     0.009 A 
HETATM   34  C   UNL     1       7.326  23.533  55.665  1.00  0.00     0.032 A 
ENDBRANCH   1  28
TORSDOF 6
ENDMDL
MODEL 5
REMARK VINA RESULT:      -9.5      2.890      9.089
REMARK  6 active torsions:
REMARK  status: ('A' for Active; 'I' for Inactive)
REMARK    1  A    between atoms: C_5  and  N_6 
REMARK    2  A    between atoms: C_8  and  C_9 
REMARK    3  A    between atoms: C_11  and  O_12 
REMARK    4  A    between atoms: C_17  and  C_18 
REMARK       I    between atoms: C_18  and  N_19 
REMARK    5  A    between atoms: N_19  and  N_20 
REMARK       I    between atoms: N_20  and  C_21 
REMARK    6  A    between atoms: C_21  and  C_22 
ROOT
HETATM    1  N   UNL     1       6.847  25.243  54.405  1.00  0.00    -0.244 N 
HETATM    2  N   UNL     1       6.119  25.803  53.419  1.00  0.00    -0.166 NA
HETATM    3  C   UNL     1       5.845  27.056  53.817  1.00  0.00     0.105 A 
HETATM    4  C   UNL     1       6.397  27.309  55.113  1.00  0.00     0.082 A 
HETATM    5  C   UNL     1       7.023  26.118  55.448  1.00  0.00     0.138 A 
ENDROOT
BRANCH   4   6
HETATM    6  C   UNL     1       6.322  28.499  55.950  1.00  0.00     0.274 C 
HETATM    7  N   UNL     1       6.449  28.259  57.307  1.00  0.00    -0.263 N 
HETATM    8  H   UNL     1       6.761  27.365  57.678  1.00  0.00     0.190 HD
HETATM    9  O   UNL     1       6.175  29.639  55.514  1.00  0.00    -0.266 OA
BRANCH   7  10
HETATM   10  N   UNL     1       6.577  29.351  58.179  1.00  0.00    -0.262 N 
HETATM   11  C   UNL     1       7.841  29.687  58.618  1.00  0.00     0.286 C 
HETATM   12  O   UNL     1       8.824  29.005  58.323  1.00  0.00    -0.264 OA
HETATM   13  H   UNL     1       5.756  29.933  58.319  1.00  0.00     0.190 HD
BRANCH  11  14
HETATM   14  C   UNL     1       7.933  30.880  59.428  1.00  0.00     0.102 A 
HETATM   15  N   UNL     1       6.833  31.378  60.096  1.00  0.00    -0.361 N 
HETATM   16  H   UNL     1       5.914  30.951  60.063  1.00  0.00     0.165 HD
HETATM   17  C   UNL     1       7.169  32.507  60.790  1.00  0.00     0.088 A 
HETATM   18  C   UNL     1       8.505  32.752  60.575  1.00  0.00     0.019 A 
HETATM   19  C   UNL     1       8.988  31.731  59.718  1.00  0.00     0.036 A 
ENDBRANCH  11  14
ENDBRANCH   7  10
ENDBRANCH   4   6
BRANCH   3  20
HETATM   20  C   UNL     1       5.075  27.930  52.920  1.00  0.00    -0.002 A 
HETATM   21  C   UNL     1       5.648  28.505  51.777  1.00  0.00     0.050 A 
HETATM   22  C   UNL     1       4.893  29.330  50.939  1.00  0.00     0.069 A 
HETATM   23  C   UNL     1       3.538  29.534  51.205  1.00  0.00     0.037 A 
HETATM   24  C   UNL     1       2.947  28.952  52.324  1.00  0.00     0.004 A 
HETATM   25  C   UNL     1       3.714  28.160  53.179  1.00  0.00     0.014 A 
BRANCH  22  26
HETATM   26  O   UNL     1       5.365  29.957  49.817  1.00  0.00    -0.356 OA
HETATM   27  C   UNL     1       4.964  29.378  48.579  1.00  0.00     0.210 C 
ENDBRANCH  22  26
ENDBRANCH   3  20
BRANCH   1  28
HETATM   28  C   UNL     1       7.331  23.909  54.290  1.00  0.00     0.058 A 
HETATM   29  C   UNL     1       7.618  23.178  55.453  1.00  0.00     0.032 A 
HETATM   30  C   UNL     1       8.083  21.863  55.366  1.00  0.00     0.009 A 
HETATM   31  C   UNL     1       8.277  21.260  54.118  1.00  0.00    -0.062 A 
HETATM   32  C   UNL     1       8.741  19.837  54.017  1.00  0.00     0.048 C 
HETATM   33  C   UNL     1       7.981  21.987  52.960  1.00  0.00     0.009 A 
HETATM   34  C   UNL     1       7.515  23.304  53.040  1.00  0.00     0.032 A 
ENDBRANCH   1  28
TORSDOF 6
ENDMDL
MODEL 6
REMARK VINA RESULT:      -9.5      4.066      7.875
REMARK  6 active torsions:
REMARK  status: ('A' for Active; 'I' for Inactive)
REMARK    1  A    between atoms: C_5  and  N_6 
REMARK    2  A    between atoms: C_8  and  C_9 
REMARK    3  A    between atoms: C_11  and  O_12 
REMARK    4  A    between atoms: C_17  and  C_18 
REMARK       I    between atoms: C_18  and  N_19 
REMARK    5  A    between atoms: N_19  and  N_20 
REMARK       I    between atoms: N_20  and  C_21 
REMARK    6  A    between atoms: C_21  and  C_22 
ROOT
HETATM    1  N   UNL     1       7.074  25.840  55.118  1.00  0.00    -0.244 N 
HETATM    2  N   UNL     1       7.996  26.519  55.829  1.00  0.00    -0.166 NA
HETATM    3  C   UNL     1       7.438  27.701  56.138  1.00  0.00     0.105 A 
HETATM    4  C   UNL     1       6.120  27.799  55.591  1.00  0.00     0.082 A 
HETATM    5  C   UNL     1       5.936  26.587  54.943  1.00  0.00     0.138 A 
ENDROOT
BRANCH   4   6
HETATM    6  C   UNL     1       5.163  28.897  55.635  1.00  0.00     0.274 C 
HETATM    7  N   UNL     1       5.673  30.123  55.246  1.00  0.00    -0.263 N 
HETATM    8  H   UNL     1       6.573  30.219  54.785  1.00  0.00     0.190 HD
HETATM    9  O   UNL     1       3.987  28.772  55.972  1.00  0.00    -0.266 OA
BRANCH   7  10
HETATM   10  N   UNL     1       4.791  31.201  55.077  1.00  0.00    -0.262 N 
HETATM   11  C   UNL     1       4.777  32.188  56.041  1.00  0.00     0.286 C 
HETATM   12  O   UNL     1       5.457  32.092  57.064  1.00  0.00    -0.264 OA
HETATM   13  H   UNL     1       4.321  31.280  54.180  1.00  0.00     0.190 HD
BRANCH  11  14
HETATM   14  C   UNL     1       3.930  33.326  55.770  1.00  0.00     0.102 A 
HETATM   15  N   UNL     1       2.602  33.165  55.431  1.00  0.00    -0.361 N 
HETATM   16  H   UNL     1       2.147  32.263  55.352  1.00  0.00     0.165 HD
HETATM   17  C   UNL     1       2.014  34.382  55.222  1.00  0.00     0.088 A 
HETATM   18  C   UNL     1       2.966  35.352  55.428  1.00  0.00     0.019 A 
HETATM   19  C   UNL     1       4.173  34.690  55.771  1.00  0.00     0.036 A 
ENDBRANCH  11  14
ENDBRANCH   7  10
ENDBRANCH   4   6
BRANCH   3  20
HETATM   20  C   UNL     1       8.211  28.656  56.945  1.00  0.00    -0.002 A 
HETATM   21  C   UNL     1       7.741  29.130  58.179  1.00  0.00     0.050 A 
HETATM   22  C   UNL     1       8.497  30.036  58.928  1.00  0.00     0.069 A 
HETATM   23  C   UNL     1       9.759  30.426  58.477  1.00  0.00     0.037 A 
HETATM   24  C   UNL     1      10.250  29.948  57.265  1.00  0.00     0.004 A 
HETATM   25  C   UNL     1       9.476  29.072  56.502  1.00  0.00     0.014 A 
BRANCH  22  26
HETATM   26  O   UNL     1       8.117  30.576  60.128  1.00  0.00    -0.356 OA
HETATM   27  C   UNL     1       9.155  30.711  61.093  1.00  0.00     0.210 C 
ENDBRANCH  22  26
ENDBRANCH   3  20
BRANCH   1  28
HETATM   28  C   UNL     1       7.336  24.521  54.650  1.00  0.00     0.058 A 
HETATM   29  C   UNL     1       7.587  24.311  53.286  1.00  0.00     0.032 A 
HETATM   30  C   UNL     1       7.859  23.027  52.805  1.00  0.00     0.009 A 
HETATM   31  C   UNL     1       7.875  21.932  53.676  1.00  0.00    -0.062 A 
HETATM   32  C   UNL     1       8.201  20.557  53.173  1.00  0.00     0.048 C 
HETATM   33  C   UNL     1       7.633  22.144  55.037  1.00  0.00     0.009 A 
HETATM   34  C   UNL     1       7.362  23.427  55.525  1.00  0.00     0.032 A 
ENDBRANCH   1  28
TORSDOF 6
ENDMDL
MODEL 7
REMARK VINA RESULT:      -9.3      3.168      8.018
REMARK  6 active torsions:
REMARK  status: ('A' for Active; 'I' for Inactive)
REMARK    1  A    between atoms: C_5  and  N_6 
REMARK    2  A    between atoms: C_8  and  C_9 
REMARK    3  A    between atoms: C_11  and  O_12 
REMARK    4  A    between atoms: C_17  and  C_18 
REMARK       I    between atoms: C_18  and  N_19 
REMARK    5  A    between atoms: N_19  and  N_20 
REMARK       I    between atoms: N_20  and  C_21 
REMARK    6  A    between atoms: C_21  and  C_22 
ROOT
HETATM    1  N   UNL     1       6.401  24.965  53.395  1.00  0.00    -0.244 N 
HETATM    2  N   UNL     1       6.191  25.244  52.094  1.00  0.00    -0.166 NA
HETATM    3  C   UNL     1       5.633  26.466  52.054  1.00  0.00     0.105 A 
HETATM    4  C   UNL     1       5.457  26.986  53.375  1.00  0.00     0.082 A 
HETATM    5  C   UNL     1       5.958  25.987  54.197  1.00  0.00     0.138 A 
ENDROOT
BRANCH   4   6
HETATM    6  C   UNL     1       4.865  28.241  53.820  1.00  0.00     0.274 C 
HETATM    7  N   UNL     1       5.753  29.117  54.420  1.00  0.00    -0.263 N 
HETATM    8  H   UNL     1       6.760  28.987  54.381  1.00  0.00     0.190 HD
HETATM    9  O   UNL     1       3.680  28.533  53.673  1.00  0.00    -0.266 OA
BRANCH   7  10
HETATM   10  N   UNL     1       5.324  30.420  54.713  1.00  0.00    -0.262 N 
HETATM   11  C   UNL     1       5.370  30.840  56.026  1.00  0.00     0.286 C 
HETATM   12  O   UNL     1       5.698  30.071  56.932  1.00  0.00    -0.264 OA
HETATM   13  H   UNL     1       5.151  31.041  53.927  1.00  0.00     0.190 HD
BRANCH  11  14
HETATM   14  C   UNL     1       5.019  32.221  56.263  1.00  0.00     0.102 A 
HETATM   15  N   UNL     1       4.999  32.745  57.539  1.00  0.00    -0.361 N 
HETATM   16  H   UNL     1       5.222  32.209  58.371  1.00  0.00     0.165 HD
HETATM   17  C   UNL     1       4.638  34.063  57.507  1.00  0.00     0.088 A 
HETATM   18  C   UNL     1       4.421  34.408  56.193  1.00  0.00     0.019 A 
HETATM   19  C   UNL     1       4.658  33.251  55.409  1.00  0.00     0.036 A 
ENDBRANCH  11  14
ENDBRANCH   7  10
ENDBRANCH   4   6
BRANCH   3  20
HETATM   20  C   UNL     1       5.313  27.053  50.745  1.00  0.00    -0.002 A 
HETATM   21  C   UNL     1       4.822  26.276  49.687  1.00  0.00     0.050 A 
HETATM   22  C   UNL     1       4.523  26.860  48.453  1.00  0.00     0.069 A 
HETATM   23  C   UNL     1       4.654  28.239  48.290  1.00  0.00     0.037 A 
HETATM   24  C   UNL     1       5.119  29.030  49.337  1.00  0.00     0.004 A 
HETATM   25  C   UNL     1       5.452  28.438  50.556  1.00  0.00     0.014 A 
BRANCH  22  26
HETATM   26  O   UNL     1       4.064  26.185  47.353  1.00  0.00    -0.356 OA
HETATM   27  C   UNL     1       3.049  25.220  47.609  1.00  0.00     0.210 C 
ENDBRANCH  22  26
ENDBRANCH   3  20
BRANCH   1  28
HETATM   28  C   UNL     1       7.011  23.742  53.793  1.00  0.00     0.058 A 
HETATM   29  C   UNL     1       7.055  23.405  55.154  1.00  0.00     0.032 A 
HETATM   30  C   UNL     1       7.639  22.204  55.568  1.00  0.00     0.009 A 
HETATM   31  C   UNL     1       8.194  21.326  54.631  1.00  0.00    -0.062 A 
HETATM   32  C   UNL     1       8.789  20.019  55.064  1.00  0.00     0.048 C 
HETATM   33  C   UNL     1       8.141  21.659  53.274  1.00  0.00     0.009 A 
HETATM   34  C   UNL     1       7.558  22.859  52.853  1.00  0.00     0.032 A 
ENDBRANCH   1  28
TORSDOF 6
ENDMDL
MODEL 8
REMARK VINA RESULT:      -9.3      2.615      6.277
REMARK  6 active torsions:
REMARK  status: ('A' for Active; 'I' for Inactive)
REMARK    1  A    between atoms: C_5  and  N_6 
REMARK    2  A    between atoms: C_8  and  C_9 
REMARK    3  A    between atoms: C_11  and  O_12 
REMARK    4  A    between atoms: C_17  and  C_18 
REMARK       I    between atoms: C_18  and  N_19 
REMARK    5  A    between atoms: N_19  and  N_20 
REMARK       I    between atoms: N_20  and  C_21 
REMARK    6  A    between atoms: C_21  and  C_22 
ROOT
HETATM    1  N   UNL     1       6.558  24.886  53.579  1.00  0.00    -0.244 N 
HETATM    2  N   UNL     1       6.376  25.849  54.504  1.00  0.00    -0.166 NA
HETATM    3  C   UNL     1       5.811  26.885  53.864  1.00  0.00     0.105 A 
HETATM    4  C   UNL     1       5.641  26.592  52.474  1.00  0.00     0.082 A 
HETATM    5  C   UNL     1       6.139  25.304  52.341  1.00  0.00     0.138 A 
ENDROOT
BRANCH   4   6
HETATM    6  C   UNL     1       5.112  27.418  51.397  1.00  0.00     0.274 C 
HETATM    7  N   UNL     1       4.147  26.804  50.618  1.00  0.00    -0.263 N 
HETATM    8  H   UNL     1       3.703  25.930  50.887  1.00  0.00     0.190 HD
HETATM    9  O   UNL     1       5.465  28.576  51.181  1.00  0.00    -0.266 OA
BRANCH   7  10
HETATM   10  N   UNL     1       3.445  27.572  49.678  1.00  0.00    -0.262 N 
HETATM   11  C   UNL     1       2.906  26.928  48.583  1.00  0.00     0.286 C 
HETATM   12  O   UNL     1       3.101  25.727  48.388  1.00  0.00    -0.264 OA
HETATM   13  H   UNL     1       3.235  28.534  49.927  1.00  0.00     0.190 HD
BRANCH  11  14
HETATM   14  C   UNL     1       2.105  27.742  47.699  1.00  0.00     0.102 A 
HETATM   15  N   UNL     1       2.507  29.011  47.335  1.00  0.00    -0.361 N 
HETATM   16  H   UNL     1       3.367  29.442  47.655  1.00  0.00     0.165 HD
HETATM   17  C   UNL     1       1.587  29.580  46.499  1.00  0.00     0.088 A 
HETATM   18  C   UNL     1       0.571  28.673  46.311  1.00  0.00     0.019 A 
HETATM   19  C   UNL     1       0.893  27.517  47.066  1.00  0.00     0.036 A 
ENDBRANCH  11  14
ENDBRANCH   7  10
ENDBRANCH   4   6
BRANCH   3  20
HETATM   20  C   UNL     1       5.467  28.089  54.635  1.00  0.00    -0.002 A 
HETATM   21  C   UNL     1       6.386  28.698  55.502  1.00  0.00     0.050 A 
HETATM   22  C   UNL     1       6.034  29.843  56.222  1.00  0.00     0.069 A 
HETATM   23  C   UNL     1       4.779  30.423  56.031  1.00  0.00     0.037 A 
HETATM   24  C   UNL     1       3.863  29.844  55.157  1.00  0.00     0.004 A 
HETATM   25  C   UNL     1       4.204  28.680  54.468  1.00  0.00     0.014 A 
BRANCH  22  26
HETATM   26  O   UNL     1       6.847  30.496  57.109  1.00  0.00    -0.356 OA
HETATM   27  C   UNL     1       6.177  31.312  58.065  1.00  0.00     0.210 C 
ENDBRANCH  22  26
ENDBRANCH   3  20
BRANCH   1  28
HETATM   28  C   UNL     1       7.120  23.626  53.934  1.00  0.00     0.058 A 
HETATM   29  C   UNL     1       7.632  22.793  52.928  1.00  0.00     0.032 A 
HETATM   30  C   UNL     1       8.199  21.557  53.253  1.00  0.00     0.009 A 
HETATM   31  C   UNL     1       8.256  21.131  54.584  1.00  0.00    -0.062 A 
HETATM   32  C   UNL     1       8.895  19.823  54.944  1.00  0.00     0.048 C 
HETATM   33  C   UNL     1       7.753  21.967  55.587  1.00  0.00     0.009 A 
HETATM   34  C   UNL     1       7.185  23.206  55.269  1.00  0.00     0.032 A 
ENDBRANCH   1  28
TORSDOF 6
ENDMDL
MODEL 9
REMARK VINA RESULT:      -9.0      3.279      8.367
REMARK  6 active torsions:
REMARK  status: ('A' for Active; 'I' for Inactive)
REMARK    1  A    between atoms: C_5  and  N_6 
REMARK    2  A    between atoms: C_8  and  C_9 
REMARK    3  A    between atoms: C_11  and  O_12 
REMARK    4  A    between atoms: C_17  and  C_18 
REMARK       I    between atoms: C_18  and  N_19 
REMARK    5  A    between atoms: N_19  and  N_20 
REMARK       I    between atoms: N_20  and  C_21 
REMARK    6  A    between atoms: C_21  and  C_22 
ROOT
HETATM    1  N   UNL     1       6.323  24.859  53.808  1.00  0.00    -0.244 N 
HETATM    2  N   UNL     1       6.231  25.348  52.555  1.00  0.00    -0.166 NA
HETATM    3  C   UNL     1       5.619  26.539  52.659  1.00  0.00     0.105 A 
HETATM    4  C   UNL     1       5.286  26.821  54.021  1.00  0.00     0.082 A 
HETATM    5  C   UNL     1       5.751  25.715  54.716  1.00  0.00     0.138 A 
ENDROOT
BRANCH   4   6
HETATM    6  C   UNL     1       4.590  27.963  54.601  1.00  0.00     0.274 C 
HETATM    7  N   UNL     1       4.385  27.880  55.967  1.00  0.00    -0.263 N 
HETATM    8  H   UNL     1       4.845  27.185  56.548  1.00  0.00     0.190 HD
HETATM    9  O   UNL     1       4.218  28.942  53.957  1.00  0.00    -0.266 OA
BRANCH   7  10
HETATM   10  N   UNL     1       3.893  29.004  56.647  1.00  0.00    -0.262 N 
HETATM   11  C   UNL     1       4.768  29.719  57.440  1.00  0.00     0.286 C 
HETATM   12  O   UNL     1       5.927  29.341  57.615  1.00  0.00    -0.264 OA
HETATM   13  H   UNL     1       2.962  29.327  56.400  1.00  0.00     0.190 HD
BRANCH  11  14
HETATM   14  C   UNL     1       4.242  30.926  58.034  1.00  0.00     0.102 A 
HETATM   15  N   UNL     1       3.812  30.949  59.345  1.00  0.00    -0.361 N 
HETATM   16  H   UNL     1       3.837  30.143  59.959  1.00  0.00     0.165 HD
HETATM   17  C   UNL     1       3.360  32.196  59.676  1.00  0.00     0.088 A 
HETATM   18  C   UNL     1       3.495  33.001  58.569  1.00  0.00     0.019 A 
HETATM   19  C   UNL     1       4.049  32.204  57.535  1.00  0.00     0.036 A 
ENDBRANCH  11  14
ENDBRANCH   7  10
ENDBRANCH   4   6
BRANCH   3  20
HETATM   20  C   UNL     1       5.402  27.329  51.438  1.00  0.00    -0.002 A 
HETATM   21  C   UNL     1       5.877  28.643  51.315  1.00  0.00     0.050 A 
HETATM   22  C   UNL     1       5.660  29.371  50.142  1.00  0.00     0.069 A 
HETATM   23  C   UNL     1       5.019  28.767  49.060  1.00  0.00     0.037 A 
HETATM   24  C   UNL     1       4.560  27.456  49.158  1.00  0.00     0.004 A 
HETATM   25  C   UNL     1       4.746  26.744  50.343  1.00  0.00     0.014 A 
BRANCH  22  26
HETATM   26  O   UNL     1       6.060  30.664  49.933  1.00  0.00    -0.356 OA
HETATM   27  C   UNL     1       5.212  31.436  49.088  1.00  0.00     0.210 C 
ENDBRANCH  22  26
ENDBRANCH   3  20
BRANCH   1  28
HETATM   28  C   UNL     1       6.951  23.606  54.061  1.00  0.00     0.058 A 
HETATM   29  C   UNL     1       7.434  22.848  52.985  1.00  0.00     0.032 A 
HETATM   30  C   UNL     1       8.065  21.620  53.210  1.00  0.00     0.009 A 
HETATM   31  C   UNL     1       8.216  21.129  54.511  1.00  0.00    -0.062 A 
HETATM   32  C   UNL     1       8.924  19.831  54.763  1.00  0.00     0.048 C 
HETATM   33  C   UNL     1       7.743  21.891  55.584  1.00  0.00     0.009 A 
HETATM   34  C   UNL     1       7.111  23.121  55.366  1.00  0.00     0.032 A 
ENDBRANCH   1  28
TORSDOF 6
ENDMDL
MODEL 10
REMARK VINA RESULT:      -9.0      3.482      9.364
REMARK  6 active torsions:
REMARK  status: ('A' for Active; 'I' for Inactive)
REMARK    1  A    between atoms: C_5  and  N_6 
REMARK    2  A    between atoms: C_8  and  C_9 
REMARK    3  A    between atoms: C_11  and  O_12 
REMARK    4  A    between atoms: C_17  and  C_18 
REMARK       I    between atoms: C_18  and  N_19 
REMARK    5  A    between atoms: N_19  and  N_20 
REMARK       I    between atoms: N_20  and  C_21 
REMARK    6  A    between atoms: C_21  and  C_22 
ROOT
HETATM    1  N   UNL     1       6.771  25.180  54.778  1.00  0.00    -0.244 N 
HETATM    2  N   UNL     1       6.172  26.036  53.928  1.00  0.00    -0.166 NA
HETATM    3  C   UNL     1       5.875  27.133  54.645  1.00  0.00     0.105 A 
HETATM    4  C   UNL     1       6.277  26.973  56.008  1.00  0.00     0.082 A 
HETATM    5  C   UNL     1       6.840  25.706  56.044  1.00  0.00     0.138 A 
ENDROOT
BRANCH   4   6
HETATM    6  C   UNL     1       6.126  27.872  57.144  1.00  0.00     0.274 C 
HETATM    7  N   UNL     1       7.301  28.150  57.821  1.00  0.00    -0.263 N 
HETATM    8  H   UNL     1       8.216  27.909  57.449  1.00  0.00     0.190 HD
HETATM    9  O   UNL     1       5.058  28.373  57.489  1.00  0.00    -0.266 OA
BRANCH   7  10
HETATM   10  N   UNL     1       7.295  29.145  58.809  1.00  0.00    -0.262 N 
HETATM   11  C   UNL     1       8.423  29.927  58.952  1.00  0.00     0.286 C 
HETATM   12  O   UNL     1       9.440  29.710  58.290  1.00  0.00    -0.264 OA
HETATM   13  H   UNL     1       6.408  29.344  59.263  1.00  0.00     0.190 HD
BRANCH  11  14
HETATM   14  C   UNL     1       8.330  31.005  59.909  1.00  0.00     0.102 A 
HETATM   15  N   UNL     1       7.893  30.780  61.199  1.00  0.00    -0.361 N 
HETATM   16  H   UNL     1       7.618  29.869  61.549  1.00  0.00     0.165 HD
HETATM   17  C   UNL     1       7.891  31.948  61.910  1.00  0.00     0.088 A 
HETATM   18  C   UNL     1       8.331  32.949  61.078  1.00  0.00     0.019 A 
HETATM   19  C   UNL     1       8.607  32.359  59.818  1.00  0.00     0.036 A 
ENDBRANCH  11  14
ENDBRANCH   7  10
ENDBRANCH   4   6
BRANCH   3  20
HETATM   20  C   UNL     1       5.229  28.266  53.966  1.00  0.00    -0.002 A 
HETATM   21  C   UNL     1       4.319  29.103  54.628  1.00  0.00     0.050 A 
HETATM   22  C   UNL     1       3.721  30.175  53.960  1.00  0.00     0.069 A 
HETATM   23  C   UNL     1       4.077  30.454  52.640  1.00  0.00     0.037 A 
HETATM   24  C   UNL     1       4.995  29.646  51.974  1.00  0.00     0.004 A 
HETATM   25  C   UNL     1       5.562  28.555  52.633  1.00  0.00     0.014 A 
BRANCH  22  26
HETATM   26  O   UNL     1       2.805  31.032  54.509  1.00  0.00    -0.356 OA
HETATM   27  C   UNL     1       3.002  31.335  55.887  1.00  0.00     0.210 C 
ENDBRANCH  22  26
ENDBRANCH   3  20
BRANCH   1  28
HETATM   28  C   UNL     1       7.243  23.913  54.330  1.00  0.00     0.058 A 
HETATM   29  C   UNL     1       7.410  22.873  55.257  1.00  0.00     0.032 A 
HETATM   30  C   UNL     1       7.861  21.617  54.839  1.00  0.00     0.009 A 
HETATM   31  C   UNL     1       8.159  21.383  53.492  1.00  0.00    -0.062 A 
HETATM   32  C   UNL     1       8.607  20.028  53.030  1.00  0.00     0.048 C 
HETATM   33  C   UNL     1       7.983  22.418  52.568  1.00  0.00     0.009 A 
HETATM   34  C   UNL     1       7.532  23.677  52.979  1.00  0.00     0.032 A 
ENDBRANCH   1  28
TORSDOF 6
ENDMDL
