MODEL 1
REMARK VINA RESULT:     -10.7      0.000      0.000
REMARK  7 active torsions:
REMARK  status: ('A' for Active; 'I' for Inactive)
REMARK    1  A    between atoms: C_3  and  C_4 
REMARK    2  A    between atoms: C_4  and  C_5 
REMARK    3  A    between atoms: C_5  and  C_6 
REMARK       I    between atoms: C_6  and  N_7 
REMARK    4  A    between atoms: N_7  and  C_8 
REMARK    5  A    between atoms: C_8  and  C_9 
REMARK    6  A    between atoms: C_9  and  C_10 
REMARK    7  A    between atoms: C_29  and  O_30 
ROOT
HETATM    1  C   UNL     1       5.686  27.447  54.062  1.00  0.00     0.107 C 
ENDROOT
BRANCH   1   2
HETATM    2  C   UNL     1       7.135  26.986  54.265  1.00  0.00     0.055 C 
BRANCH   2   3
HETATM    3  C   UNL     1       7.447  25.519  54.541  1.00  0.00     0.025 A 
HETATM    4  C   UNL     1       7.632  24.631  53.533  1.00  0.00    -0.037 A 
HETATM    5  C   UNL     1       7.478  24.988  52.070  1.00  0.00     0.050 C 
HETATM    6  C   UNL     1       7.966  23.223  53.835  1.00  0.00     0.005 A 
HETATM    7  C   UNL     1       8.026  22.805  55.166  1.00  0.00     0.099 A 
HETATM    8  C   UNL     1       8.232  22.264  52.848  1.00  0.00     0.017 A 
HETATM    9  O   UNL     1       7.791  23.735  56.194  1.00  0.00    -0.274 OA
HETATM   10  C   UNL     1       8.315  21.478  55.548  1.00  0.00     0.006 A 
HETATM   11  C   UNL     1       7.513  25.071  55.960  1.00  0.00     0.295 A 
HETATM   12  O   UNL     1       7.318  25.826  56.906  1.00  0.00    -0.259 OA
HETATM   13  C   UNL     1       8.357  21.072  56.993  1.00  0.00     0.054 C 
HETATM   14  C   UNL     1       8.563  20.557  54.527  1.00  0.00     0.074 A 
HETATM   15  C   UNL     1       8.526  20.942  53.191  1.00  0.00     0.038 A 
BRANCH  14  16
HETATM   16  O   UNL     1       8.857  19.243  54.757  1.00  0.00    -0.360 OA
HETATM   17  H   UNL     1       9.294  18.863  53.981  1.00  0.00     0.217 HD
ENDBRANCH  14  16
ENDBRANCH   2   3
ENDBRANCH   1   2
BRANCH   1  18
HETATM   18  C   UNL     1       5.169  28.160  55.297  1.00  0.00     0.217 C 
HETATM   19  N   UNL     1       6.174  28.612  56.129  1.00  0.00    -0.361 N 
HETATM   20  H   UNL     1       7.098  28.218  56.001  1.00  0.00     0.162 HD
HETATM   21  O   UNL     1       3.977  28.321  55.535  1.00  0.00    -0.274 OA
BRANCH  19  22
HETATM   22  C   UNL     1       5.839  29.193  57.418  1.00  0.00     0.127 C 
BRANCH  22  23
HETATM   23  C   UNL     1       6.331  30.632  57.562  1.00  0.00     0.060 C 
BRANCH  23  24
HETATM   24  C   UNL     1       7.572  30.717  58.392  1.00  0.00    -0.029 A 
HETATM   25  C   UNL     1       7.701  31.337  59.677  1.00  0.00    -0.000 A 
HETATM   26  C   UNL     1       9.019  31.157  60.099  1.00  0.00     0.043 A 
HETATM   27  C   UNL     1       6.810  32.029  60.524  1.00  0.00     0.038 A 
HETATM   28  C   UNL     1       9.496  31.631  61.327  1.00  0.00     0.032 A 
HETATM   29  N   UNL     1       9.669  30.461  59.107  1.00  0.00    -0.365 N 
HETATM   30  C   UNL     1       8.595  32.316  62.150  1.00  0.00     0.026 A 
HETATM   31  C   UNL     1       7.275  32.511  61.751  1.00  0.00     0.035 A 
HETATM   32 CL   UNL     1       6.194  33.361  62.788  1.00  0.00    -0.084 Cl
HETATM   33  H   UNL     1      10.640  30.184  59.144  1.00  0.00     0.165 HD
HETATM   34  C   UNL     1       8.810  30.193  58.075  1.00  0.00     0.096 A 
ENDBRANCH  23  24
ENDBRANCH  22  23
ENDBRANCH  19  22
ENDBRANCH   1  18
TORSDOF 7
ENDMDL
MODEL 2
REMARK VINA RESULT:     -10.6      4.253     10.624
REMARK  7 active torsions:
REMARK  status: ('A' for Active; 'I' for Inactive)
REMARK    1  A    between atoms: C_3  and  C_4 
REMARK    2  A    between atoms: C_4  and  C_5 
REMARK    3  A    between atoms: C_5  and  C_6 
REMARK       I    between atoms: C_6  and  N_7 
REMARK    4  A    between atoms: N_7  and  C_8 
REMARK    5  A    between atoms: C_8  and  C_9 
REMARK    6  A    between atoms: C_9  and  C_10 
REMARK    7  A    between atoms: C_29  and  O_30 
ROOT
HETATM    1  C   UNL     1       9.857  30.720  58.367  1.00  0.00     0.107 C 
ENDROOT
BRANCH   1   2
HETATM    2  C   UNL     1       8.650  30.314  59.222  1.00  0.00     0.055 C 
BRANCH   2   3
HETATM    3  C   UNL     1       8.004  31.319  60.170  1.00  0.00     0.025 A 
HETATM    4  C   UNL     1       8.344  31.377  61.481  1.00  0.00    -0.037 A 
HETATM    5  C   UNL     1       9.324  30.423  62.131  1.00  0.00     0.050 C 
HETATM    6  C   UNL     1       7.722  32.385  62.366  1.00  0.00     0.005 A 
HETATM    7  C   UNL     1       6.738  33.231  61.853  1.00  0.00     0.099 A 
HETATM    8  C   UNL     1       8.069  32.547  63.715  1.00  0.00     0.017 A 
HETATM    9  O   UNL     1       6.372  33.126  60.499  1.00  0.00    -0.274 OA
HETATM   10  C   UNL     1       6.076  34.207  62.627  1.00  0.00     0.006 A 
HETATM   11  C   UNL     1       6.953  32.223  59.625  1.00  0.00     0.295 A 
HETATM   12  O   UNL     1       6.585  32.187  58.456  1.00  0.00    -0.259 OA
HETATM   13  C   UNL     1       5.014  35.088  62.033  1.00  0.00     0.054 C 
HETATM   14  C   UNL     1       6.449  34.323  63.969  1.00  0.00     0.074 A 
HETATM   15  C   UNL     1       7.436  33.506  64.509  1.00  0.00     0.038 A 
BRANCH  14  16
HETATM   16  O   UNL     1       5.890  35.226  64.827  1.00  0.00    -0.360 OA
HETATM   17  H   UNL     1       6.352  35.200  65.679  1.00  0.00     0.217 HD
ENDBRANCH  14  16
ENDBRANCH   2   3
ENDBRANCH   1   2
BRANCH   1  18
HETATM   18  C   UNL     1       9.841  29.996  57.034  1.00  0.00     0.217 C 
HETATM   19  N   UNL     1       8.578  29.602  56.640  1.00  0.00    -0.361 N 
HETATM   20  H   UNL     1       7.854  29.581  57.348  1.00  0.00     0.162 HD
HETATM   21  O   UNL     1      10.849  29.780  56.369  1.00  0.00    -0.274 OA
BRANCH  19  22
HETATM   22  C   UNL     1       8.414  28.778  55.454  1.00  0.00     0.127 C 
BRANCH  22  23
HETATM   23  C   UNL     1       7.181  27.879  55.527  1.00  0.00     0.060 C 
BRANCH  23  24
HETATM   24  C   UNL     1       7.446  26.632  56.309  1.00  0.00    -0.029 A 
HETATM   25  C   UNL     1       7.649  25.317  55.779  1.00  0.00    -0.000 A 
HETATM   26  C   UNL     1       7.892  24.464  56.857  1.00  0.00     0.043 A 
HETATM   27  C   UNL     1       7.658  24.777  54.476  1.00  0.00     0.038 A 
HETATM   28  C   UNL     1       8.145  23.096  56.702  1.00  0.00     0.032 A 
HETATM   29  N   UNL     1       7.831  25.229  57.998  1.00  0.00    -0.365 N 
HETATM   30  C   UNL     1       8.148  22.582  55.401  1.00  0.00     0.026 A 
HETATM   31  C   UNL     1       7.906  23.411  54.309  1.00  0.00     0.035 A 
HETATM   32 CL   UNL     1       7.914  22.745  52.720  1.00  0.00    -0.084 Cl
HETATM   33  H   UNL     1       7.973  24.873  58.933  1.00  0.00     0.165 HD
HETATM   34  C   UNL     1       7.561  26.532  57.682  1.00  0.00     0.096 A 
ENDBRANCH  23  24
ENDBRANCH  22  23
ENDBRANCH  19  22
ENDBRANCH   1  18
TORSDOF 7
ENDMDL
MODEL 3
REMARK VINA RESULT:     -10.6      1.461      1.975
REMARK  7 active torsions:
REMARK  status: ('A' for Active; 'I' for Inactive)
REMARK    1  A    between atoms: C_3  and  C_4 
REMARK    2  A    between atoms: C_4  and  C_5 
REMARK    3  A    between atoms: C_5  and  C_6 
REMARK       I    between atoms: C_6  and  N_7 
REMARK    4  A    between atoms: N_7  and  C_8 
REMARK    5  A    between atoms: C_8  and  C_9 
REMARK    6  A    between atoms: C_9  and  C_10 
REMARK    7  A    between atoms: C_29  and  O_30 
ROOT
HETATM    1  C   UNL     1       7.969  28.284  54.412  1.00  0.00     0.107 C 
ENDROOT
BRANCH   1   2
HETATM    2  C   UNL     1       6.962  27.282  54.993  1.00  0.00     0.055 C 
BRANCH   2   3
HETATM    3  C   UNL     1       7.312  25.801  55.083  1.00  0.00     0.025 A 
HETATM    4  C   UNL     1       7.364  25.016  53.978  1.00  0.00    -0.037 A 
HETATM    5  C   UNL     1       7.018  25.508  52.590  1.00  0.00     0.050 C 
HETATM    6  C   UNL     1       7.740  23.591  54.097  1.00  0.00     0.005 A 
HETATM    7  C   UNL     1       7.976  23.048  55.361  1.00  0.00     0.099 A 
HETATM    8  C   UNL     1       7.876  22.735  52.995  1.00  0.00     0.017 A 
HETATM    9  O   UNL     1       7.876  23.872  56.497  1.00  0.00    -0.274 OA
HETATM   10  C   UNL     1       8.317  21.696  55.572  1.00  0.00     0.006 A 
HETATM   11  C   UNL     1       7.565  25.220  56.431  1.00  0.00     0.295 A 
HETATM   12  O   UNL     1       7.496  25.878  57.463  1.00  0.00    -0.259 OA
HETATM   13  C   UNL     1       8.551  21.155  56.953  1.00  0.00     0.054 C 
HETATM   14  C   UNL     1       8.431  20.880  54.443  1.00  0.00     0.074 A 
HETATM   15  C   UNL     1       8.216  21.391  53.168  1.00  0.00     0.038 A 
BRANCH  14  16
HETATM   16  O   UNL     1       8.757  19.555  54.505  1.00  0.00    -0.360 OA
HETATM   17  H   UNL     1       9.665  19.455  54.828  1.00  0.00     0.217 HD
ENDBRANCH  14  16
ENDBRANCH   2   3
ENDBRANCH   1   2
BRANCH   1  18
HETATM   18  C   UNL     1       8.729  28.988  55.521  1.00  0.00     0.217 C 
HETATM   19  N   UNL     1       8.119  28.884  56.755  1.00  0.00    -0.361 N 
HETATM   20  H   UNL     1       7.145  28.606  56.772  1.00  0.00     0.162 HD
HETATM   21  O   UNL     1       9.781  29.592  55.340  1.00  0.00    -0.274 OA
BRANCH  19  22
HETATM   22  C   UNL     1       8.651  29.621  57.889  1.00  0.00     0.127 C 
BRANCH  22  23
HETATM   23  C   UNL     1       7.584  30.445  58.609  1.00  0.00     0.060 C 
BRANCH  23  24
HETATM   24  C   UNL     1       8.038  30.881  59.965  1.00  0.00    -0.029 A 
HETATM   25  C   UNL     1       7.392  31.834  60.818  1.00  0.00    -0.000 A 
HETATM   26  C   UNL     1       8.137  31.916  61.996  1.00  0.00     0.043 A 
HETATM   27  C   UNL     1       6.233  32.629  60.696  1.00  0.00     0.038 A 
HETATM   28  C   UNL     1       7.784  32.750  63.063  1.00  0.00     0.032 A 
HETATM   29  N   UNL     1       9.198  31.052  61.862  1.00  0.00    -0.365 N 
HETATM   30  C   UNL     1       6.632  33.530  62.920  1.00  0.00     0.026 A 
HETATM   31  C   UNL     1       5.872  33.470  61.754  1.00  0.00     0.035 A 
HETATM   32 CL   UNL     1       4.460  34.447  61.610  1.00  0.00    -0.084 Cl
HETATM   33  H   UNL     1       9.905  30.900  62.568  1.00  0.00     0.165 HD
HETATM   34  C   UNL     1       9.151  30.426  60.645  1.00  0.00     0.096 A 
ENDBRANCH  23  24
ENDBRANCH  22  23
ENDBRANCH  19  22
ENDBRANCH   1  18
TORSDOF 7
ENDMDL
MODEL 4
REMARK VINA RESULT:     -10.4      5.264      8.303
REMARK  7 active torsions:
REMARK  status: ('A' for Active; 'I' for Inactive)
REMARK    1  A    between atoms: C_3  and  C_4 
REMARK    2  A    between atoms: C_4  and  C_5 
REMARK    3  A    between atoms: C_5  and  C_6 
REMARK       I    between atoms: C_6  and  N_7 
REMARK    4  A    between atoms: N_7  and  C_8 
REMARK    5  A    between atoms: C_8  and  C_9 
REMARK    6  A    between atoms: C_9  and  C_10 
REMARK    7  A    between atoms: C_29  and  O_30 
ROOT
HETATM    1  C   UNL     1       5.903  27.681  54.565  1.00  0.00     0.107 C 
ENDROOT
BRANCH   1   2
HETATM    2  C   UNL     1       7.277  27.080  54.239  1.00  0.00     0.055 C 
BRANCH   2   3
HETATM    3  C   UNL     1       7.557  25.606  54.510  1.00  0.00     0.025 A 
HETATM    4  C   UNL     1       7.659  24.706  53.501  1.00  0.00    -0.037 A 
HETATM    5  C   UNL     1       7.438  25.057  52.046  1.00  0.00     0.050 C 
HETATM    6  C   UNL     1       7.965  23.290  53.798  1.00  0.00     0.005 A 
HETATM    7  C   UNL     1       8.084  22.879  55.126  1.00  0.00     0.099 A 
HETATM    8  C   UNL     1       8.147  22.317  52.806  1.00  0.00     0.017 A 
HETATM    9  O   UNL     1       7.934  23.823  56.158  1.00  0.00    -0.274 OA
HETATM   10  C   UNL     1       8.352  21.547  55.504  1.00  0.00     0.006 A 
HETATM   11  C   UNL     1       7.685  25.165  55.928  1.00  0.00     0.295 A 
HETATM   12  O   UNL     1       7.566  25.933  56.876  1.00  0.00    -0.259 OA
HETATM   13  C   UNL     1       8.459  21.150  56.948  1.00  0.00     0.054 C 
HETATM   14  C   UNL     1       8.516  20.611  54.478  1.00  0.00     0.074 A 
HETATM   15  C   UNL     1       8.418  20.989  53.144  1.00  0.00     0.038 A 
BRANCH  14  16
HETATM   16  O   UNL     1       8.781  19.290  54.704  1.00  0.00    -0.360 OA
HETATM   17  H   UNL     1       8.915  18.833  53.861  1.00  0.00     0.217 HD
ENDBRANCH  14  16
ENDBRANCH   2   3
ENDBRANCH   1   2
BRANCH   1  18
HETATM   18  C   UNL     1       5.164  28.057  53.294  1.00  0.00     0.217 C 
HETATM   19  N   UNL     1       5.890  28.887  52.463  1.00  0.00    -0.361 N 
HETATM   20  H   UNL     1       6.685  29.369  52.865  1.00  0.00     0.162 HD
HETATM   21  O   UNL     1       4.033  27.663  53.028  1.00  0.00    -0.274 OA
BRANCH  19  22
HETATM   22  C   UNL     1       5.267  29.445  51.275  1.00  0.00     0.127 C 
BRANCH  22  23
HETATM   23  C   UNL     1       5.738  28.767  49.989  1.00  0.00     0.060 C 
BRANCH  23  24
HETATM   24  C   UNL     1       4.761  27.740  49.511  1.00  0.00    -0.029 A 
HETATM   25  C   UNL     1       3.678  27.950  48.597  1.00  0.00    -0.000 A 
HETATM   26  C   UNL     1       3.045  26.721  48.407  1.00  0.00     0.043 A 
HETATM   27  C   UNL     1       3.184  29.077  47.907  1.00  0.00     0.038 A 
HETATM   28  C   UNL     1       1.942  26.556  47.560  1.00  0.00     0.032 A 
HETATM   29  N   UNL     1       3.712  25.800  49.181  1.00  0.00    -0.365 N 
HETATM   30  C   UNL     1       1.469  27.686  46.887  1.00  0.00     0.026 A 
HETATM   31  C   UNL     1       2.081  28.925  47.061  1.00  0.00     0.035 A 
HETATM   32 CL   UNL     1       1.470  30.298  46.217  1.00  0.00    -0.084 Cl
HETATM   33  H   UNL     1       3.474  24.819  49.237  1.00  0.00     0.165 HD
HETATM   34  C   UNL     1       4.743  26.401  49.850  1.00  0.00     0.096 A 
ENDBRANCH  23  24
ENDBRANCH  22  23
ENDBRANCH  19  22
ENDBRANCH   1  18
TORSDOF 7
ENDMDL
MODEL 5
REMARK VINA RESULT:     -10.3      4.260     11.116
REMARK  7 active torsions:
REMARK  status: ('A' for Active; 'I' for Inactive)
REMARK    1  A    between atoms: C_3  and  C_4 
REMARK    2  A    between atoms: C_4  and  C_5 
REMARK    3  A    between atoms: C_5  and  C_6 
REMARK       I    between atoms: C_6  and  N_7 
REMARK    4  A    between atoms: N_7  and  C_8 
REMARK    5  A    between atoms: C_8  and  C_9 
REMARK    6  A    between atoms: C_9  and  C_10 
REMARK    7  A    between atoms: C_29  and  O_30 
ROOT
HETATM    1  C   UNL     1       8.338  29.946  58.836  1.00  0.00     0.107 C 
ENDROOT
BRANCH   1   2
HETATM    2  C   UNL     1       8.211  31.458  59.066  1.00  0.00     0.055 C 
BRANCH   2   3
HETATM    3  C   UNL     1       7.477  31.992  60.291  1.00  0.00     0.025 A 
HETATM    4  C   UNL     1       8.099  32.128  61.489  1.00  0.00    -0.037 A 
HETATM    5  C   UNL     1       9.531  31.704  61.736  1.00  0.00     0.050 C 
HETATM    6  C   UNL     1       7.367  32.681  62.648  1.00  0.00     0.005 A 
HETATM    7  C   UNL     1       6.015  33.000  62.514  1.00  0.00     0.099 A 
HETATM    8  C   UNL     1       7.960  32.909  63.897  1.00  0.00     0.017 A 
HETATM    9  O   UNL     1       5.379  32.813  61.273  1.00  0.00    -0.274 OA
HETATM   10  C   UNL     1       5.231  33.512  63.570  1.00  0.00     0.006 A 
HETATM   11  C   UNL     1       6.034  32.335  60.151  1.00  0.00     0.295 A 
HETATM   12  O   UNL     1       5.416  32.196  59.100  1.00  0.00    -0.259 OA
HETATM   13  C   UNL     1       3.776  33.830  63.381  1.00  0.00     0.054 C 
HETATM   14  C   UNL     1       5.866  33.713  64.799  1.00  0.00     0.074 A 
HETATM   15  C   UNL     1       7.215  33.418  64.963  1.00  0.00     0.038 A 
BRANCH  14  16
HETATM   16  O   UNL     1       5.226  34.203  65.901  1.00  0.00    -0.360 OA
HETATM   17  H   UNL     1       4.537  34.829  65.630  1.00  0.00     0.217 HD
ENDBRANCH  14  16
ENDBRANCH   2   3
ENDBRANCH   1   2
BRANCH   1  18
HETATM   18  C   UNL     1       7.676  29.542  57.532  1.00  0.00     0.217 C 
HETATM   19  N   UNL     1       7.904  28.225  57.188  1.00  0.00    -0.361 N 
HETATM   20  H   UNL     1       8.667  27.747  57.652  1.00  0.00     0.162 HD
HETATM   21  O   UNL     1       7.004  30.308  56.850  1.00  0.00    -0.274 OA
BRANCH  19  22
HETATM   22  C   UNL     1       7.453  27.726  55.900  1.00  0.00     0.127 C 
BRANCH  22  23
HETATM   23  C   UNL     1       7.009  26.264  55.957  1.00  0.00     0.060 C 
BRANCH  23  24
HETATM   24  C   UNL     1       7.392  25.517  54.719  1.00  0.00    -0.029 A 
HETATM   25  C   UNL     1       7.566  24.101  54.595  1.00  0.00    -0.000 A 
HETATM   26  C   UNL     1       7.892  23.833  53.264  1.00  0.00     0.043 A 
HETATM   27  C   UNL     1       7.467  23.019  55.495  1.00  0.00     0.038 A 
HETATM   28  C   UNL     1       8.123  22.539  52.783  1.00  0.00     0.032 A 
HETATM   29  N   UNL     1       7.922  25.040  52.606  1.00  0.00    -0.365 N 
HETATM   30  C   UNL     1       8.020  21.482  53.693  1.00  0.00     0.026 A 
HETATM   31  C   UNL     1       7.699  21.722  55.027  1.00  0.00     0.035 A 
HETATM   32 CL   UNL     1       7.583  20.397  56.123  1.00  0.00    -0.084 Cl
HETATM   33  H   UNL     1       8.128  25.151  51.623  1.00  0.00     0.165 HD
HETATM   34  C   UNL     1       7.626  26.059  53.470  1.00  0.00     0.096 A 
ENDBRANCH  23  24
ENDBRANCH  22  23
ENDBRANCH  19  22
ENDBRANCH   1  18
TORSDOF 7
ENDMDL
MODEL 6
REMARK VINA RESULT:     -10.2      1.452      1.794
REMARK  7 active torsions:
REMARK  status: ('A' for Active; 'I' for Inactive)
REMARK    1  A    between atoms: C_3  and  C_4 
REMARK    2  A    between atoms: C_4  and  C_5 
REMARK    3  A    between atoms: C_5  and  C_6 
REMARK       I    between atoms: C_6  and  N_7 
REMARK    4  A    between atoms: N_7  and  C_8 
REMARK    5  A    between atoms: C_8  and  C_9 
REMARK    6  A    between atoms: C_9  and  C_10 
REMARK    7  A    between atoms: C_29  and  O_30 
ROOT
HETATM    1  C   UNL     1       5.640  27.375  53.927  1.00  0.00     0.107 C 
ENDROOT
BRANCH   1   2
HETATM    2  C   UNL     1       7.096  26.927  54.111  1.00  0.00     0.055 C 
BRANCH   2   3
HETATM    3  C   UNL     1       7.420  25.470  54.422  1.00  0.00     0.025 A 
HETATM    4  C   UNL     1       7.618  24.560  53.436  1.00  0.00    -0.037 A 
HETATM    5  C   UNL     1       7.468  24.881  51.964  1.00  0.00     0.050 C 
HETATM    6  C   UNL     1       7.964  23.163  53.772  1.00  0.00     0.005 A 
HETATM    7  C   UNL     1       8.022  22.776  55.112  1.00  0.00     0.099 A 
HETATM    8  C   UNL     1       8.244  22.184  52.809  1.00  0.00     0.017 A 
HETATM    9  O   UNL     1       7.774  23.727  56.118  1.00  0.00    -0.274 OA
HETATM   10  C   UNL     1       8.322  21.462  55.526  1.00  0.00     0.006 A 
HETATM   11  C   UNL     1       7.484  25.055  55.852  1.00  0.00     0.295 A 
HETATM   12  O   UNL     1       7.278  25.829  56.779  1.00  0.00    -0.259 OA
HETATM   13  C   UNL     1       8.362  21.090  56.981  1.00  0.00     0.054 C 
HETATM   14  C   UNL     1       8.584  20.519  54.528  1.00  0.00     0.074 A 
HETATM   15  C   UNL     1       8.549  20.874  53.184  1.00  0.00     0.038 A 
BRANCH  14  16
HETATM   16  O   UNL     1       8.890  19.214  54.790  1.00  0.00    -0.360 OA
HETATM   17  H   UNL     1       9.719  19.165  55.290  1.00  0.00     0.217 HD
ENDBRANCH  14  16
ENDBRANCH   2   3
ENDBRANCH   1   2
BRANCH   1  18
HETATM   18  C   UNL     1       5.205  28.275  55.068  1.00  0.00     0.217 C 
HETATM   19  N   UNL     1       5.671  29.570  54.953  1.00  0.00    -0.361 N 
HETATM   20  H   UNL     1       6.438  29.734  54.312  1.00  0.00     0.162 HD
HETATM   21  O   UNL     1       4.509  27.893  56.003  1.00  0.00    -0.274 OA
BRANCH  19  22
HETATM   22  C   UNL     1       5.455  30.515  56.036  1.00  0.00     0.127 C 
BRANCH  22  23
HETATM   23  C   UNL     1       6.561  30.466  57.089  1.00  0.00     0.060 C 
BRANCH  23  24
HETATM   24  C   UNL     1       6.313  31.434  58.202  1.00  0.00    -0.029 A 
HETATM   25  C   UNL     1       7.008  31.495  59.453  1.00  0.00    -0.000 A 
HETATM   26  C   UNL     1       6.478  32.564  60.177  1.00  0.00     0.043 A 
HETATM   27  C   UNL     1       8.050  30.740  60.032  1.00  0.00     0.038 A 
HETATM   28  C   UNL     1       6.934  32.922  61.451  1.00  0.00     0.032 A 
HETATM   29  N   UNL     1       5.492  33.127  59.399  1.00  0.00    -0.365 N 
HETATM   30  C   UNL     1       7.966  32.159  62.006  1.00  0.00     0.026 A 
HETATM   31  C   UNL     1       8.512  31.086  61.306  1.00  0.00     0.035 A 
HETATM   32 CL   UNL     1       9.781  30.165  62.020  1.00  0.00    -0.084 Cl
HETATM   33  H   UNL     1       4.937  33.927  59.670  1.00  0.00     0.165 HD
HETATM   34  C   UNL     1       5.383  32.456  58.212  1.00  0.00     0.096 A 
ENDBRANCH  23  24
ENDBRANCH  22  23
ENDBRANCH  19  22
ENDBRANCH   1  18
TORSDOF 7
ENDMDL
MODEL 7
REMARK VINA RESULT:     -10.1      5.509      8.340
REMARK  7 active torsions:
REMARK  status: ('A' for Active; 'I' for Inactive)
REMARK    1  A    between atoms: C_3  and  C_4 
REMARK    2  A    between atoms: C_4  and  C_5 
REMARK    3  A    between atoms: C_5  and  C_6 
REMARK       I    between atoms: C_6  and  N_7 
REMARK    4  A    between atoms: N_7  and  C_8 
REMARK    5  A    between atoms: C_8  and  C_9 
REMARK    6  A    between atoms: C_9  and  C_10 
REMARK    7  A    between atoms: C_29  and  O_30 
ROOT
HETATM    1  C   UNL     1       4.843  27.033  54.607  1.00  0.00     0.107 C 
ENDROOT
BRANCH   1   2
HETATM    2  C   UNL     1       6.274  26.709  54.158  1.00  0.00     0.055 C 
BRANCH   2   3
HETATM    3  C   UNL     1       6.780  25.271  54.173  1.00  0.00     0.025 A 
HETATM    4  C   UNL     1       7.210  24.681  55.316  1.00  0.00    -0.037 A 
HETATM    5  C   UNL     1       7.296  25.402  56.644  1.00  0.00     0.050 C 
HETATM    6  C   UNL     1       7.663  23.274  55.301  1.00  0.00     0.005 A 
HETATM    7  C   UNL     1       7.702  22.581  54.090  1.00  0.00     0.099 A 
HETATM    8  C   UNL     1       8.061  22.580  56.452  1.00  0.00     0.017 A 
HETATM    9  O   UNL     1       7.289  23.225  52.910  1.00  0.00    -0.274 OA
HETATM   10  C   UNL     1       8.140  21.244  53.977  1.00  0.00     0.006 A 
HETATM   11  C   UNL     1       6.822  24.528  52.882  1.00  0.00     0.295 A 
HETATM   12  O   UNL     1       6.478  25.027  51.816  1.00  0.00    -0.259 OA
HETATM   13  C   UNL     1       8.176  20.543  52.650  1.00  0.00     0.054 C 
HETATM   14  C   UNL     1       8.536  20.598  55.151  1.00  0.00     0.074 A 
HETATM   15  C   UNL     1       8.496  21.254  56.376  1.00  0.00     0.038 A 
BRANCH  14  16
HETATM   16  O   UNL     1       8.978  19.306  55.183  1.00  0.00    -0.360 OA
HETATM   17  H   UNL     1       8.802  18.877  54.333  1.00  0.00     0.217 HD
ENDBRANCH  14  16
ENDBRANCH   2   3
ENDBRANCH   1   2
BRANCH   1  18
HETATM   18  C   UNL     1       4.350  28.310  53.952  1.00  0.00     0.217 C 
HETATM   19  N   UNL     1       3.391  28.093  52.983  1.00  0.00    -0.361 N 
HETATM   20  H   UNL     1       3.302  27.153  52.617  1.00  0.00     0.162 HD
HETATM   21  O   UNL     1       4.761  29.426  54.252  1.00  0.00    -0.274 OA
BRANCH  19  22
HETATM   22  C   UNL     1       2.920  29.202  52.171  1.00  0.00     0.127 C 
BRANCH  22  23
HETATM   23  C   UNL     1       3.875  29.541  51.026  1.00  0.00     0.060 C 
BRANCH  23  24
HETATM   24  C   UNL     1       4.234  28.330  50.224  1.00  0.00    -0.029 A 
HETATM   25  C   UNL     1       3.444  27.718  49.198  1.00  0.00    -0.000 A 
HETATM   26  C   UNL     1       4.171  26.638  48.696  1.00  0.00     0.043 A 
HETATM   27  C   UNL     1       2.175  27.992  48.645  1.00  0.00     0.038 A 
HETATM   28  C   UNL     1       3.699  25.816  47.667  1.00  0.00     0.032 A 
HETATM   29  N   UNL     1       5.356  26.591  49.394  1.00  0.00    -0.365 N 
HETATM   30  C   UNL     1       2.439  26.105  47.134  1.00  0.00     0.026 A 
HETATM   31  C   UNL     1       1.691  27.175  47.619  1.00  0.00     0.035 A 
HETATM   32 CL   UNL     1       0.141  27.502  46.941  1.00  0.00    -0.084 Cl
HETATM   33  H   UNL     1       6.085  25.909  49.238  1.00  0.00     0.165 HD
HETATM   34  C   UNL     1       5.404  27.601  50.316  1.00  0.00     0.096 A 
ENDBRANCH  23  24
ENDBRANCH  22  23
ENDBRANCH  19  22
ENDBRANCH   1  18
TORSDOF 7
ENDMDL
MODEL 8
REMARK VINA RESULT:     -10.1      5.391      8.339
REMARK  7 active torsions:
REMARK  status: ('A' for Active; 'I' for Inactive)
REMARK    1  A    between atoms: C_3  and  C_4 
REMARK    2  A    between atoms: C_4  and  C_5 
REMARK    3  A    between atoms: C_5  and  C_6 
REMARK       I    between atoms: C_6  and  N_7 
REMARK    4  A    between atoms: N_7  and  C_8 
REMARK    5  A    between atoms: C_8  and  C_9 
REMARK    6  A    between atoms: C_9  and  C_10 
REMARK    7  A    between atoms: C_29  and  O_30 
ROOT
HETATM    1  C   UNL     1       5.321  27.343  54.550  1.00  0.00     0.107 C 
ENDROOT
BRANCH   1   2
HETATM    2  C   UNL     1       6.758  26.880  54.278  1.00  0.00     0.055 C 
BRANCH   2   3
HETATM    3  C   UNL     1       7.162  25.432  54.533  1.00  0.00     0.025 A 
HETATM    4  C   UNL     1       7.350  24.557  53.513  1.00  0.00    -0.037 A 
HETATM    5  C   UNL     1       7.112  24.908  52.061  1.00  0.00     0.050 C 
HETATM    6  C   UNL     1       7.775  23.169  53.794  1.00  0.00     0.005 A 
HETATM    7  C   UNL     1       7.918  22.752  55.118  1.00  0.00     0.099 A 
HETATM    8  C   UNL     1       8.049  22.229  52.792  1.00  0.00     0.017 A 
HETATM    9  O   UNL     1       7.678  23.665  56.161  1.00  0.00    -0.274 OA
HETATM   10  C   UNL     1       8.297  21.443  55.481  1.00  0.00     0.006 A 
HETATM   11  C   UNL     1       7.316  24.984  55.946  1.00  0.00     0.295 A 
HETATM   12  O   UNL     1       7.123  25.725  56.903  1.00  0.00    -0.259 OA
HETATM   13  C   UNL     1       8.426  21.037  56.921  1.00  0.00     0.054 C 
HETATM   14  C   UNL     1       8.550  20.539  54.446  1.00  0.00     0.074 A 
HETATM   15  C   UNL     1       8.431  20.925  53.115  1.00  0.00     0.038 A 
BRANCH  14  16
HETATM   16  O   UNL     1       8.926  19.243  54.657  1.00  0.00    -0.360 OA
HETATM   17  H   UNL     1       9.372  19.166  55.513  1.00  0.00     0.217 HD
ENDBRANCH  14  16
ENDBRANCH   2   3
ENDBRANCH   1   2
BRANCH   1  18
HETATM   18  C   UNL     1       4.733  28.021  53.327  1.00  0.00     0.217 C 
HETATM   19  N   UNL     1       5.633  28.831  52.663  1.00  0.00    -0.361 N 
HETATM   20  H   UNL     1       6.468  29.107  53.164  1.00  0.00     0.162 HD
HETATM   21  O   UNL     1       3.572  27.867  52.961  1.00  0.00    -0.274 OA
BRANCH  19  22
HETATM   22  C   UNL     1       5.183  29.655  51.554  1.00  0.00     0.127 C 
BRANCH  22  23
HETATM   23  C   UNL     1       5.626  29.109  50.197  1.00  0.00     0.060 C 
BRANCH  23  24
HETATM   24  C   UNL     1       4.544  29.223  49.170  1.00  0.00    -0.029 A 
HETATM   25  C   UNL     1       3.800  28.146  48.589  1.00  0.00    -0.000 A 
HETATM   26  C   UNL     1       2.876  28.703  47.705  1.00  0.00     0.043 A 
HETATM   27  C   UNL     1       3.825  26.744  48.743  1.00  0.00     0.038 A 
HETATM   28  C   UNL     1       1.971  27.934  46.965  1.00  0.00     0.032 A 
HETATM   29  N   UNL     1       3.056  30.066  47.741  1.00  0.00    -0.365 N 
HETATM   30  C   UNL     1       2.014  26.546  47.132  1.00  0.00     0.026 A 
HETATM   31  C   UNL     1       2.928  25.964  48.007  1.00  0.00     0.035 A 
HETATM   32 CL   UNL     1       2.955  24.250  48.187  1.00  0.00    -0.084 Cl
HETATM   33  H   UNL     1       2.517  30.729  47.200  1.00  0.00     0.165 HD
HETATM   34  C   UNL     1       4.056  30.390  48.616  1.00  0.00     0.096 A 
ENDBRANCH  23  24
ENDBRANCH  22  23
ENDBRANCH  19  22
ENDBRANCH   1  18
TORSDOF 7
ENDMDL
MODEL 9
REMARK VINA RESULT:      -9.6      1.861      2.770
REMARK  7 active torsions:
REMARK  status: ('A' for Active; 'I' for Inactive)
REMARK    1  A    between atoms: C_3  and  C_4 
REMARK    2  A    between atoms: C_4  and  C_5 
REMARK    3  A    between atoms: C_5  and  C_6 
REMARK       I    between atoms: C_6  and  N_7 
REMARK    4  A    between atoms: N_7  and  C_8 
REMARK    5  A    between atoms: C_8  and  C_9 
REMARK    6  A    between atoms: C_9  and  C_10 
REMARK    7  A    between atoms: C_29  and  O_30 
ROOT
HETATM    1  C   UNL     1       5.298  27.238  54.140  1.00  0.00     0.107 C 
ENDROOT
BRANCH   1   2
HETATM    2  C   UNL     1       6.774  26.837  54.248  1.00  0.00     0.055 C 
BRANCH   2   3
HETATM    3  C   UNL     1       7.176  25.366  54.247  1.00  0.00     0.025 A 
HETATM    4  C   UNL     1       7.497  24.717  55.394  1.00  0.00    -0.037 A 
HETATM    5  C   UNL     1       7.554  25.394  56.746  1.00  0.00     0.050 C 
HETATM    6  C   UNL     1       7.849  23.282  55.361  1.00  0.00     0.005 A 
HETATM    7  C   UNL     1       7.912  22.620  54.133  1.00  0.00     0.099 A 
HETATM    8  C   UNL     1       8.130  22.530  56.510  1.00  0.00     0.017 A 
HETATM    9  O   UNL     1       7.615  23.324  52.952  1.00  0.00    -0.274 OA
HETATM   10  C   UNL     1       8.260  21.260  54.004  1.00  0.00     0.006 A 
HETATM   11  C   UNL     1       7.243  24.658  52.938  1.00  0.00     0.295 A 
HETATM   12  O   UNL     1       6.998  25.209  51.871  1.00  0.00    -0.259 OA
HETATM   13  C   UNL     1       8.325  20.594  52.659  1.00  0.00     0.054 C 
HETATM   14  C   UNL     1       8.541  20.556  55.178  1.00  0.00     0.074 A 
HETATM   15  C   UNL     1       8.475  21.180  56.419  1.00  0.00     0.038 A 
BRANCH  14  16
HETATM   16  O   UNL     1       8.889  19.235  55.195  1.00  0.00    -0.360 OA
HETATM   17  H   UNL     1       9.319  18.997  54.360  1.00  0.00     0.217 HD
ENDBRANCH  14  16
ENDBRANCH   2   3
ENDBRANCH   1   2
BRANCH   1  18
HETATM   18  C   UNL     1       4.964  28.338  55.131  1.00  0.00     0.217 C 
HETATM   19  N   UNL     1       5.588  29.536  54.850  1.00  0.00    -0.361 N 
HETATM   20  H   UNL     1       6.378  29.513  54.216  1.00  0.00     0.162 HD
HETATM   21  O   UNL     1       4.213  28.180  56.088  1.00  0.00    -0.274 OA
BRANCH  19  22
HETATM   22  C   UNL     1       5.478  30.645  55.783  1.00  0.00     0.127 C 
BRANCH  22  23
HETATM   23  C   UNL     1       6.288  30.423  57.060  1.00  0.00     0.060 C 
BRANCH  23  24
HETATM   24  C   UNL     1       5.782  31.258  58.193  1.00  0.00    -0.029 A 
HETATM   25  C   UNL     1       6.537  31.719  59.319  1.00  0.00    -0.000 A 
HETATM   26  C   UNL     1       5.683  32.488  60.111  1.00  0.00     0.043 A 
HETATM   27  C   UNL     1       7.876  31.558  59.732  1.00  0.00     0.038 A 
HETATM   28  C   UNL     1       6.096  33.107  61.297  1.00  0.00     0.032 A 
HETATM   29  N   UNL     1       4.453  32.488  59.494  1.00  0.00    -0.365 N 
HETATM   30  C   UNL     1       7.427  32.933  61.687  1.00  0.00     0.026 A 
HETATM   31  C   UNL     1       8.300  32.169  60.916  1.00  0.00     0.035 A 
HETATM   32 CL   UNL     1       9.934  31.973  61.428  1.00  0.00    -0.084 Cl
HETATM   33  H   UNL     1       3.638  32.972  59.845  1.00  0.00     0.165 HD
HETATM   34  C   UNL     1       4.500  31.751  58.342  1.00  0.00     0.096 A 
ENDBRANCH  23  24
ENDBRANCH  22  23
ENDBRANCH  19  22
ENDBRANCH   1  18
TORSDOF 7
ENDMDL
MODEL 10
REMARK VINA RESULT:      -9.6      1.609      2.464
REMARK  7 active torsions:
REMARK  status: ('A' for Active; 'I' for Inactive)
REMARK    1  A    between atoms: C_3  and  C_4 
REMARK    2  A    between atoms: C_4  and  C_5 
REMARK    3  A    between atoms: C_5  and  C_6 
REMARK       I    between atoms: C_6  and  N_7 
REMARK    4  A    between atoms: N_7  and  C_8 
REMARK    5  A    between atoms: C_8  and  C_9 
REMARK    6  A    between atoms: C_9  and  C_10 
REMARK    7  A    between atoms: C_29  and  O_30 
ROOT
HETATM    1  C   UNL     1       5.951  27.377  54.499  1.00  0.00     0.107 C 
ENDROOT
BRANCH   1   2
HETATM    2  C   UNL     1       7.365  26.842  54.238  1.00  0.00     0.055 C 
BRANCH   2   3
HETATM    3  C   UNL     1       7.633  25.341  54.237  1.00  0.00     0.025 A 
HETATM    4  C   UNL     1       7.896  24.666  55.383  1.00  0.00    -0.037 A 
HETATM    5  C   UNL     1       8.015  25.336  56.735  1.00  0.00     0.050 C 
HETATM    6  C   UNL     1       8.118  23.205  55.350  1.00  0.00     0.005 A 
HETATM    7  C   UNL     1       8.120  22.540  54.123  1.00  0.00     0.099 A 
HETATM    8  C   UNL     1       8.332  22.431  56.500  1.00  0.00     0.017 A 
HETATM    9  O   UNL     1       7.886  23.268  52.942  1.00  0.00    -0.274 OA
HETATM   10  C   UNL     1       8.345  21.154  53.993  1.00  0.00     0.006 A 
HETATM   11  C   UNL     1       7.635  24.630  52.928  1.00  0.00     0.295 A 
HETATM   12  O   UNL     1       7.439  25.200  51.861  1.00  0.00    -0.259 OA
HETATM   13  C   UNL     1       8.348  20.485  52.649  1.00  0.00     0.054 C 
HETATM   14  C   UNL     1       8.563  20.428  55.167  1.00  0.00     0.074 A 
HETATM   15  C   UNL     1       8.554  21.055  56.408  1.00  0.00     0.038 A 
BRANCH  14  16
HETATM   16  O   UNL     1       8.791  19.081  55.184  1.00  0.00    -0.360 OA
HETATM   17  H   UNL     1       9.393  18.859  55.910  1.00  0.00     0.217 HD
ENDBRANCH  14  16
ENDBRANCH   2   3
ENDBRANCH   1   2
BRANCH   1  18
HETATM   18  C   UNL     1       5.834  27.925  55.909  1.00  0.00     0.217 C 
HETATM   19  N   UNL     1       6.867  28.773  56.255  1.00  0.00    -0.361 N 
HETATM   20  H   UNL     1       7.704  28.744  55.685  1.00  0.00     0.162 HD
HETATM   21  O   UNL     1       4.913  27.644  56.669  1.00  0.00    -0.274 OA
BRANCH  19  22
HETATM   22  C   UNL     1       6.971  29.269  57.617  1.00  0.00     0.127 C 
BRANCH  22  23
HETATM   23  C   UNL     1       6.385  30.671  57.780  1.00  0.00     0.060 C 
BRANCH  23  24
HETATM   24  C   UNL     1       7.021  31.413  58.911  1.00  0.00    -0.029 A 
HETATM   25  C   UNL     1       6.347  32.160  59.931  1.00  0.00    -0.000 A 
HETATM   26  C   UNL     1       7.320  32.660  60.797  1.00  0.00     0.043 A 
HETATM   27  C   UNL     1       4.993  32.448  60.200  1.00  0.00     0.038 A 
HETATM   28  C   UNL     1       7.012  33.434  61.922  1.00  0.00     0.032 A 
HETATM   29  N   UNL     1       8.540  32.240  60.319  1.00  0.00    -0.365 N 
HETATM   30  C   UNL     1       5.663  33.708  62.169  1.00  0.00     0.026 A 
HETATM   31  C   UNL     1       4.672  33.222  61.319  1.00  0.00     0.035 A 
HETATM   32 CL   UNL     1       3.020  33.581  61.651  1.00  0.00    -0.084 Cl
HETATM   33  H   UNL     1       9.428  32.452  60.752  1.00  0.00     0.165 HD
HETATM   34  C   UNL     1       8.373  31.493  59.185  1.00  0.00     0.096 A 
ENDBRANCH  23  24
ENDBRANCH  22  23
ENDBRANCH  19  22
ENDBRANCH   1  18
TORSDOF 7
ENDMDL
