MODEL 1
REMARK VINA RESULT:     -10.3      0.000      0.000
REMARK  4 active torsions:
REMARK  status: ('A' for Active; 'I' for Inactive)
REMARK    1  A    between atoms: C_3  and  C_4 
REMARK    2  A    between atoms: C_14  and  N_15 
REMARK       I    between atoms: N_15  and  C_16 
REMARK    3  A    between atoms: C_16  and  C_17 
REMARK    4  A    between atoms: C_19  and  N_20 
ROOT
HETATM    1  N   UNL     1       7.491  27.528  55.710  1.00  0.00    -0.322 N 
HETATM    2  C   UNL     1       7.911  27.431  57.018  1.00  0.00     0.256 C 
HETATM    3  O   UNL     1       7.707  26.531  57.819  1.00  0.00    -0.267 OA
HETATM    4  H   UNL     1       7.721  28.386  55.218  1.00  0.00     0.169 HD
ENDROOT
BRANCH   1   5
HETATM    5  C   UNL     1       6.883  26.510  54.928  1.00  0.00     0.049 A 
HETATM    6  C   UNL     1       5.680  26.787  54.238  1.00  0.00     0.037 A 
HETATM    7  C   UNL     1       5.158  25.833  53.347  1.00  0.00     0.017 A 
HETATM    8  C   UNL     1       5.784  24.602  53.172  1.00  0.00     0.001 A 
HETATM    9  C   UNL     1       6.939  24.310  53.889  1.00  0.00     0.002 A 
HETATM   10  C   UNL     1       7.486  25.257  54.760  1.00  0.00     0.030 A 
BRANCH   6  11
HETATM   11  C   UNL     1       4.896  28.004  54.462  1.00  0.00     0.141 A 
HETATM   12  N   UNL     1       4.451  28.458  55.618  1.00  0.00    -0.228 NA
HETATM   13  C   UNL     1       3.816  29.644  55.337  1.00  0.00     0.086 A 
HETATM   14  C   UNL     1       3.882  29.933  53.980  1.00  0.00     0.062 A 
HETATM   15  C   UNL     1       3.160  30.536  56.197  1.00  0.00     0.034 A 
HETATM   16  N   UNL     1       4.598  28.893  53.453  1.00  0.00    -0.338 N 
HETATM   17  C   UNL     1       3.317  31.075  53.409  1.00  0.00     0.032 A 
HETATM   18  H   UNL     1       4.882  28.788  52.489  1.00  0.00     0.167 HD
HETATM   19  C   UNL     1       2.661  31.952  54.281  1.00  0.00     0.002 A 
HETATM   20  C   UNL     1       2.584  31.692  55.652  1.00  0.00     0.002 A 
ENDBRANCH   6  11
ENDBRANCH   1   5
BRANCH   2  21
HETATM   21  C   UNL     1       8.673  28.610  57.469  1.00  0.00     0.034 A 
HETATM   22  C   UNL     1       8.242  29.296  58.611  1.00  0.00     0.047 A 
HETATM   23  C   UNL     1       8.935  30.422  59.081  1.00  0.00     0.046 A 
HETATM   24  C   UNL     1      10.070  30.820  58.349  1.00  0.00     0.030 A 
HETATM   25  C   UNL     1      10.494  30.133  57.201  1.00  0.00     0.003 A 
HETATM   26  C   UNL     1       9.793  29.021  56.753  1.00  0.00     0.017 A 
BRANCH  23  27
HETATM   27  N   UNL     1       8.500  31.136  60.247  1.00  0.00    -0.252 N 
HETATM   28  C   UNL     1       7.628  32.205  60.228  1.00  0.00     0.231 C 
HETATM   29  O   UNL     1       6.984  32.667  59.296  1.00  0.00    -0.273 OA
HETATM   30  C   UNL     1       7.547  32.795  61.603  1.00  0.00     0.113 C 
HETATM   31  C   UNL     1       8.125  31.724  62.486  1.00  0.00     0.113 C 
HETATM   32  C   UNL     1       8.883  30.843  61.539  1.00  0.00     0.231 C 
HETATM   33  O   UNL     1       9.683  30.012  61.947  1.00  0.00    -0.273 OA
ENDBRANCH  23  27
ENDBRANCH   2  21
TORSDOF 4
ENDMDL
MODEL 2
REMARK VINA RESULT:     -10.3      2.720      7.555
REMARK  4 active torsions:
REMARK  status: ('A' for Active; 'I' for Inactive)
REMARK    1  A    between atoms: C_3  and  C_4 
REMARK    2  A    between atoms: C_14  and  N_15 
REMARK       I    between atoms: N_15  and  C_16 
REMARK    3  A    between atoms: C_16  and  C_17 
REMARK    4  A    between atoms: C_19  and  N_20 
ROOT
HETATM    1  N   UNL     1       6.064  27.755  55.700  1.00  0.00    -0.322 N 
HETATM    2  C   UNL     1       5.718  26.640  56.431  1.00  0.00     0.256 C 
HETATM    3  O   UNL     1       4.659  26.394  56.989  1.00  0.00    -0.267 OA
HETATM    4  H   UNL     1       7.018  27.797  55.355  1.00  0.00     0.169 HD
ENDROOT
BRANCH   1   5
HETATM    5  C   UNL     1       5.201  28.794  55.262  1.00  0.00     0.049 A 
HETATM    6  C   UNL     1       5.351  30.095  55.796  1.00  0.00     0.037 A 
HETATM    7  C   UNL     1       4.601  31.155  55.258  1.00  0.00     0.017 A 
HETATM    8  C   UNL     1       3.679  30.931  54.239  1.00  0.00     0.001 A 
HETATM    9  C   UNL     1       3.495  29.643  53.748  1.00  0.00     0.002 A 
HETATM   10  C   UNL     1       4.251  28.582  54.255  1.00  0.00     0.030 A 
BRANCH   6  11
HETATM   11  C   UNL     1       6.204  30.388  56.950  1.00  0.00     0.141 A 
HETATM   12  N   UNL     1       7.376  29.849  57.227  1.00  0.00    -0.228 NA
HETATM   13  C   UNL     1       7.813  30.466  58.374  1.00  0.00     0.086 A 
HETATM   14  C   UNL     1       6.897  31.417  58.806  1.00  0.00     0.062 A 
HETATM   15  C   UNL     1       8.993  30.269  59.105  1.00  0.00     0.034 A 
HETATM   16  N   UNL     1       5.901  31.368  57.869  1.00  0.00    -0.338 N 
HETATM   17  C   UNL     1       7.080  32.196  59.950  1.00  0.00     0.032 A 
HETATM   18  H   UNL     1       5.081  31.957  57.835  1.00  0.00     0.167 HD
HETATM   19  C   UNL     1       8.260  31.982  60.671  1.00  0.00     0.002 A 
HETATM   20  C   UNL     1       9.204  31.038  60.257  1.00  0.00     0.002 A 
ENDBRANCH   6  11
ENDBRANCH   1   5
BRANCH   2  21
HETATM   21  C   UNL     1       6.817  25.665  56.554  1.00  0.00     0.034 A 
HETATM   22  C   UNL     1       6.862  24.582  55.668  1.00  0.00     0.047 A 
HETATM   23  C   UNL     1       7.890  23.630  55.743  1.00  0.00     0.046 A 
HETATM   24  C   UNL     1       8.858  23.820  56.747  1.00  0.00     0.030 A 
HETATM   25  C   UNL     1       8.806  24.903  57.637  1.00  0.00     0.003 A 
HETATM   26  C   UNL     1       7.779  25.834  57.545  1.00  0.00     0.017 A 
BRANCH  23  27
HETATM   27  N   UNL     1       7.942  22.513  54.844  1.00  0.00    -0.252 N 
HETATM   28  C   UNL     1       8.067  22.619  53.474  1.00  0.00     0.231 C 
HETATM   29  O   UNL     1       8.271  23.609  52.785  1.00  0.00    -0.273 OA
HETATM   30  C   UNL     1       7.911  21.260  52.862  1.00  0.00     0.113 C 
HETATM   31  C   UNL     1       8.098  20.322  54.022  1.00  0.00     0.113 C 
HETATM   32  C   UNL     1       7.888  21.189  55.227  1.00  0.00     0.231 C 
HETATM   33  O   UNL     1       7.721  20.705  56.338  1.00  0.00    -0.273 OA
ENDBRANCH  23  27
ENDBRANCH   2  21
TORSDOF 4
ENDMDL
MODEL 3
REMARK VINA RESULT:     -10.2      1.647      2.681
REMARK  4 active torsions:
REMARK  status: ('A' for Active; 'I' for Inactive)
REMARK    1  A    between atoms: C_3  and  C_4 
REMARK    2  A    between atoms: C_14  and  N_15 
REMARK       I    between atoms: N_15  and  C_16 
REMARK    3  A    between atoms: C_16  and  C_17 
REMARK    4  A    between atoms: C_19  and  N_20 
ROOT
HETATM    1  N   UNL     1       8.290  26.430  56.196  1.00  0.00    -0.322 N 
HETATM    2  C   UNL     1       7.590  27.265  57.039  1.00  0.00     0.256 C 
HETATM    3  O   UNL     1       6.450  27.141  57.461  1.00  0.00    -0.267 OA
HETATM    4  H   UNL     1       9.217  26.734  55.917  1.00  0.00     0.169 HD
ENDROOT
BRANCH   1   5
HETATM    5  C   UNL     1       7.912  25.127  55.775  1.00  0.00     0.049 A 
HETATM    6  C   UNL     1       7.069  24.976  54.649  1.00  0.00     0.037 A 
HETATM    7  C   UNL     1       6.816  23.690  54.141  1.00  0.00     0.017 A 
HETATM    8  C   UNL     1       7.347  22.562  54.760  1.00  0.00     0.001 A 
HETATM    9  C   UNL     1       8.134  22.706  55.897  1.00  0.00     0.002 A 
HETATM   10  C   UNL     1       8.416  23.980  56.401  1.00  0.00     0.030 A 
BRANCH   6  11
HETATM   11  C   UNL     1       6.373  26.101  54.020  1.00  0.00     0.141 A 
HETATM   12  N   UNL     1       6.864  26.938  53.127  1.00  0.00    -0.228 NA
HETATM   13  C   UNL     1       5.834  27.787  52.800  1.00  0.00     0.086 A 
HETATM   14  C   UNL     1       4.678  27.457  53.497  1.00  0.00     0.062 A 
HETATM   15  C   UNL     1       5.810  28.866  51.905  1.00  0.00     0.034 A 
HETATM   16  N   UNL     1       5.040  26.367  54.241  1.00  0.00    -0.338 N 
HETATM   17  C   UNL     1       3.476  28.153  53.365  1.00  0.00     0.032 A 
HETATM   18  H   UNL     1       4.435  25.826  54.844  1.00  0.00     0.167 HD
HETATM   19  C   UNL     1       3.472  29.231  52.472  1.00  0.00     0.002 A 
HETATM   20  C   UNL     1       4.615  29.582  51.751  1.00  0.00     0.002 A 
ENDBRANCH   6  11
ENDBRANCH   1   5
BRANCH   2  21
HETATM   21  C   UNL     1       8.352  28.468  57.423  1.00  0.00     0.034 A 
HETATM   22  C   UNL     1       7.951  29.189  58.554  1.00  0.00     0.047 A 
HETATM   23  C   UNL     1       8.646  30.338  58.961  1.00  0.00     0.046 A 
HETATM   24  C   UNL     1       9.751  30.722  58.178  1.00  0.00     0.030 A 
HETATM   25  C   UNL     1      10.145  30.000  57.042  1.00  0.00     0.003 A 
HETATM   26  C   UNL     1       9.443  28.865  56.656  1.00  0.00     0.017 A 
BRANCH  23  27
HETATM   27  N   UNL     1       8.240  31.088  60.115  1.00  0.00    -0.252 N 
HETATM   28  C   UNL     1       8.671  30.836  61.401  1.00  0.00     0.231 C 
HETATM   29  O   UNL     1       9.525  30.055  61.796  1.00  0.00    -0.273 OA
HETATM   30  C   UNL     1       7.905  31.704  62.353  1.00  0.00     0.113 C 
HETATM   31  C   UNL     1       7.300  32.758  61.467  1.00  0.00     0.113 C 
HETATM   32  C   UNL     1       7.380  32.166  60.092  1.00  0.00     0.231 C 
HETATM   33  O   UNL     1       6.754  32.645  59.156  1.00  0.00    -0.273 OA
ENDBRANCH  23  27
ENDBRANCH   2  21
TORSDOF 4
ENDMDL
MODEL 4
REMARK VINA RESULT:     -10.1      2.509      6.970
REMARK  4 active torsions:
REMARK  status: ('A' for Active; 'I' for Inactive)
REMARK    1  A    between atoms: C_3  and  C_4 
REMARK    2  A    between atoms: C_14  and  N_15 
REMARK       I    between atoms: N_15  and  C_16 
REMARK    3  A    between atoms: C_16  and  C_17 
REMARK    4  A    between atoms: C_19  and  N_20 
ROOT
HETATM    1  N   UNL     1       7.818  31.326  60.453  1.00  0.00    -0.322 N 
HETATM    2  C   UNL     1       8.824  31.601  59.553  1.00  0.00     0.256 C 
HETATM    3  O   UNL     1       9.498  32.615  59.450  1.00  0.00    -0.267 OA
HETATM    4  H   UNL     1       7.338  30.438  60.345  1.00  0.00     0.169 HD
ENDROOT
BRANCH   1   5
HETATM    5  C   UNL     1       7.461  32.088  61.597  1.00  0.00     0.049 A 
HETATM    6  C   UNL     1       6.258  32.832  61.589  1.00  0.00     0.037 A 
HETATM    7  C   UNL     1       5.828  33.465  62.769  1.00  0.00     0.017 A 
HETATM    8  C   UNL     1       6.594  33.406  63.929  1.00  0.00     0.001 A 
HETATM    9  C   UNL     1       7.802  32.717  63.923  1.00  0.00     0.002 A 
HETATM   10  C   UNL     1       8.232  32.062  62.765  1.00  0.00     0.030 A 
BRANCH   6  11
HETATM   11  C   UNL     1       5.462  33.046  60.378  1.00  0.00     0.141 A 
HETATM   12  N   UNL     1       5.258  32.184  59.401  1.00  0.00    -0.228 NA
HETATM   13  C   UNL     1       4.417  32.812  58.514  1.00  0.00     0.086 A 
HETATM   14  C   UNL     1       4.083  34.084  58.962  1.00  0.00     0.062 A 
HETATM   15  C   UNL     1       3.887  32.351  57.300  1.00  0.00     0.034 A 
HETATM   16  N   UNL     1       4.735  34.196  60.160  1.00  0.00    -0.338 N 
HETATM   17  C   UNL     1       3.244  34.950  58.259  1.00  0.00     0.032 A 
HETATM   18  H   UNL     1       4.688  34.979  60.797  1.00  0.00     0.167 HD
HETATM   19  C   UNL     1       2.729  34.477  57.047  1.00  0.00     0.002 A 
HETATM   20  C   UNL     1       3.040  33.200  56.574  1.00  0.00     0.002 A 
ENDBRANCH   6  11
ENDBRANCH   1   5
BRANCH   2  21
HETATM   21  C   UNL     1       9.053  30.508  58.591  1.00  0.00     0.034 A 
HETATM   22  C   UNL     1       8.050  29.547  58.409  1.00  0.00     0.047 A 
HETATM   23  C   UNL     1       8.220  28.490  57.502  1.00  0.00     0.046 A 
HETATM   24  C   UNL     1       9.438  28.447  56.797  1.00  0.00     0.030 A 
HETATM   25  C   UNL     1      10.442  29.409  56.987  1.00  0.00     0.003 A 
HETATM   26  C   UNL     1      10.254  30.447  57.890  1.00  0.00     0.017 A 
BRANCH  23  27
HETATM   27  N   UNL     1       7.202  27.497  57.312  1.00  0.00    -0.252 N 
HETATM   28  C   UNL     1       5.971  27.740  56.739  1.00  0.00     0.231 C 
HETATM   29  O   UNL     1       5.553  28.753  56.194  1.00  0.00    -0.273 OA
HETATM   30  C   UNL     1       5.119  26.515  56.869  1.00  0.00     0.113 C 
HETATM   31  C   UNL     1       6.106  25.427  57.194  1.00  0.00     0.113 C 
HETATM   32  C   UNL     1       7.321  26.168  57.662  1.00  0.00     0.231 C 
HETATM   33  O   UNL     1       8.233  25.593  58.242  1.00  0.00    -0.273 OA
ENDBRANCH  23  27
ENDBRANCH   2  21
TORSDOF 4
ENDMDL
MODEL 5
REMARK VINA RESULT:     -10.0      4.453      7.798
REMARK  4 active torsions:
REMARK  status: ('A' for Active; 'I' for Inactive)
REMARK    1  A    between atoms: C_3  and  C_4 
REMARK    2  A    between atoms: C_14  and  N_15 
REMARK       I    between atoms: N_15  and  C_16 
REMARK    3  A    between atoms: C_16  and  C_17 
REMARK    4  A    between atoms: C_19  and  N_20 
ROOT
HETATM    1  N   UNL     1       5.913  27.771  53.936  1.00  0.00    -0.322 N 
HETATM    2  C   UNL     1       5.800  26.569  54.600  1.00  0.00     0.256 C 
HETATM    3  O   UNL     1       5.119  26.301  55.579  1.00  0.00    -0.267 OA
HETATM    4  H   UNL     1       6.576  27.808  53.168  1.00  0.00     0.169 HD
ENDROOT
BRANCH   1   5
HETATM    5  C   UNL     1       5.113  28.930  54.121  1.00  0.00     0.049 A 
HETATM    6  C   UNL     1       4.332  29.415  53.046  1.00  0.00     0.037 A 
HETATM    7  C   UNL     1       3.428  30.468  53.267  1.00  0.00     0.017 A 
HETATM    8  C   UNL     1       3.326  31.069  54.519  1.00  0.00     0.001 A 
HETATM    9  C   UNL     1       4.129  30.626  55.563  1.00  0.00     0.002 A 
HETATM   10  C   UNL     1       5.016  29.563  55.366  1.00  0.00     0.030 A 
BRANCH   6  11
HETATM   11  C   UNL     1       4.474  28.922  51.674  1.00  0.00     0.141 A 
HETATM   12  N   UNL     1       5.037  29.549  50.659  1.00  0.00    -0.228 NA
HETATM   13  C   UNL     1       4.976  28.679  49.598  1.00  0.00     0.086 A 
HETATM   14  C   UNL     1       4.374  27.484  49.969  1.00  0.00     0.062 A 
HETATM   15  C   UNL     1       5.422  28.841  48.278  1.00  0.00     0.034 A 
HETATM   16  N   UNL     1       4.093  27.653  51.298  1.00  0.00    -0.338 N 
HETATM   17  C   UNL     1       4.176  26.418  49.091  1.00  0.00     0.032 A 
HETATM   18  H   UNL     1       3.687  26.964  51.916  1.00  0.00     0.167 HD
HETATM   19  C   UNL     1       4.623  26.598  47.777  1.00  0.00     0.002 A 
HETATM   20  C   UNL     1       5.238  27.786  47.375  1.00  0.00     0.002 A 
ENDBRANCH   6  11
ENDBRANCH   1   5
BRANCH   2  21
HETATM   21  C   UNL     1       6.661  25.514  54.036  1.00  0.00     0.034 A 
HETATM   22  C   UNL     1       6.914  24.368  54.799  1.00  0.00     0.047 A 
HETATM   23  C   UNL     1       7.724  23.335  54.304  1.00  0.00     0.046 A 
HETATM   24  C   UNL     1       8.264  23.514  53.016  1.00  0.00     0.030 A 
HETATM   25  C   UNL     1       8.012  24.667  52.257  1.00  0.00     0.003 A 
HETATM   26  C   UNL     1       7.207  25.678  52.766  1.00  0.00     0.017 A 
BRANCH  23  27
HETATM   27  N   UNL     1       7.994  22.159  55.080  1.00  0.00    -0.252 N 
HETATM   28  C   UNL     1       8.403  22.170  56.397  1.00  0.00     0.231 C 
HETATM   29  O   UNL     1       8.498  23.109  57.175  1.00  0.00    -0.273 OA
HETATM   30  C   UNL     1       8.752  20.773  56.813  1.00  0.00     0.113 C 
HETATM   31  C   UNL     1       8.118  19.916  55.752  1.00  0.00     0.113 C 
HETATM   32  C   UNL     1       7.871  20.865  54.619  1.00  0.00     0.231 C 
HETATM   33  O   UNL     1       7.592  20.459  53.499  1.00  0.00    -0.273 OA
ENDBRANCH  23  27
ENDBRANCH   2  21
TORSDOF 4
ENDMDL
MODEL 6
REMARK VINA RESULT:      -9.8      4.320      9.581
REMARK  4 active torsions:
REMARK  status: ('A' for Active; 'I' for Inactive)
REMARK    1  A    between atoms: C_3  and  C_4 
REMARK    2  A    between atoms: C_14  and  N_15 
REMARK       I    between atoms: N_15  and  C_16 
REMARK    3  A    between atoms: C_16  and  C_17 
REMARK    4  A    between atoms: C_19  and  N_20 
ROOT
HETATM    1  N   UNL     1       5.819  27.000  54.282  1.00  0.00    -0.322 N 
HETATM    2  C   UNL     1       6.120  27.688  53.127  1.00  0.00     0.256 C 
HETATM    3  O   UNL     1       6.818  28.682  52.992  1.00  0.00    -0.267 OA
HETATM    4  H   UNL     1       5.174  26.221  54.195  1.00  0.00     0.169 HD
ENDROOT
BRANCH   1   5
HETATM    5  C   UNL     1       6.410  27.176  55.561  1.00  0.00     0.049 A 
HETATM    6  C   UNL     1       7.280  26.183  56.069  1.00  0.00     0.037 A 
HETATM    7  C   UNL     1       7.980  26.422  57.264  1.00  0.00     0.017 A 
HETATM    8  C   UNL     1       7.793  27.604  57.977  1.00  0.00     0.001 A 
HETATM    9  C   UNL     1       6.900  28.559  57.504  1.00  0.00     0.002 A 
HETATM   10  C   UNL     1       6.214  28.348  56.304  1.00  0.00     0.030 A 
BRANCH   6  11
HETATM   11  C   UNL     1       7.433  24.867  55.447  1.00  0.00     0.141 A 
HETATM   12  N   UNL     1       7.641  24.612  54.169  1.00  0.00    -0.228 NA
HETATM   13  C   UNL     1       7.765  23.248  54.072  1.00  0.00     0.086 A 
HETATM   14  C   UNL     1       7.644  22.648  55.319  1.00  0.00     0.062 A 
HETATM   15  C   UNL     1       7.989  22.445  52.944  1.00  0.00     0.034 A 
HETATM   16  N   UNL     1       7.464  23.698  56.177  1.00  0.00    -0.338 N 
HETATM   17  C   UNL     1       7.724  21.269  55.519  1.00  0.00     0.032 A 
HETATM   18  H   UNL     1       7.382  23.643  57.182  1.00  0.00     0.167 HD
HETATM   19  C   UNL     1       7.942  20.483  54.381  1.00  0.00     0.002 A 
HETATM   20  C   UNL     1       8.076  21.057  53.115  1.00  0.00     0.002 A 
ENDBRANCH   6  11
ENDBRANCH   1   5
BRANCH   2  21
HETATM   21  C   UNL     1       5.460  27.129  51.933  1.00  0.00     0.034 A 
HETATM   22  C   UNL     1       4.974  28.007  50.956  1.00  0.00     0.047 A 
HETATM   23  C   UNL     1       4.341  27.523  49.801  1.00  0.00     0.046 A 
HETATM   24  C   UNL     1       4.220  26.126  49.683  1.00  0.00     0.030 A 
HETATM   25  C   UNL     1       4.702  25.250  50.667  1.00  0.00     0.003 A 
HETATM   26  C   UNL     1       5.326  25.750  51.803  1.00  0.00     0.017 A 
BRANCH  23  27
HETATM   27  N   UNL     1       3.835  28.413  48.797  1.00  0.00    -0.252 N 
HETATM   28  C   UNL     1       4.497  28.729  47.628  1.00  0.00     0.231 C 
HETATM   29  O   UNL     1       5.527  28.258  47.166  1.00  0.00    -0.273 OA
HETATM   30  C   UNL     1       3.746  29.814  46.918  1.00  0.00     0.113 C 
HETATM   31  C   UNL     1       2.392  29.798  47.572  1.00  0.00     0.113 C 
HETATM   32  C   UNL     1       2.619  29.061  48.857  1.00  0.00     0.231 C 
HETATM   33  O   UNL     1       1.788  29.077  49.755  1.00  0.00    -0.273 OA
ENDBRANCH  23  27
ENDBRANCH   2  21
TORSDOF 4
ENDMDL
MODEL 7
REMARK VINA RESULT:      -9.7      1.735      4.504
REMARK  4 active torsions:
REMARK  status: ('A' for Active; 'I' for Inactive)
REMARK    1  A    between atoms: C_3  and  C_4 
REMARK    2  A    between atoms: C_14  and  N_15 
REMARK       I    between atoms: N_15  and  C_16 
REMARK    3  A    between atoms: C_16  and  C_17 
REMARK    4  A    between atoms: C_19  and  N_20 
ROOT
HETATM    1  N   UNL     1       6.669  29.058  55.453  1.00  0.00    -0.322 N 
HETATM    2  C   UNL     1       8.020  29.030  55.184  1.00  0.00     0.256 C 
HETATM    3  O   UNL     1       8.589  28.608  54.188  1.00  0.00    -0.267 OA
HETATM    4  H   UNL     1       6.393  29.404  56.367  1.00  0.00     0.169 HD
ENDROOT
BRANCH   1   5
HETATM    5  C   UNL     1       5.610  28.780  54.549  1.00  0.00     0.049 A 
HETATM    6  C   UNL     1       5.310  27.437  54.221  1.00  0.00     0.037 A 
HETATM    7  C   UNL     1       4.171  27.151  53.448  1.00  0.00     0.017 A 
HETATM    8  C   UNL     1       3.363  28.176  52.963  1.00  0.00     0.001 A 
HETATM    9  C   UNL     1       3.686  29.499  53.243  1.00  0.00     0.002 A 
HETATM   10  C   UNL     1       4.801  29.799  54.032  1.00  0.00     0.030 A 
BRANCH   6  11
HETATM   11  C   UNL     1       6.179  26.316  54.586  1.00  0.00     0.141 A 
HETATM   12  N   UNL     1       6.529  25.946  55.803  1.00  0.00    -0.228 NA
HETATM   13  C   UNL     1       7.307  24.825  55.648  1.00  0.00     0.086 A 
HETATM   14  C   UNL     1       7.429  24.487  54.306  1.00  0.00     0.062 A 
HETATM   15  C   UNL     1       7.943  24.033  56.614  1.00  0.00     0.034 A 
HETATM   16  N   UNL     1       6.680  25.431  53.657  1.00  0.00    -0.338 N 
HETATM   17  C   UNL     1       8.167  23.393  53.853  1.00  0.00     0.032 A 
HETATM   18  H   UNL     1       6.502  25.475  52.663  1.00  0.00     0.167 HD
HETATM   19  C   UNL     1       8.800  22.617  54.831  1.00  0.00     0.002 A 
HETATM   20  C   UNL     1       8.690  22.927  56.188  1.00  0.00     0.002 A 
ENDBRANCH   6  11
ENDBRANCH   1   5
BRANCH   2  21
HETATM   21  C   UNL     1       8.841  29.556  56.289  1.00  0.00     0.034 A 
HETATM   22  C   UNL     1       8.198  30.061  57.426  1.00  0.00     0.047 A 
HETATM   23  C   UNL     1       8.936  30.569  58.506  1.00  0.00     0.046 A 
HETATM   24  C   UNL     1      10.339  30.547  58.383  1.00  0.00     0.030 A 
HETATM   25  C   UNL     1      10.978  30.046  57.239  1.00  0.00     0.003 A 
HETATM   26  C   UNL     1      10.228  29.547  56.181  1.00  0.00     0.017 A 
BRANCH  23  27
HETATM   27  N   UNL     1       8.289  31.094  59.674  1.00  0.00    -0.252 N 
HETATM   28  C   UNL     1       7.279  32.034  59.651  1.00  0.00     0.231 C 
HETATM   29  O   UNL     1       6.673  32.501  58.697  1.00  0.00    -0.273 OA
HETATM   30  C   UNL     1       6.978  32.463  61.055  1.00  0.00     0.113 C 
HETATM   31  C   UNL     1       7.611  31.392  61.900  1.00  0.00     0.113 C 
HETATM   32  C   UNL     1       8.578  30.722  60.970  1.00  0.00     0.231 C 
HETATM   33  O   UNL     1       9.443  29.966  61.390  1.00  0.00    -0.273 OA
ENDBRANCH  23  27
ENDBRANCH   2  21
TORSDOF 4
ENDMDL
MODEL 8
REMARK VINA RESULT:      -9.7      2.473      3.998
REMARK  4 active torsions:
REMARK  status: ('A' for Active; 'I' for Inactive)
REMARK    1  A    between atoms: C_3  and  C_4 
REMARK    2  A    between atoms: C_14  and  N_15 
REMARK       I    between atoms: N_15  and  C_16 
REMARK    3  A    between atoms: C_16  and  C_17 
REMARK    4  A    between atoms: C_19  and  N_20 
ROOT
HETATM    1  N   UNL     1       6.958  26.036  55.179  1.00  0.00    -0.322 N 
HETATM    2  C   UNL     1       6.165  26.201  56.294  1.00  0.00     0.256 C 
HETATM    3  O   UNL     1       5.474  25.371  56.866  1.00  0.00    -0.267 OA
HETATM    4  H   UNL     1       7.419  26.866  54.820  1.00  0.00     0.169 HD
ENDROOT
BRANCH   1   5
HETATM    5  C   UNL     1       7.308  24.812  54.551  1.00  0.00     0.049 A 
HETATM    6  C   UNL     1       7.028  24.629  53.176  1.00  0.00     0.037 A 
HETATM    7  C   UNL     1       7.507  23.483  52.519  1.00  0.00     0.017 A 
HETATM    8  C   UNL     1       8.212  22.504  53.214  1.00  0.00     0.001 A 
HETATM    9  C   UNL     1       8.444  22.659  54.576  1.00  0.00     0.002 A 
HETATM   10  C   UNL     1       7.996  23.805  55.240  1.00  0.00     0.030 A 
BRANCH   6  11
HETATM   11  C   UNL     1       6.187  25.549  52.408  1.00  0.00     0.141 A 
HETATM   12  N   UNL     1       5.394  26.487  52.887  1.00  0.00    -0.228 NA
HETATM   13  C   UNL     1       4.852  27.119  51.793  1.00  0.00     0.086 A 
HETATM   14  C   UNL     1       5.334  26.566  50.613  1.00  0.00     0.062 A 
HETATM   15  C   UNL     1       3.941  28.183  51.730  1.00  0.00     0.034 A 
HETATM   16  N   UNL     1       6.200  25.593  51.031  1.00  0.00    -0.338 N 
HETATM   17  C   UNL     1       4.951  27.008  49.345  1.00  0.00     0.032 A 
HETATM   18  H   UNL     1       6.774  25.007  50.439  1.00  0.00     0.167 HD
HETATM   19  C   UNL     1       4.037  28.067  49.302  1.00  0.00     0.002 A 
HETATM   20  C   UNL     1       3.541  28.648  50.471  1.00  0.00     0.002 A 
ENDBRANCH   6  11
ENDBRANCH   1   5
BRANCH   2  21
HETATM   21  C   UNL     1       6.157  27.586  56.798  1.00  0.00     0.034 A 
HETATM   22  C   UNL     1       7.378  28.199  57.105  1.00  0.00     0.047 A 
HETATM   23  C   UNL     1       7.423  29.517  57.585  1.00  0.00     0.046 A 
HETATM   24  C   UNL     1       6.189  30.178  57.742  1.00  0.00     0.030 A 
HETATM   25  C   UNL     1       4.968  29.556  57.438  1.00  0.00     0.003 A 
HETATM   26  C   UNL     1       4.947  28.251  56.965  1.00  0.00     0.017 A 
BRANCH  23  27
HETATM   27  N   UNL     1       8.667  30.154  57.908  1.00  0.00    -0.252 N 
HETATM   28  C   UNL     1       8.958  30.726  59.129  1.00  0.00     0.231 C 
HETATM   29  O   UNL     1       8.313  30.710  60.169  1.00  0.00    -0.273 OA
HETATM   30  C   UNL     1      10.272  31.439  59.035  1.00  0.00     0.113 C 
HETATM   31  C   UNL     1      10.895  30.878  57.786  1.00  0.00     0.113 C 
HETATM   32  C   UNL     1       9.741  30.267  57.050  1.00  0.00     0.231 C 
HETATM   33  O   UNL     1       9.839  29.937  55.875  1.00  0.00    -0.273 OA
ENDBRANCH  23  27
ENDBRANCH   2  21
TORSDOF 4
ENDMDL
MODEL 9
REMARK VINA RESULT:      -9.6      4.490      8.649
REMARK  4 active torsions:
REMARK  status: ('A' for Active; 'I' for Inactive)
REMARK    1  A    between atoms: C_3  and  C_4 
REMARK    2  A    between atoms: C_14  and  N_15 
REMARK       I    between atoms: N_15  and  C_16 
REMARK    3  A    between atoms: C_16  and  C_17 
REMARK    4  A    between atoms: C_19  and  N_20 
ROOT
HETATM    1  N   UNL     1       6.784  24.652  52.733  1.00  0.00    -0.322 N 
HETATM    2  C   UNL     1       5.466  25.023  52.579  1.00  0.00     0.256 C 
HETATM    3  O   UNL     1       4.460  24.422  52.927  1.00  0.00    -0.267 OA
HETATM    4  H   UNL     1       7.482  25.267  52.328  1.00  0.00     0.169 HD
ENDROOT
BRANCH   1   5
HETATM    5  C   UNL     1       7.285  23.572  53.508  1.00  0.00     0.049 A 
HETATM    6  C   UNL     1       7.339  23.693  54.916  1.00  0.00     0.037 A 
HETATM    7  C   UNL     1       7.692  22.576  55.693  1.00  0.00     0.017 A 
HETATM    8  C   UNL     1       8.033  21.368  55.092  1.00  0.00     0.001 A 
HETATM    9  C   UNL     1       8.028  21.263  53.705  1.00  0.00     0.002 A 
HETATM   10  C   UNL     1       7.655  22.358  52.918  1.00  0.00     0.030 A 
BRANCH   6  11
HETATM   11  C   UNL     1       7.119  24.961  55.615  1.00  0.00     0.141 A 
HETATM   12  N   UNL     1       8.028  25.707  56.212  1.00  0.00    -0.228 NA
HETATM   13  C   UNL     1       7.361  26.813  56.680  1.00  0.00     0.086 A 
HETATM   14  C   UNL     1       6.013  26.754  56.353  1.00  0.00     0.062 A 
HETATM   15  C   UNL     1       7.847  27.919  57.393  1.00  0.00     0.034 A 
HETATM   16  N   UNL     1       5.891  25.585  55.653  1.00  0.00    -0.338 N 
HETATM   17  C   UNL     1       5.093  27.743  56.706  1.00  0.00     0.032 A 
HETATM   18  H   UNL     1       5.050  25.232  55.217  1.00  0.00     0.167 HD
HETATM   19  C   UNL     1       5.593  28.837  57.422  1.00  0.00     0.002 A 
HETATM   20  C   UNL     1       6.946  28.928  57.759  1.00  0.00     0.002 A 
ENDBRANCH   6  11
ENDBRANCH   1   5
BRANCH   2  21
HETATM   21  C   UNL     1       5.305  26.301  51.864  1.00  0.00     0.034 A 
HETATM   22  C   UNL     1       4.394  26.372  50.803  1.00  0.00     0.047 A 
HETATM   23  C   UNL     1       4.203  27.568  50.093  1.00  0.00     0.046 A 
HETATM   24  C   UNL     1       4.971  28.675  50.499  1.00  0.00     0.030 A 
HETATM   25  C   UNL     1       5.888  28.598  51.559  1.00  0.00     0.003 A 
HETATM   26  C   UNL     1       6.061  27.405  52.248  1.00  0.00     0.017 A 
BRANCH  23  27
HETATM   27  N   UNL     1       3.277  27.650  49.001  1.00  0.00    -0.252 N 
HETATM   28  C   UNL     1       2.003  28.172  49.095  1.00  0.00     0.231 C 
HETATM   29  O   UNL     1       1.467  28.751  50.030  1.00  0.00    -0.273 OA
HETATM   30  C   UNL     1       1.278  27.931  47.806  1.00  0.00     0.113 C 
HETATM   31  C   UNL     1       2.378  27.596  46.836  1.00  0.00     0.113 C 
HETATM   32  C   UNL     1       3.537  27.232  47.713  1.00  0.00     0.231 C 
HETATM   33  O   UNL     1       4.524  26.668  47.260  1.00  0.00    -0.273 OA
ENDBRANCH  23  27
ENDBRANCH   2  21
TORSDOF 4
ENDMDL
MODEL 10
REMARK VINA RESULT:      -9.4      4.886     10.019
REMARK  4 active torsions:
REMARK  status: ('A' for Active; 'I' for Inactive)
REMARK    1  A    between atoms: C_3  and  C_4 
REMARK    2  A    between atoms: C_14  and  N_15 
REMARK       I    between atoms: N_15  and  C_16 
REMARK    3  A    between atoms: C_16  and  C_17 
REMARK    4  A    between atoms: C_19  and  N_20 
ROOT
HETATM    1  N   UNL     1       4.377  27.803  53.483  1.00  0.00    -0.322 N 
HETATM    2  C   UNL     1       4.477  28.644  52.396  1.00  0.00     0.256 C 
HETATM    3  O   UNL     1       4.659  29.852  52.382  1.00  0.00    -0.267 OA
HETATM    4  H   UNL     1       4.172  26.828  53.289  1.00  0.00     0.169 HD
ENDROOT
BRANCH   1   5
HETATM    5  C   UNL     1       4.654  28.120  54.839  1.00  0.00     0.049 A 
HETATM    6  C   UNL     1       5.612  27.360  55.550  1.00  0.00     0.037 A 
HETATM    7  C   UNL     1       5.997  27.763  56.840  1.00  0.00     0.017 A 
HETATM    8  C   UNL     1       5.414  28.874  57.444  1.00  0.00     0.001 A 
HETATM    9  C   UNL     1       4.436  29.592  56.766  1.00  0.00     0.002 A 
HETATM   10  C   UNL     1       4.059  29.219  55.472  1.00  0.00     0.030 A 
BRANCH   6  11
HETATM   11  C   UNL     1       6.176  26.110  55.035  1.00  0.00     0.141 A 
HETATM   12  N   UNL     1       6.606  25.880  53.810  1.00  0.00    -0.228 NA
HETATM   13  C   UNL     1       7.086  24.592  53.814  1.00  0.00     0.086 A 
HETATM   14  C   UNL     1       6.963  24.021  55.074  1.00  0.00     0.062 A 
HETATM   15  C   UNL     1       7.652  23.842  52.774  1.00  0.00     0.034 A 
HETATM   16  N   UNL     1       6.410  25.014  55.837  1.00  0.00    -0.338 N 
HETATM   17  C   UNL     1       7.367  22.718  55.371  1.00  0.00     0.032 A 
HETATM   18  H   UNL     1       6.216  24.971  56.827  1.00  0.00     0.167 HD
HETATM   19  C   UNL     1       7.924  21.982  54.319  1.00  0.00     0.002 A 
HETATM   20  C   UNL     1       8.068  22.531  53.043  1.00  0.00     0.002 A 
ENDBRANCH   6  11
ENDBRANCH   1   5
BRANCH   2  21
HETATM   21  C   UNL     1       4.301  27.948  51.109  1.00  0.00     0.034 A 
HETATM   22  C   UNL     1       3.448  28.507  50.150  1.00  0.00     0.047 A 
HETATM   23  C   UNL     1       3.250  27.883  48.908  1.00  0.00     0.046 A 
HETATM   24  C   UNL     1       3.944  26.679  48.686  1.00  0.00     0.030 A 
HETATM   25  C   UNL     1       4.792  26.118  49.653  1.00  0.00     0.003 A 
HETATM   26  C   UNL     1       4.974  26.752  50.875  1.00  0.00     0.017 A 
BRANCH  23  27
HETATM   27  N   UNL     1       2.375  28.445  47.920  1.00  0.00    -0.252 N 
HETATM   28  C   UNL     1       1.157  27.908  47.560  1.00  0.00     0.231 C 
HETATM   29  O   UNL     1       0.542  26.973  48.055  1.00  0.00    -0.273 OA
HETATM   30  C   UNL     1       0.616  28.664  46.385  1.00  0.00     0.113 C 
HETATM   31  C   UNL     1       1.430  29.929  46.369  1.00  0.00     0.113 C 
HETATM   32  C   UNL     1       2.627  29.600  47.209  1.00  0.00     0.231 C 
HETATM   33  O   UNL     1       3.620  30.315  47.209  1.00  0.00    -0.273 OA
ENDBRANCH  23  27
ENDBRANCH   2  21
TORSDOF 4
ENDMDL
