MODEL 1
REMARK VINA RESULT:      -7.7      0.000      0.000
REMARK  3 active torsions:
REMARK  status: ('A' for Active; 'I' for Inactive)
REMARK    1  A    between atoms: C_8  and  C_9 
REMARK    2  A    between atoms: C_10  and  O_11 
REMARK    3  A    between atoms: C_24  and  N_25 
ROOT
HETATM    1  C   UNL     1       6.243  37.940  61.181  1.00  0.00     0.073 C 
HETATM    2  C   UNL     1       5.980  37.919  62.642  1.00  0.00     0.062 A 
HETATM    3  N   UNL     1       6.610  38.783  63.455  1.00  0.00    -0.177 NA
HETATM    4  N   UNL     1       6.131  38.496  64.682  1.00  0.00    -0.256 N 
HETATM    5  H   UNL     1       6.467  39.029  65.476  1.00  0.00     0.191 HD
HETATM    6  C   UNL     1       5.214  37.496  64.665  1.00  0.00     0.175 A 
HETATM    7  C   UNL     1       5.106  37.075  63.365  1.00  0.00     0.034 A 
HETATM    8  C   UNL     1       4.140  35.995  63.020  1.00  0.00     0.109 A 
HETATM    9  C   UNL     1       3.449  35.457  64.275  1.00  0.00     0.081 A 
HETATM   10  C   UNL     1       2.495  34.415  64.084  1.00  0.00     0.100 C 
HETATM   11  N   UNL     1       1.688  33.592  63.941  1.00  0.00    -0.191 NA
HETATM   12  C   UNL     1       3.670  35.974  65.516  1.00  0.00     0.140 A 
HETATM   13  O   UNL     1       4.573  37.035  65.733  1.00  0.00    -0.279 OA
ENDROOT
BRANCH   8  14
HETATM   14  C   UNL     1       4.876  34.950  62.171  1.00  0.00     0.000 A 
HETATM   15  C   UNL     1       4.409  34.749  60.843  1.00  0.00     0.076 A 
HETATM   16  C   UNL     1       5.029  33.824  60.005  1.00  0.00     0.038 A 
HETATM   17  C   UNL     1       6.094  33.063  60.470  1.00  0.00     0.015 A 
HETATM   18  C   UNL     1       6.569  33.206  61.775  1.00  0.00    -0.025 A 
HETATM   19  C   UNL     1       5.973  34.149  62.655  1.00  0.00    -0.016 A 
HETATM   20  C   UNL     1       7.641  32.400  62.194  1.00  0.00     0.012 A 
HETATM   21  C   UNL     1       6.528  34.211  63.959  1.00  0.00     0.013 A 
HETATM   22  C   UNL     1       7.595  33.402  64.367  1.00  0.00     0.001 A 
HETATM   23  C   UNL     1       8.154  32.496  63.483  1.00  0.00     0.001 A 
BRANCH  15  24
HETATM   24  O   UNL     1       3.356  35.531  60.433  1.00  0.00    -0.355 OA
HETATM   25  C   UNL     1       2.124  34.871  60.160  1.00  0.00     0.210 C 
ENDBRANCH  15  24
ENDBRANCH   8  14
BRANCH  12  26
HETATM   26  N   UNL     1       3.066  35.552  66.679  1.00  0.00    -0.282 NA
HETATM   27  H   UNL     1       3.682  35.115  67.360  1.00  0.00     0.126 HD
HETATM   28  H   UNL     1       2.223  35.012  66.497  1.00  0.00     0.126 HD
ENDBRANCH  12  26
TORSDOF 3
ENDMDL
MODEL 2
REMARK VINA RESULT:      -7.4      1.721      4.783
REMARK  3 active torsions:
REMARK  status: ('A' for Active; 'I' for Inactive)
REMARK    1  A    between atoms: C_8  and  C_9 
REMARK    2  A    between atoms: C_10  and  O_11 
REMARK    3  A    between atoms: C_24  and  N_25 
ROOT
HETATM    1  C   UNL     1       2.256  33.734  63.716  1.00  0.00     0.073 C 
HETATM    2  C   UNL     1       2.592  34.491  62.485  1.00  0.00     0.062 A 
HETATM    3  N   UNL     1       1.979  34.202  61.324  1.00  0.00    -0.177 NA
HETATM    4  N   UNL     1       2.505  35.077  60.442  1.00  0.00    -0.256 N 
HETATM    5  H   UNL     1       2.192  35.049  59.480  1.00  0.00     0.191 HD
HETATM    6  C   UNL     1       3.412  35.911  61.010  1.00  0.00     0.175 A 
HETATM    7  C   UNL     1       3.518  35.549  62.329  1.00  0.00     0.034 A 
HETATM    8  C   UNL     1       4.424  36.313  63.230  1.00  0.00     0.109 A 
HETATM    9  C   UNL     1       5.186  37.391  62.456  1.00  0.00     0.081 A 
HETATM   10  C   UNL     1       6.091  38.199  63.205  1.00  0.00     0.100 C 
HETATM   11  N   UNL     1       6.803  38.889  63.807  1.00  0.00    -0.191 NA
HETATM   12  C   UNL     1       4.981  37.628  61.130  1.00  0.00     0.140 A 
HETATM   13  O   UNL     1       4.061  36.877  60.371  1.00  0.00    -0.279 OA
ENDROOT
BRANCH   8  14
HETATM   14  C   UNL     1       5.295  35.307  63.996  1.00  0.00     0.000 A 
HETATM   15  C   UNL     1       5.228  35.342  65.415  1.00  0.00     0.076 A 
HETATM   16  C   UNL     1       5.982  34.456  66.183  1.00  0.00     0.038 A 
HETATM   17  C   UNL     1       6.834  33.547  65.568  1.00  0.00     0.015 A 
HETATM   18  C   UNL     1       6.952  33.495  64.177  1.00  0.00    -0.025 A 
HETATM   19  C   UNL     1       6.189  34.372  63.360  1.00  0.00    -0.016 A 
HETATM   20  C   UNL     1       7.838  32.563  63.610  1.00  0.00     0.012 A 
HETATM   21  C   UNL     1       6.388  34.240  61.961  1.00  0.00     0.013 A 
HETATM   22  C   UNL     1       7.274  33.309  61.407  1.00  0.00     0.001 A 
HETATM   23  C   UNL     1       8.000  32.468  62.233  1.00  0.00     0.001 A 
BRANCH  15  24
HETATM   24  O   UNL     1       4.368  36.258  65.972  1.00  0.00    -0.355 OA
HETATM   25  C   UNL     1       3.304  35.748  66.769  1.00  0.00     0.210 C 
ENDBRANCH  15  24
ENDBRANCH   8  14
BRANCH  12  26
HETATM   26  N   UNL     1       5.616  38.594  60.382  1.00  0.00    -0.282 NA
HETATM   27  H   UNL     1       6.317  38.253  59.728  1.00  0.00     0.126 HD
HETATM   28  H   UNL     1       5.946  39.366  60.956  1.00  0.00     0.126 HD
ENDBRANCH  12  26
TORSDOF 3
ENDMDL
MODEL 3
REMARK VINA RESULT:      -7.2      2.528      5.343
REMARK  3 active torsions:
REMARK  status: ('A' for Active; 'I' for Inactive)
REMARK    1  A    between atoms: C_8  and  C_9 
REMARK    2  A    between atoms: C_10  and  O_11 
REMARK    3  A    between atoms: C_24  and  N_25 
ROOT
HETATM    1  C   UNL     1       7.595  33.301  64.535  1.00  0.00     0.073 C 
HETATM    2  C   UNL     1       7.097  33.055  63.159  1.00  0.00     0.062 A 
HETATM    3  N   UNL     1       7.918  32.551  62.222  1.00  0.00    -0.177 NA
HETATM    4  N   UNL     1       7.145  32.445  61.122  1.00  0.00    -0.256 N 
HETATM    5  H   UNL     1       7.553  32.082  60.269  1.00  0.00     0.191 HD
HETATM    6  C   UNL     1       5.868  32.850  61.339  1.00  0.00     0.175 A 
HETATM    7  C   UNL     1       5.800  33.278  62.640  1.00  0.00     0.034 A 
HETATM    8  C   UNL     1       4.501  33.757  63.189  1.00  0.00     0.109 A 
HETATM    9  C   UNL     1       3.417  33.759  62.109  1.00  0.00     0.081 A 
HETATM   10  C   UNL     1       2.119  34.197  62.505  1.00  0.00     0.100 C 
HETATM   11  N   UNL     1       1.048  34.515  62.821  1.00  0.00    -0.191 NA
HETATM   12  C   UNL     1       3.640  33.311  60.842  1.00  0.00     0.140 A 
HETATM   13  O   UNL     1       4.899  32.829  60.431  1.00  0.00    -0.279 OA
ENDROOT
BRANCH   8  14
HETATM   14  C   UNL     1       4.745  35.102  63.886  1.00  0.00     0.000 A 
HETATM   15  C   UNL     1       4.585  35.139  65.298  1.00  0.00     0.076 A 
HETATM   16  C   UNL     1       4.796  36.321  66.006  1.00  0.00     0.038 A 
HETATM   17  C   UNL     1       5.135  37.489  65.333  1.00  0.00     0.015 A 
HETATM   18  C   UNL     1       5.276  37.506  63.944  1.00  0.00    -0.025 A 
HETATM   19  C   UNL     1       5.083  36.318  63.188  1.00  0.00    -0.016 A 
HETATM   20  C   UNL     1       5.609  38.719  63.316  1.00  0.00     0.012 A 
HETATM   21  C   UNL     1       5.246  36.448  61.785  1.00  0.00     0.013 A 
HETATM   22  C   UNL     1       5.575  37.660  61.169  1.00  0.00     0.001 A 
HETATM   23  C   UNL     1       5.759  38.798  61.936  1.00  0.00     0.001 A 
BRANCH  15  24
HETATM   24  O   UNL     1       4.253  33.957  65.914  1.00  0.00    -0.355 OA
HETATM   25  C   UNL     1       4.402  33.896  67.329  1.00  0.00     0.210 C 
ENDBRANCH  15  24
ENDBRANCH   8  14
BRANCH  12  26
HETATM   26  N   UNL     1       2.705  33.266  59.833  1.00  0.00    -0.282 NA
HETATM   27  H   UNL     1       2.952  32.692  59.030  1.00  0.00     0.126 HD
HETATM   28  H   UNL     1       2.376  34.194  59.575  1.00  0.00     0.126 HD
ENDBRANCH  12  26
TORSDOF 3
ENDMDL
MODEL 4
REMARK VINA RESULT:      -7.1      2.713      4.825
REMARK  3 active torsions:
REMARK  status: ('A' for Active; 'I' for Inactive)
REMARK    1  A    between atoms: C_8  and  C_9 
REMARK    2  A    between atoms: C_10  and  O_11 
REMARK    3  A    between atoms: C_24  and  N_25 
ROOT
HETATM    1  C   UNL     1       1.752  34.263  63.049  1.00  0.00     0.073 C 
HETATM    2  C   UNL     1       3.048  33.942  63.697  1.00  0.00     0.062 A 
HETATM    3  N   UNL     1       3.168  33.999  65.035  1.00  0.00    -0.177 NA
HETATM    4  N   UNL     1       4.446  33.639  65.271  1.00  0.00    -0.256 N 
HETATM    5  H   UNL     1       4.777  33.608  66.228  1.00  0.00     0.191 HD
HETATM    6  C   UNL     1       5.125  33.345  64.134  1.00  0.00     0.175 A 
HETATM    7  C   UNL     1       4.264  33.553  63.088  1.00  0.00     0.034 A 
HETATM    8  C   UNL     1       4.717  33.280  61.696  1.00  0.00     0.109 A 
HETATM    9  C   UNL     1       6.188  32.859  61.672  1.00  0.00     0.081 A 
HETATM   10  C   UNL     1       6.750  32.565  60.395  1.00  0.00     0.100 C 
HETATM   11  N   UNL     1       7.211  32.287  59.367  1.00  0.00    -0.191 NA
HETATM   12  C   UNL     1       6.928  32.705  62.806  1.00  0.00     0.140 A 
HETATM   13  O   UNL     1       6.390  32.943  64.087  1.00  0.00    -0.279 OA
ENDROOT
BRANCH   8  14
HETATM   14  C   UNL     1       4.362  34.496  60.830  1.00  0.00     0.000 A 
HETATM   15  C   UNL     1       3.584  34.257  59.665  1.00  0.00     0.076 A 
HETATM   16  C   UNL     1       3.213  35.311  58.831  1.00  0.00     0.038 A 
HETATM   17  C   UNL     1       3.628  36.606  59.113  1.00  0.00     0.015 A 
HETATM   18  C   UNL     1       4.417  36.884  60.231  1.00  0.00    -0.025 A 
HETATM   19  C   UNL     1       4.803  35.840  61.114  1.00  0.00    -0.016 A 
HETATM   20  C   UNL     1       4.817  38.212  60.460  1.00  0.00     0.012 A 
HETATM   21  C   UNL     1       5.607  36.230  62.215  1.00  0.00     0.013 A 
HETATM   22  C   UNL     1       6.002  37.555  62.433  1.00  0.00     0.001 A 
HETATM   23  C   UNL     1       5.605  38.548  61.555  1.00  0.00     0.001 A 
BRANCH  15  24
HETATM   24  O   UNL     1       3.197  32.959  59.435  1.00  0.00    -0.355 OA
HETATM   25  C   UNL     1       3.688  32.334  58.253  1.00  0.00     0.210 C 
ENDBRANCH  15  24
ENDBRANCH   8  14
BRANCH  12  26
HETATM   26  N   UNL     1       8.246  32.309  62.854  1.00  0.00    -0.282 NA
HETATM   27  H   UNL     1       8.688  32.366  63.768  1.00  0.00     0.126 HD
HETATM   28  H   UNL     1       8.800  32.734  62.114  1.00  0.00     0.126 HD
ENDBRANCH  12  26
TORSDOF 3
ENDMDL
MODEL 5
REMARK VINA RESULT:      -7.0      2.187      4.018
REMARK  3 active torsions:
REMARK  status: ('A' for Active; 'I' for Inactive)
REMARK    1  A    between atoms: C_8  and  C_9 
REMARK    2  A    between atoms: C_10  and  O_11 
REMARK    3  A    between atoms: C_24  and  N_25 
ROOT
HETATM    1  C   UNL     1       6.661  37.566  62.319  1.00  0.00     0.073 C 
HETATM    2  C   UNL     1       5.207  37.453  62.039  1.00  0.00     0.062 A 
HETATM    3  N   UNL     1       4.442  38.556  61.982  1.00  0.00    -0.177 NA
HETATM    4  N   UNL     1       3.208  38.092  61.699  1.00  0.00    -0.256 N 
HETATM    5  H   UNL     1       2.446  38.753  61.606  1.00  0.00     0.191 HD
HETATM    6  C   UNL     1       3.175  36.743  61.562  1.00  0.00     0.175 A 
HETATM    7  C   UNL     1       4.446  36.286  61.799  1.00  0.00     0.034 A 
HETATM    8  C   UNL     1       4.736  34.829  61.689  1.00  0.00     0.109 A 
HETATM    9  C   UNL     1       3.462  34.038  61.384  1.00  0.00     0.081 A 
HETATM   10  C   UNL     1       3.601  32.626  61.251  1.00  0.00     0.100 C 
HETATM   11  N   UNL     1       3.704  31.479  61.103  1.00  0.00    -0.191 NA
HETATM   12  C   UNL     1       2.255  34.638  61.183  1.00  0.00     0.140 A 
HETATM   13  O   UNL     1       2.092  36.035  61.262  1.00  0.00    -0.279 OA
ENDROOT
BRANCH   8  14
HETATM   14  C   UNL     1       5.498  34.397  62.949  1.00  0.00     0.000 A 
HETATM   15  C   UNL     1       6.724  33.703  62.758  1.00  0.00     0.076 A 
HETATM   16  C   UNL     1       7.479  33.284  63.852  1.00  0.00     0.038 A 
HETATM   17  C   UNL     1       7.025  33.513  65.145  1.00  0.00     0.015 A 
HETATM   18  C   UNL     1       5.814  34.166  65.380  1.00  0.00    -0.025 A 
HETATM   19  C   UNL     1       5.022  34.622  64.291  1.00  0.00    -0.016 A 
HETATM   20  C   UNL     1       5.399  34.360  66.709  1.00  0.00     0.012 A 
HETATM   21  C   UNL     1       3.809  35.269  64.641  1.00  0.00     0.013 A 
HETATM   22  C   UNL     1       3.404  35.455  65.967  1.00  0.00     0.001 A 
HETATM   23  C   UNL     1       4.201  35.001  67.003  1.00  0.00     0.001 A 
BRANCH  15  24
HETATM   24  O   UNL     1       7.128  33.505  61.460  1.00  0.00    -0.355 OA
HETATM   25  C   UNL     1       7.384  32.164  61.056  1.00  0.00     0.210 C 
ENDBRANCH  15  24
ENDBRANCH   8  14
BRANCH  12  26
HETATM   26  N   UNL     1       1.078  33.988  60.884  1.00  0.00    -0.282 NA
HETATM   27  H   UNL     1       0.251  34.334  61.364  1.00  0.00     0.126 HD
HETATM   28  H   UNL     1       1.176  32.976  60.937  1.00  0.00     0.126 HD
ENDBRANCH  12  26
TORSDOF 3
ENDMDL
MODEL 6
REMARK VINA RESULT:      -6.7      2.599      5.293
REMARK  3 active torsions:
REMARK  status: ('A' for Active; 'I' for Inactive)
REMARK    1  A    between atoms: C_8  and  C_9 
REMARK    2  A    between atoms: C_10  and  O_11 
REMARK    3  A    between atoms: C_24  and  N_25 
ROOT
HETATM    1  C   UNL     1       3.075  37.055  60.903  1.00  0.00     0.073 C 
HETATM    2  C   UNL     1       2.847  35.617  61.189  1.00  0.00     0.062 A 
HETATM    3  N   UNL     1       1.680  35.038  60.860  1.00  0.00    -0.177 NA
HETATM    4  N   UNL     1       1.826  33.753  61.243  1.00  0.00    -0.256 N 
HETATM    5  H   UNL     1       1.059  33.108  61.094  1.00  0.00     0.191 HD
HETATM    6  C   UNL     1       3.044  33.503  61.785  1.00  0.00     0.175 A 
HETATM    7  C   UNL     1       3.729  34.690  61.793  1.00  0.00     0.034 A 
HETATM    8  C   UNL     1       5.127  34.729  62.305  1.00  0.00     0.109 A 
HETATM    9  C   UNL     1       5.553  33.360  62.839  1.00  0.00     0.081 A 
HETATM   10  C   UNL     1       6.876  33.258  63.360  1.00  0.00     0.100 C 
HETATM   11  N   UNL     1       7.963  33.150  63.753  1.00  0.00    -0.191 NA
HETATM   12  C   UNL     1       4.749  32.262  62.772  1.00  0.00     0.140 A 
HETATM   13  O   UNL     1       3.453  32.317  62.222  1.00  0.00    -0.279 OA
ENDROOT
BRANCH   8  14
HETATM   14  C   UNL     1       5.238  35.891  63.302  1.00  0.00     0.000 A 
HETATM   15  C   UNL     1       4.669  35.696  64.590  1.00  0.00     0.076 A 
HETATM   16  C   UNL     1       4.735  36.701  65.554  1.00  0.00     0.038 A 
HETATM   17  C   UNL     1       5.333  37.919  65.256  1.00  0.00     0.015 A 
HETATM   18  C   UNL     1       5.880  38.165  63.995  1.00  0.00    -0.025 A 
HETATM   19  C   UNL     1       5.846  37.161  62.990  1.00  0.00    -0.016 A 
HETATM   20  C   UNL     1       6.461  39.420  63.747  1.00  0.00     0.012 A 
HETATM   21  C   UNL     1       6.426  37.516  61.745  1.00  0.00     0.013 A 
HETATM   22  C   UNL     1       7.000  38.770  61.507  1.00  0.00     0.001 A 
HETATM   23  C   UNL     1       7.019  39.723  62.510  1.00  0.00     0.001 A 
BRANCH  15  24
HETATM   24  O   UNL     1       4.094  34.473  64.833  1.00  0.00    -0.355 OA
HETATM   25  C   UNL     1       4.291  33.907  66.125  1.00  0.00     0.210 C 
ENDBRANCH  15  24
ENDBRANCH   8  14
BRANCH  12  26
HETATM   26  N   UNL     1       5.080  31.000  63.213  1.00  0.00    -0.282 NA
HETATM   27  H   UNL     1       6.074  30.821  63.327  1.00  0.00     0.126 HD
HETATM   28  H   UNL     1       4.601  30.273  62.685  1.00  0.00     0.126 HD
ENDBRANCH  12  26
TORSDOF 3
ENDMDL
MODEL 7
REMARK VINA RESULT:      -6.5      2.700      4.957
REMARK  3 active torsions:
REMARK  status: ('A' for Active; 'I' for Inactive)
REMARK    1  A    between atoms: C_8  and  C_9 
REMARK    2  A    between atoms: C_10  and  O_11 
REMARK    3  A    between atoms: C_24  and  N_25 
ROOT
HETATM    1  C   UNL     1       7.434  33.063  63.896  1.00  0.00     0.073 C 
HETATM    2  C   UNL     1       6.984  32.916  62.489  1.00  0.00     0.062 A 
HETATM    3  N   UNL     1       7.828  32.446  61.555  1.00  0.00    -0.177 NA
HETATM    4  N   UNL     1       7.097  32.431  60.422  1.00  0.00    -0.256 N 
HETATM    5  H   UNL     1       7.529  32.108  59.565  1.00  0.00     0.191 HD
HETATM    6  C   UNL     1       5.824  32.860  60.615  1.00  0.00     0.175 A 
HETATM    7  C   UNL     1       5.716  33.209  61.937  1.00  0.00     0.034 A 
HETATM    8  C   UNL     1       4.410  33.692  62.465  1.00  0.00     0.109 A 
HETATM    9  C   UNL     1       3.370  33.793  61.346  1.00  0.00     0.081 A 
HETATM   10  C   UNL     1       2.070  34.244  61.719  1.00  0.00     0.100 C 
HETATM   11  N   UNL     1       0.997  34.575  62.013  1.00  0.00    -0.191 NA
HETATM   12  C   UNL     1       3.631  33.416  60.063  1.00  0.00     0.140 A 
HETATM   13  O   UNL     1       4.892  32.923  59.671  1.00  0.00    -0.279 OA
ENDROOT
BRANCH   8  14
HETATM   14  C   UNL     1       4.662  34.985  63.252  1.00  0.00     0.000 A 
HETATM   15  C   UNL     1       4.972  36.151  62.499  1.00  0.00     0.076 A 
HETATM   16  C   UNL     1       5.206  37.367  63.139  1.00  0.00     0.038 A 
HETATM   17  C   UNL     1       5.171  37.446  64.526  1.00  0.00     0.015 A 
HETATM   18  C   UNL     1       4.900  36.321  65.307  1.00  0.00    -0.025 A 
HETATM   19  C   UNL     1       4.640  35.067  64.691  1.00  0.00    -0.016 A 
HETATM   20  C   UNL     1       4.889  36.458  66.705  1.00  0.00     0.012 A 
HETATM   21  C   UNL     1       4.380  33.989  65.576  1.00  0.00     0.013 A 
HETATM   22  C   UNL     1       4.374  34.135  66.967  1.00  0.00     0.001 A 
HETATM   23  C   UNL     1       4.627  35.372  67.534  1.00  0.00     0.001 A 
BRANCH  15  24
HETATM   24  O   UNL     1       4.990  36.019  61.132  1.00  0.00    -0.355 OA
HETATM   25  C   UNL     1       4.544  37.133  60.365  1.00  0.00     0.210 C 
ENDBRANCH  15  24
ENDBRANCH   8  14
BRANCH  12  26
HETATM   26  N   UNL     1       2.736  33.461  59.018  1.00  0.00    -0.282 NA
HETATM   27  H   UNL     1       2.157  32.633  58.900  1.00  0.00     0.126 HD
HETATM   28  H   UNL     1       3.174  33.769  58.153  1.00  0.00     0.126 HD
ENDBRANCH  12  26
TORSDOF 3
ENDMDL
MODEL 8
REMARK VINA RESULT:      -6.4      3.071      5.520
REMARK  3 active torsions:
REMARK  status: ('A' for Active; 'I' for Inactive)
REMARK    1  A    between atoms: C_8  and  C_9 
REMARK    2  A    between atoms: C_10  and  O_11 
REMARK    3  A    between atoms: C_24  and  N_25 
ROOT
HETATM    1  C   UNL     1       6.382  32.554  59.809  1.00  0.00     0.073 C 
HETATM    2  C   UNL     1       5.321  33.177  58.979  1.00  0.00     0.062 A 
HETATM    3  N   UNL     1       5.483  33.296  57.651  1.00  0.00    -0.177 NA
HETATM    4  N   UNL     1       4.344  33.880  57.226  1.00  0.00    -0.256 N 
HETATM    5  H   UNL     1       4.233  34.075  56.238  1.00  0.00     0.191 HD
HETATM    6  C   UNL     1       3.470  34.116  58.236  1.00  0.00     0.175 A 
HETATM    7  C   UNL     1       4.074  33.699  59.394  1.00  0.00     0.034 A 
HETATM    8  C   UNL     1       3.338  33.802  60.685  1.00  0.00     0.109 A 
HETATM    9  C   UNL     1       1.976  34.469  60.488  1.00  0.00     0.081 A 
HETATM   10  C   UNL     1       1.166  34.628  61.651  1.00  0.00     0.100 C 
HETATM   11  N   UNL     1       0.479  34.731  62.581  1.00  0.00    -0.191 NA
HETATM   12  C   UNL     1       1.511  34.845  59.263  1.00  0.00     0.140 A 
HETATM   13  O   UNL     1       2.267  34.661  58.089  1.00  0.00    -0.279 OA
ENDROOT
BRANCH   8  14
HETATM   14  C   UNL     1       4.263  34.474  61.709  1.00  0.00     0.000 A 
HETATM   15  C   UNL     1       4.652  33.700  62.836  1.00  0.00     0.076 A 
HETATM   16  C   UNL     1       5.497  34.235  63.807  1.00  0.00     0.038 A 
HETATM   17  C   UNL     1       5.944  35.546  63.700  1.00  0.00     0.015 A 
HETATM   18  C   UNL     1       5.565  36.353  62.625  1.00  0.00    -0.025 A 
HETATM   19  C   UNL     1       4.717  35.838  61.607  1.00  0.00    -0.016 A 
HETATM   20  C   UNL     1       6.038  37.675  62.575  1.00  0.00     0.012 A 
HETATM   21  C   UNL     1       4.390  36.742  60.564  1.00  0.00     0.013 A 
HETATM   22  C   UNL     1       4.865  38.058  60.524  1.00  0.00     0.001 A 
HETATM   23  C   UNL     1       5.692  38.525  61.531  1.00  0.00     0.001 A 
BRANCH  15  24
HETATM   24  O   UNL     1       4.185  32.409  62.892  1.00  0.00    -0.355 OA
HETATM   25  C   UNL     1       5.155  31.370  62.984  1.00  0.00     0.210 C 
ENDBRANCH  15  24
ENDBRANCH   8  14
BRANCH  12  26
HETATM   26  N   UNL     1       0.289  35.429  59.016  1.00  0.00    -0.282 NA
HETATM   27  H   UNL     1      -0.414  34.819  58.603  1.00  0.00     0.126 HD
HETATM   28  H   UNL     1       0.381  36.318  58.531  1.00  0.00     0.126 HD
ENDBRANCH  12  26
TORSDOF 3
ENDMDL
MODEL 9
REMARK VINA RESULT:      -6.3      3.045      5.306
REMARK  3 active torsions:
REMARK  status: ('A' for Active; 'I' for Inactive)
REMARK    1  A    between atoms: C_8  and  C_9 
REMARK    2  A    between atoms: C_10  and  O_11 
REMARK    3  A    between atoms: C_24  and  N_25 
ROOT
HETATM    1  C   UNL     1       0.386  34.980  60.495  1.00  0.00     0.073 C 
HETATM    2  C   UNL     1       1.286  34.452  61.549  1.00  0.00     0.062 A 
HETATM    3  N   UNL     1       0.887  34.435  62.833  1.00  0.00    -0.177 NA
HETATM    4  N   UNL     1       1.925  33.887  63.497  1.00  0.00    -0.256 N 
HETATM    5  H   UNL     1       1.857  33.770  64.501  1.00  0.00     0.191 HD
HETATM    6  C   UNL     1       2.951  33.547  62.677  1.00  0.00     0.175 A 
HETATM    7  C   UNL     1       2.588  33.919  61.408  1.00  0.00     0.034 A 
HETATM    8  C   UNL     1       3.508  33.642  60.270  1.00  0.00     0.109 A 
HETATM    9  C   UNL     1       4.816  33.018  60.761  1.00  0.00     0.081 A 
HETATM   10  C   UNL     1       5.788  32.701  59.767  1.00  0.00     0.100 C 
HETATM   11  N   UNL     1       6.574  32.403  58.967  1.00  0.00    -0.191 NA
HETATM   12  C   UNL     1       5.039  32.713  62.070  1.00  0.00     0.140 A 
HETATM   13  O   UNL     1       4.081  32.972  63.071  1.00  0.00    -0.279 OA
ENDROOT
BRANCH   8  14
HETATM   14  C   UNL     1       3.657  34.932  59.452  1.00  0.00     0.000 A 
HETATM   15  C   UNL     1       3.264  34.881  58.086  1.00  0.00     0.076 A 
HETATM   16  C   UNL     1       3.361  36.013  57.278  1.00  0.00     0.038 A 
HETATM   17  C   UNL     1       3.873  37.198  57.791  1.00  0.00     0.015 A 
HETATM   18  C   UNL     1       4.297  37.287  59.118  1.00  0.00    -0.025 A 
HETATM   19  C   UNL     1       4.200  36.159  59.978  1.00  0.00    -0.016 A 
HETATM   20  C   UNL     1       4.817  38.508  59.580  1.00  0.00     0.012 A 
HETATM   21  C   UNL     1       4.662  36.356  61.305  1.00  0.00     0.013 A 
HETATM   22  C   UNL     1       5.181  37.576  61.754  1.00  0.00     0.001 A 
HETATM   23  C   UNL     1       5.257  38.654  60.890  1.00  0.00     0.001 A 
BRANCH  15  24
HETATM   24  O   UNL     1       2.762  33.687  57.630  1.00  0.00    -0.355 OA
HETATM   25  C   UNL     1       3.384  33.114  56.485  1.00  0.00     0.210 C 
ENDBRANCH  15  24
ENDBRANCH   8  14
BRANCH  12  26
HETATM   26  N   UNL     1       6.181  32.132  62.573  1.00  0.00    -0.282 NA
HETATM   27  H   UNL     1       6.313  32.220  63.578  1.00  0.00     0.126 HD
HETATM   28  H   UNL     1       7.008  32.387  62.038  1.00  0.00     0.126 HD
ENDBRANCH  12  26
TORSDOF 3
ENDMDL
MODEL 10
REMARK VINA RESULT:      -6.2      2.025      3.653
REMARK  3 active torsions:
REMARK  status: ('A' for Active; 'I' for Inactive)
REMARK    1  A    between atoms: C_8  and  C_9 
REMARK    2  A    between atoms: C_10  and  O_11 
REMARK    3  A    between atoms: C_24  and  N_25 
ROOT
HETATM    1  C   UNL     1       6.614  37.168  62.003  1.00  0.00     0.073 C 
HETATM    2  C   UNL     1       5.136  37.122  61.877  1.00  0.00     0.062 A 
HETATM    3  N   UNL     1       4.403  38.224  62.111  1.00  0.00    -0.177 NA
HETATM    4  N   UNL     1       3.131  37.830  61.894  1.00  0.00    -0.256 N 
HETATM    5  H   UNL     1       2.383  38.504  62.011  1.00  0.00     0.191 HD
HETATM    6  C   UNL     1       3.043  36.529  61.519  1.00  0.00     0.175 A 
HETATM    7  C   UNL     1       4.318  36.025  61.521  1.00  0.00     0.034 A 
HETATM    8  C   UNL     1       4.550  34.611  61.115  1.00  0.00     0.109 A 
HETATM    9  C   UNL     1       3.226  33.901  60.822  1.00  0.00     0.081 A 
HETATM   10  C   UNL     1       3.307  32.535  60.421  1.00  0.00     0.100 C 
HETATM   11  N   UNL     1       3.358  31.435  60.056  1.00  0.00    -0.191 NA
HETATM   12  C   UNL     1       2.023  34.538  60.875  1.00  0.00     0.140 A 
HETATM   13  O   UNL     1       1.912  35.899  61.224  1.00  0.00    -0.279 OA
ENDROOT
BRANCH   8  14
HETATM   14  C   UNL     1       5.435  33.949  62.179  1.00  0.00     0.000 A 
HETATM   15  C   UNL     1       4.997  34.034  63.530  1.00  0.00     0.076 A 
HETATM   16  C   UNL     1       5.741  33.451  64.554  1.00  0.00     0.038 A 
HETATM   17  C   UNL     1       6.938  32.805  64.270  1.00  0.00     0.015 A 
HETATM   18  C   UNL     1       7.420  32.721  62.963  1.00  0.00    -0.025 A 
HETATM   19  C   UNL     1       6.684  33.290  61.889  1.00  0.00    -0.016 A 
HETATM   20  C   UNL     1       8.642  32.065  62.736  1.00  0.00     0.012 A 
HETATM   21  C   UNL     1       7.265  33.151  60.602  1.00  0.00     0.013 A 
HETATM   22  C   UNL     1       8.484  32.499  60.388  1.00  0.00     0.001 A 
HETATM   23  C   UNL     1       9.174  31.953  61.457  1.00  0.00     0.001 A 
BRANCH  15  24
HETATM   24  O   UNL     1       3.806  34.680  63.755  1.00  0.00    -0.355 OA
HETATM   25  C   UNL     1       3.391  34.826  65.109  1.00  0.00     0.210 C 
ENDBRANCH  15  24
ENDBRANCH   8  14
BRANCH  12  26
HETATM   26  N   UNL     1       0.801  33.964  60.602  1.00  0.00    -0.282 NA
HETATM   27  H   UNL     1       0.632  33.733  59.626  1.00  0.00     0.126 HD
HETATM   28  H   UNL     1       0.034  34.477  61.031  1.00  0.00     0.126 HD
ENDBRANCH  12  26
TORSDOF 3
ENDMDL
