MODEL 1
REMARK VINA RESULT:      -9.4      0.000      0.000
REMARK  2 active torsions:
REMARK  status: ('A' for Active; 'I' for Inactive)
REMARK    1  A    between atoms: C_5  and  C_6 
REMARK    2  A    between atoms: C_17  and  O_18 
ROOT
HETATM    1  C   UNL     1       7.151  25.313  55.995  1.00  0.00     0.200 C 
HETATM    2  N   UNL     1       5.928  26.012  55.696  1.00  0.00    -0.336 N 
HETATM    3  C   UNL     1       5.572  27.111  56.437  1.00  0.00     0.255 C 
HETATM    4  O   UNL     1       4.398  27.425  56.583  1.00  0.00    -0.268 OA
HETATM    5  C   UNL     1       6.685  27.914  56.976  1.00  0.00     0.053 A 
HETATM    6  C   UNL     1       7.988  27.469  56.725  1.00  0.00     0.026 A 
HETATM    7  N   UNL     1       8.248  26.264  56.057  1.00  0.00    -0.267 NA
HETATM    8  C   UNL     1       6.438  29.120  57.636  1.00  0.00     0.019 A 
HETATM    9  C   UNL     1       7.513  29.912  58.038  1.00  0.00     0.001 A 
HETATM   10  C   UNL     1       8.818  29.499  57.768  1.00  0.00     0.002 A 
HETATM   11  C   UNL     1       9.054  28.288  57.109  1.00  0.00     0.024 A 
HETATM   12  H   UNL     1       5.125  25.430  55.486  1.00  0.00     0.164 HD
HETATM   13  H   UNL     1       8.666  26.438  55.144  1.00  0.00     0.130 HD
ENDROOT
BRANCH   1  14
HETATM   14  C   UNL     1       7.449  24.263  54.939  1.00  0.00     0.023 A 
HETATM   15  C   UNL     1       7.815  22.922  55.288  1.00  0.00    -0.014 A 
HETATM   16  C   UNL     1       8.088  21.994  54.245  1.00  0.00    -0.025 A 
HETATM   17  C   UNL     1       7.934  22.435  56.616  1.00  0.00     0.013 A 
HETATM   18  C   UNL     1       8.429  20.665  54.542  1.00  0.00     0.012 A 
HETATM   19  C   UNL     1       8.028  22.397  52.905  1.00  0.00     0.015 A 
HETATM   20  C   UNL     1       8.517  20.221  55.857  1.00  0.00     0.001 A 
HETATM   21  C   UNL     1       8.274  21.107  56.894  1.00  0.00     0.001 A 
HETATM   22  C   UNL     1       7.701  23.704  52.569  1.00  0.00     0.038 A 
HETATM   23  C   UNL     1       7.409  24.617  53.572  1.00  0.00     0.076 A 
BRANCH  23  24
HETATM   24  O   UNL     1       7.092  25.878  53.140  1.00  0.00    -0.360 OA
HETATM   25  H   UNL     1       7.059  26.481  53.910  1.00  0.00     0.217 HD
ENDBRANCH  23  24
ENDBRANCH   1  14
TORSDOF 2
ENDMDL
MODEL 2
REMARK VINA RESULT:      -9.4      1.175      6.582
REMARK  2 active torsions:
REMARK  status: ('A' for Active; 'I' for Inactive)
REMARK    1  A    between atoms: C_5  and  C_6 
REMARK    2  A    between atoms: C_17  and  O_18 
ROOT
HETATM    1  C   UNL     1       7.671  25.681  55.260  1.00  0.00     0.200 C 
HETATM    2  N   UNL     1       7.334  25.689  53.860  1.00  0.00    -0.336 N 
HETATM    3  C   UNL     1       7.757  24.663  53.051  1.00  0.00     0.255 C 
HETATM    4  O   UNL     1       7.950  24.836  51.855  1.00  0.00    -0.268 OA
HETATM    5  C   UNL     1       7.893  23.346  53.698  1.00  0.00     0.053 A 
HETATM    6  C   UNL     1       7.623  23.264  55.069  1.00  0.00     0.026 A 
HETATM    7  N   UNL     1       7.313  24.397  55.836  1.00  0.00    -0.267 NA
HETATM    8  C   UNL     1       8.193  22.209  52.943  1.00  0.00     0.019 A 
HETATM    9  C   UNL     1       8.207  20.960  53.563  1.00  0.00     0.001 A 
HETATM   10  C   UNL     1       7.910  20.857  54.922  1.00  0.00     0.002 A 
HETATM   11  C   UNL     1       7.613  22.002  55.669  1.00  0.00     0.024 A 
HETATM   12  H   UNL     1       7.408  26.585  53.391  1.00  0.00     0.164 HD
HETATM   13  H   UNL     1       6.345  24.366  56.152  1.00  0.00     0.130 HD
ENDROOT
BRANCH   1  14
HETATM   14  C   UNL     1       6.943  26.790  56.000  1.00  0.00     0.023 A 
HETATM   15  C   UNL     1       7.648  27.855  56.650  1.00  0.00    -0.014 A 
HETATM   16  C   UNL     1       6.899  28.854  57.331  1.00  0.00    -0.025 A 
HETATM   17  C   UNL     1       9.060  27.995  56.674  1.00  0.00     0.013 A 
HETATM   18  C   UNL     1       7.548  29.928  57.963  1.00  0.00     0.012 A 
HETATM   19  C   UNL     1       5.502  28.778  57.387  1.00  0.00     0.015 A 
HETATM   20  C   UNL     1       8.934  30.039  57.949  1.00  0.00     0.001 A 
HETATM   21  C   UNL     1       9.690  29.070  57.308  1.00  0.00     0.001 A 
HETATM   22  C   UNL     1       4.822  27.730  56.781  1.00  0.00     0.038 A 
HETATM   23  C   UNL     1       5.534  26.758  56.093  1.00  0.00     0.076 A 
BRANCH  23  24
HETATM   24  O   UNL     1       4.774  25.770  55.524  1.00  0.00    -0.360 OA
HETATM   25  H   UNL     1       3.917  25.716  55.992  1.00  0.00     0.217 HD
ENDBRANCH  23  24
ENDBRANCH   1  14
TORSDOF 2
ENDMDL
MODEL 3
REMARK VINA RESULT:      -9.3     12.130     15.496
REMARK  2 active torsions:
REMARK  status: ('A' for Active; 'I' for Inactive)
REMARK    1  A    between atoms: C_5  and  C_6 
REMARK    2  A    between atoms: C_17  and  O_18 
ROOT
HETATM    1  C   UNL     1       6.316  34.258  67.670  1.00  0.00     0.200 C 
HETATM    2  N   UNL     1       5.403  33.588  68.560  1.00  0.00    -0.336 N 
HETATM    3  C   UNL     1       5.755  33.384  69.871  1.00  0.00     0.255 C 
HETATM    4  O   UNL     1       5.304  32.443  70.511  1.00  0.00    -0.268 OA
HETATM    5  C   UNL     1       6.643  34.399  70.466  1.00  0.00     0.053 A 
HETATM    6  C   UNL     1       7.078  35.444  69.643  1.00  0.00     0.026 A 
HETATM    7  N   UNL     1       6.759  35.501  68.279  1.00  0.00    -0.267 NA
HETATM    8  C   UNL     1       6.962  34.358  71.826  1.00  0.00     0.019 A 
HETATM    9  C   UNL     1       7.714  35.391  72.384  1.00  0.00     0.001 A 
HETATM   10  C   UNL     1       8.129  36.457  71.585  1.00  0.00     0.002 A 
HETATM   11  C   UNL     1       7.807  36.486  70.224  1.00  0.00     0.024 A 
HETATM   12  H   UNL     1       4.920  32.784  68.176  1.00  0.00     0.164 HD
HETATM   13  H   UNL     1       6.129  36.277  68.085  1.00  0.00     0.130 HD
ENDROOT
BRANCH   1  14
HETATM   14  C   UNL     1       5.654  34.555  66.336  1.00  0.00     0.023 A 
HETATM   15  C   UNL     1       6.203  34.082  65.099  1.00  0.00    -0.014 A 
HETATM   16  C   UNL     1       5.533  34.406  63.886  1.00  0.00    -0.025 A 
HETATM   17  C   UNL     1       7.385  33.306  64.980  1.00  0.00     0.013 A 
HETATM   18  C   UNL     1       6.023  33.946  62.653  1.00  0.00     0.012 A 
HETATM   19  C   UNL     1       4.377  35.196  63.905  1.00  0.00     0.015 A 
HETATM   20  C   UNL     1       7.176  33.171  62.581  1.00  0.00     0.001 A 
HETATM   21  C   UNL     1       7.860  32.856  63.745  1.00  0.00     0.001 A 
HETATM   22  C   UNL     1       3.863  35.676  65.102  1.00  0.00     0.038 A 
HETATM   23  C   UNL     1       4.489  35.352  66.296  1.00  0.00     0.076 A 
BRANCH  23  24
HETATM   24  O   UNL     1       3.904  35.868  67.423  1.00  0.00    -0.360 OA
HETATM   25  H   UNL     1       2.937  35.916  67.287  1.00  0.00     0.217 HD
ENDBRANCH  23  24
ENDBRANCH   1  14
TORSDOF 2
ENDMDL
MODEL 4
REMARK VINA RESULT:      -9.1      2.050      3.765
REMARK  2 active torsions:
REMARK  status: ('A' for Active; 'I' for Inactive)
REMARK    1  A    between atoms: C_5  and  C_6 
REMARK    2  A    between atoms: C_17  and  O_18 
ROOT
HETATM    1  C   UNL     1       7.621  27.365  56.206  1.00  0.00     0.200 C 
HETATM    2  N   UNL     1       8.608  27.863  57.127  1.00  0.00    -0.336 N 
HETATM    3  C   UNL     1       8.549  29.168  57.550  1.00  0.00     0.255 C 
HETATM    4  O   UNL     1       9.557  29.772  57.891  1.00  0.00    -0.268 OA
HETATM    5  C   UNL     1       7.201  29.758  57.633  1.00  0.00     0.053 A 
HETATM    6  C   UNL     1       6.118  28.964  57.238  1.00  0.00     0.026 A 
HETATM    7  N   UNL     1       6.293  27.679  56.704  1.00  0.00    -0.267 NA
HETATM    8  C   UNL     1       7.013  31.034  58.170  1.00  0.00     0.019 A 
HETATM    9  C   UNL     1       5.718  31.523  58.337  1.00  0.00     0.001 A 
HETATM   10  C   UNL     1       4.626  30.732  57.978  1.00  0.00     0.002 A 
HETATM   11  C   UNL     1       4.825  29.457  57.439  1.00  0.00     0.024 A 
HETATM   12  H   UNL     1       9.564  27.574  56.952  1.00  0.00     0.164 HD
HETATM   13  H   UNL     1       5.937  26.969  57.343  1.00  0.00     0.130 HD
ENDROOT
BRANCH   1  14
HETATM   14  C   UNL     1       7.753  25.862  56.028  1.00  0.00     0.023 A 
HETATM   15  C   UNL     1       7.737  25.250  54.733  1.00  0.00    -0.014 A 
HETATM   16  C   UNL     1       7.858  23.835  54.644  1.00  0.00    -0.025 A 
HETATM   17  C   UNL     1       7.604  25.951  53.507  1.00  0.00     0.013 A 
HETATM   18  C   UNL     1       7.869  23.195  53.394  1.00  0.00     0.012 A 
HETATM   19  C   UNL     1       7.960  23.059  55.805  1.00  0.00     0.015 A 
HETATM   20  C   UNL     1       7.754  23.921  52.213  1.00  0.00     0.001 A 
HETATM   21  C   UNL     1       7.616  25.298  52.270  1.00  0.00     0.001 A 
HETATM   22  C   UNL     1       7.948  23.651  57.060  1.00  0.00     0.038 A 
HETATM   23  C   UNL     1       7.853  25.031  57.166  1.00  0.00     0.076 A 
BRANCH  23  24
HETATM   24  O   UNL     1       7.855  25.521  58.446  1.00  0.00    -0.360 OA
HETATM   25  H   UNL     1       7.797  26.497  58.415  1.00  0.00     0.217 HD
ENDBRANCH  23  24
ENDBRANCH   1  14
TORSDOF 2
ENDMDL
MODEL 5
REMARK VINA RESULT:      -8.9      5.224     10.200
REMARK  2 active torsions:
REMARK  status: ('A' for Active; 'I' for Inactive)
REMARK    1  A    between atoms: C_5  and  C_6 
REMARK    2  A    between atoms: C_17  and  O_18 
ROOT
HETATM    1  C   UNL     1       7.727  31.616  60.235  1.00  0.00     0.200 C 
HETATM    2  N   UNL     1       8.704  32.296  59.426  1.00  0.00    -0.336 N 
HETATM    3  C   UNL     1       9.604  31.568  58.687  1.00  0.00     0.255 C 
HETATM    4  O   UNL     1      10.707  32.018  58.407  1.00  0.00    -0.268 OA
HETATM    5  C   UNL     1       9.129  30.260  58.202  1.00  0.00     0.053 A 
HETATM    6  C   UNL     1       7.839  29.860  58.567  1.00  0.00     0.026 A 
HETATM    7  N   UNL     1       7.038  30.623  59.428  1.00  0.00    -0.267 NA
HETATM    8  C   UNL     1       9.915  29.494  57.337  1.00  0.00     0.019 A 
HETATM    9  C   UNL     1       9.397  28.312  56.807  1.00  0.00     0.001 A 
HETATM   10  C   UNL     1       8.100  27.915  57.136  1.00  0.00     0.002 A 
HETATM   11  C   UNL     1       7.324  28.688  58.005  1.00  0.00     0.024 A 
HETATM   12  H   UNL     1       9.142  33.107  59.849  1.00  0.00     0.164 HD
HETATM   13  H   UNL     1       6.237  31.011  58.931  1.00  0.00     0.130 HD
ENDROOT
BRANCH   1  14
HETATM   14  C   UNL     1       6.716  32.596  60.805  1.00  0.00     0.023 A 
HETATM   15  C   UNL     1       6.772  33.032  62.169  1.00  0.00    -0.014 A 
HETATM   16  C   UNL     1       5.786  33.946  62.636  1.00  0.00    -0.025 A 
HETATM   17  C   UNL     1       7.746  32.616  63.113  1.00  0.00     0.013 A 
HETATM   18  C   UNL     1       5.816  34.416  63.959  1.00  0.00     0.012 A 
HETATM   19  C   UNL     1       4.767  34.384  61.782  1.00  0.00     0.015 A 
HETATM   20  C   UNL     1       6.800  33.998  64.849  1.00  0.00     0.001 A 
HETATM   21  C   UNL     1       7.762  33.094  64.428  1.00  0.00     0.001 A 
HETATM   22  C   UNL     1       4.698  33.939  60.469  1.00  0.00     0.038 A 
HETATM   23  C   UNL     1       5.663  33.066  59.990  1.00  0.00     0.076 A 
BRANCH  23  24
HETATM   24  O   UNL     1       5.512  32.689  58.681  1.00  0.00    -0.360 OA
HETATM   25  H   UNL     1       6.377  32.751  58.229  1.00  0.00     0.217 HD
ENDBRANCH  23  24
ENDBRANCH   1  14
TORSDOF 2
ENDMDL
MODEL 6
REMARK VINA RESULT:      -8.9      4.026      6.224
REMARK  2 active torsions:
REMARK  status: ('A' for Active; 'I' for Inactive)
REMARK    1  A    between atoms: C_5  and  C_6 
REMARK    2  A    between atoms: C_17  and  O_18 
ROOT
HETATM    1  C   UNL     1       6.043  26.267  51.805  1.00  0.00     0.200 C 
HETATM    2  N   UNL     1       5.874  27.696  51.839  1.00  0.00    -0.336 N 
HETATM    3  C   UNL     1       5.655  28.385  50.671  1.00  0.00     0.255 C 
HETATM    4  O   UNL     1       5.994  29.554  50.550  1.00  0.00    -0.268 OA
HETATM    5  C   UNL     1       4.932  27.651  49.617  1.00  0.00     0.053 A 
HETATM    6  C   UNL     1       4.574  26.324  49.877  1.00  0.00     0.026 A 
HETATM    7  N   UNL     1       4.950  25.668  51.059  1.00  0.00    -0.267 NA
HETATM    8  C   UNL     1       4.545  28.295  48.439  1.00  0.00     0.019 A 
HETATM    9  C   UNL     1       3.767  27.608  47.507  1.00  0.00     0.001 A 
HETATM   10  C   UNL     1       3.375  26.294  47.765  1.00  0.00     0.002 A 
HETATM   11  C   UNL     1       3.771  25.658  48.946  1.00  0.00     0.024 A 
HETATM   12  H   UNL     1       6.500  28.202  52.455  1.00  0.00     0.164 HD
HETATM   13  H   UNL     1       4.137  25.477  51.642  1.00  0.00     0.130 HD
ENDROOT
BRANCH   1  14
HETATM   14  C   UNL     1       6.073  25.691  53.211  1.00  0.00     0.023 A 
HETATM   15  C   UNL     1       6.862  24.541  53.539  1.00  0.00    -0.014 A 
HETATM   16  C   UNL     1       6.834  24.051  54.875  1.00  0.00    -0.025 A 
HETATM   17  C   UNL     1       7.683  23.832  52.623  1.00  0.00     0.013 A 
HETATM   18  C   UNL     1       7.608  22.940  55.246  1.00  0.00     0.012 A 
HETATM   19  C   UNL     1       6.025  24.668  55.838  1.00  0.00     0.015 A 
HETATM   20  C   UNL     1       8.415  22.285  54.322  1.00  0.00     0.001 A 
HETATM   21  C   UNL     1       8.449  22.728  53.010  1.00  0.00     0.001 A 
HETATM   22  C   UNL     1       5.240  25.764  55.511  1.00  0.00     0.038 A 
HETATM   23  C   UNL     1       5.271  26.270  54.219  1.00  0.00     0.076 A 
BRANCH  23  24
HETATM   24  O   UNL     1       4.467  27.356  53.996  1.00  0.00    -0.360 OA
HETATM   25  H   UNL     1       4.996  28.066  53.581  1.00  0.00     0.217 HD
ENDBRANCH  23  24
ENDBRANCH   1  14
TORSDOF 2
ENDMDL
MODEL 7
REMARK VINA RESULT:      -8.8     12.756     17.082
REMARK  2 active torsions:
REMARK  status: ('A' for Active; 'I' for Inactive)
REMARK    1  A    between atoms: C_5  and  C_6 
REMARK    2  A    between atoms: C_17  and  O_18 
ROOT
HETATM    1  C   UNL     1       6.033  34.990  68.383  1.00  0.00     0.200 C 
HETATM    2  N   UNL     1       4.626  34.801  68.143  1.00  0.00    -0.336 N 
HETATM    3  C   UNL     1       4.135  34.883  66.863  1.00  0.00     0.255 C 
HETATM    4  O   UNL     1       2.981  35.227  66.646  1.00  0.00    -0.268 OA
HETATM    5  C   UNL     1       5.057  34.466  65.791  1.00  0.00     0.053 A 
HETATM    6  C   UNL     1       6.347  34.069  66.162  1.00  0.00     0.026 A 
HETATM    7  N   UNL     1       6.794  34.134  67.489  1.00  0.00    -0.267 NA
HETATM    8  C   UNL     1       4.621  34.390  64.466  1.00  0.00     0.019 A 
HETATM    9  C   UNL     1       5.481  33.888  63.490  1.00  0.00     0.001 A 
HETATM   10  C   UNL     1       6.760  33.458  63.847  1.00  0.00     0.002 A 
HETATM   11  C   UNL     1       7.187  33.542  65.176  1.00  0.00     0.024 A 
HETATM   12  H   UNL     1       4.000  35.240  68.809  1.00  0.00     0.164 HD
HETATM   13  H   UNL     1       6.938  33.200  67.870  1.00  0.00     0.130 HD
ENDROOT
BRANCH   1  14
HETATM   14  C   UNL     1       6.387  34.661  69.823  1.00  0.00     0.023 A 
HETATM   15  C   UNL     1       7.152  35.559  70.637  1.00  0.00    -0.014 A 
HETATM   16  C   UNL     1       7.453  35.181  71.975  1.00  0.00    -0.025 A 
HETATM   17  C   UNL     1       7.648  36.818  70.208  1.00  0.00     0.013 A 
HETATM   18  C   UNL     1       8.182  36.039  72.814  1.00  0.00     0.012 A 
HETATM   19  C   UNL     1       7.032  33.941  72.472  1.00  0.00     0.015 A 
HETATM   20  C   UNL     1       8.635  37.274  72.362  1.00  0.00     0.001 A 
HETATM   21  C   UNL     1       8.372  37.661  71.057  1.00  0.00     0.001 A 
HETATM   22  C   UNL     1       6.315  33.061  71.673  1.00  0.00     0.038 A 
HETATM   23  C   UNL     1       5.993  33.421  70.373  1.00  0.00     0.076 A 
BRANCH  23  24
HETATM   24  O   UNL     1       5.279  32.489  69.668  1.00  0.00    -0.360 OA
HETATM   25  H   UNL     1       4.326  32.611  69.849  1.00  0.00     0.217 HD
ENDBRANCH  23  24
ENDBRANCH   1  14
TORSDOF 2
ENDMDL
MODEL 8
REMARK VINA RESULT:      -8.5      2.403      6.682
REMARK  2 active torsions:
REMARK  status: ('A' for Active; 'I' for Inactive)
REMARK    1  A    between atoms: C_5  and  C_6 
REMARK    2  A    between atoms: C_17  and  O_18 
ROOT
HETATM    1  C   UNL     1       6.899  24.091  56.113  1.00  0.00     0.200 C 
HETATM    2  N   UNL     1       7.806  23.460  57.036  1.00  0.00    -0.336 N 
HETATM    3  C   UNL     1       8.131  22.136  56.875  1.00  0.00     0.255 C 
HETATM    4  O   UNL     1       8.452  21.440  57.829  1.00  0.00    -0.268 OA
HETATM    5  C   UNL     1       8.136  21.638  55.488  1.00  0.00     0.053 A 
HETATM    6  C   UNL     1       7.773  22.532  54.475  1.00  0.00     0.026 A 
HETATM    7  N   UNL     1       7.340  23.837  54.752  1.00  0.00    -0.267 NA
HETATM    8  C   UNL     1       8.573  20.343  55.198  1.00  0.00     0.019 A 
HETATM    9  C   UNL     1       8.671  19.935  53.868  1.00  0.00     0.001 A 
HETATM   10  C   UNL     1       8.343  20.825  52.844  1.00  0.00     0.002 A 
HETATM   11  C   UNL     1       7.904  22.118  53.146  1.00  0.00     0.024 A 
HETATM   12  H   UNL     1       7.677  23.694  58.014  1.00  0.00     0.164 HD
HETATM   13  H   UNL     1       8.020  24.522  54.427  1.00  0.00     0.130 HD
ENDROOT
BRANCH   1  14
HETATM   14  C   UNL     1       6.836  25.590  56.354  1.00  0.00     0.023 A 
HETATM   15  C   UNL     1       6.149  26.471  55.457  1.00  0.00    -0.014 A 
HETATM   16  C   UNL     1       6.139  27.865  55.741  1.00  0.00    -0.025 A 
HETATM   17  C   UNL     1       5.466  26.060  54.282  1.00  0.00     0.013 A 
HETATM   18  C   UNL     1       5.458  28.761  54.901  1.00  0.00     0.012 A 
HETATM   19  C   UNL     1       6.815  28.364  56.861  1.00  0.00     0.015 A 
HETATM   20  C   UNL     1       4.785  28.316  53.768  1.00  0.00     0.001 A 
HETATM   21  C   UNL     1       4.793  26.966  53.456  1.00  0.00     0.001 A 
HETATM   22  C   UNL     1       7.504  27.512  57.714  1.00  0.00     0.038 A 
HETATM   23  C   UNL     1       7.506  26.148  57.465  1.00  0.00     0.076 A 
BRANCH  23  24
HETATM   24  O   UNL     1       8.209  25.390  58.365  1.00  0.00    -0.360 OA
HETATM   25  H   UNL     1       8.498  25.960  59.105  1.00  0.00     0.217 HD
ENDBRANCH  23  24
ENDBRANCH   1  14
TORSDOF 2
ENDMDL
MODEL 9
REMARK VINA RESULT:      -8.5      4.498      7.031
REMARK  2 active torsions:
REMARK  status: ('A' for Active; 'I' for Inactive)
REMARK    1  A    between atoms: C_5  and  C_6 
REMARK    2  A    between atoms: C_17  and  O_18 
ROOT
HETATM    1  C   UNL     1       5.292  26.244  52.058  1.00  0.00     0.200 C 
HETATM    2  N   UNL     1       5.326  26.783  53.393  1.00  0.00    -0.336 N 
HETATM    3  C   UNL     1       5.606  25.959  54.455  1.00  0.00     0.255 C 
HETATM    4  O   UNL     1       5.178  26.199  55.575  1.00  0.00    -0.268 OA
HETATM    5  C   UNL     1       6.503  24.824  54.170  1.00  0.00     0.053 A 
HETATM    6  C   UNL     1       6.950  24.663  52.854  1.00  0.00     0.026 A 
HETATM    7  N   UNL     1       6.510  25.490  51.811  1.00  0.00    -0.267 NA
HETATM    8  C   UNL     1       6.954  23.997  55.202  1.00  0.00     0.019 A 
HETATM    9  C   UNL     1       7.887  22.999  54.921  1.00  0.00     0.001 A 
HETATM   10  C   UNL     1       8.367  22.845  53.620  1.00  0.00     0.002 A 
HETATM   11  C   UNL     1       7.906  23.676  52.594  1.00  0.00     0.024 A 
HETATM   12  H   UNL     1       4.594  27.446  53.622  1.00  0.00     0.164 HD
HETATM   13  H   UNL     1       7.269  26.076  51.468  1.00  0.00     0.130 HD
ENDROOT
BRANCH   1  14
HETATM   14  C   UNL     1       5.164  27.353  51.028  1.00  0.00     0.023 A 
HETATM   15  C   UNL     1       4.553  27.130  49.751  1.00  0.00    -0.014 A 
HETATM   16  C   UNL     1       4.476  28.214  48.832  1.00  0.00    -0.025 A 
HETATM   17  C   UNL     1       4.012  25.892  49.316  1.00  0.00     0.013 A 
HETATM   18  C   UNL     1       3.866  28.046  47.578  1.00  0.00     0.012 A 
HETATM   19  C   UNL     1       5.014  29.463  49.164  1.00  0.00     0.015 A 
HETATM   20  C   UNL     1       3.330  26.821  47.196  1.00  0.00     0.001 A 
HETATM   21  C   UNL     1       3.408  25.742  48.064  1.00  0.00     0.001 A 
HETATM   22  C   UNL     1       5.631  29.669  50.390  1.00  0.00     0.038 A 
HETATM   23  C   UNL     1       5.696  28.631  51.308  1.00  0.00     0.076 A 
BRANCH  23  24
HETATM   24  O   UNL     1       6.318  28.933  52.491  1.00  0.00    -0.360 OA
HETATM   25  H   UNL     1       6.757  29.803  52.408  1.00  0.00     0.217 HD
ENDBRANCH  23  24
ENDBRANCH   1  14
TORSDOF 2
ENDMDL
MODEL 10
REMARK VINA RESULT:      -8.4      2.087      6.334
REMARK  2 active torsions:
REMARK  status: ('A' for Active; 'I' for Inactive)
REMARK    1  A    between atoms: C_5  and  C_6 
REMARK    2  A    between atoms: C_17  and  O_18 
ROOT
HETATM    1  C   UNL     1       6.426  24.384  55.097  1.00  0.00     0.200 C 
HETATM    2  N   UNL     1       7.419  24.235  56.129  1.00  0.00    -0.336 N 
HETATM    3  C   UNL     1       7.959  22.998  56.382  1.00  0.00     0.255 C 
HETATM    4  O   UNL     1       8.384  22.705  57.492  1.00  0.00    -0.268 OA
HETATM    5  C   UNL     1       8.055  22.088  55.226  1.00  0.00     0.053 A 
HETATM    6  C   UNL     1       7.556  22.541  54.000  1.00  0.00     0.026 A 
HETATM    7  N   UNL     1       6.911  23.779  53.869  1.00  0.00    -0.267 NA
HETATM    8  C   UNL     1       8.702  20.855  55.343  1.00  0.00     0.019 A 
HETATM    9  C   UNL     1       8.874  20.063  54.208  1.00  0.00     0.001 A 
HETATM   10  C   UNL     1       8.410  20.513  52.971  1.00  0.00     0.002 A 
HETATM   11  C   UNL     1       7.762  21.748  52.867  1.00  0.00     0.024 A 
HETATM   12  H   UNL     1       7.247  24.746  56.987  1.00  0.00     0.164 HD
HETATM   13  H   UNL     1       7.471  24.422  53.311  1.00  0.00     0.130 HD
ENDROOT
BRANCH   1  14
HETATM   14  C   UNL     1       6.115  25.851  54.852  1.00  0.00     0.023 A 
HETATM   15  C   UNL     1       6.810  26.896  55.543  1.00  0.00    -0.014 A 
HETATM   16  C   UNL     1       6.459  28.248  55.268  1.00  0.00    -0.025 A 
HETATM   17  C   UNL     1       7.836  26.692  56.501  1.00  0.00     0.013 A 
HETATM   18  C   UNL     1       7.129  29.304  55.906  1.00  0.00     0.012 A 
HETATM   19  C   UNL     1       5.434  28.543  54.361  1.00  0.00     0.015 A 
HETATM   20  C   UNL     1       8.143  29.062  56.827  1.00  0.00     0.001 A 
HETATM   21  C   UNL     1       8.493  27.755  57.128  1.00  0.00     0.001 A 
HETATM   22  C   UNL     1       4.743  27.528  53.713  1.00  0.00     0.038 A 
HETATM   23  C   UNL     1       5.086  26.205  53.951  1.00  0.00     0.076 A 
BRANCH  23  24
HETATM   24  O   UNL     1       4.351  25.277  53.261  1.00  0.00    -0.360 OA
HETATM   25  H   UNL     1       3.476  25.182  53.686  1.00  0.00     0.217 HD
ENDBRANCH  23  24
ENDBRANCH   1  14
TORSDOF 2
ENDMDL
