MODEL 1
REMARK VINA RESULT:      -9.2      0.000      0.000
REMARK  5 active torsions:
REMARK  status: ('A' for Active; 'I' for Inactive)
REMARK    1  A    between atoms: C_2  and  O_3 
REMARK    2  A    between atoms: O_3  and  C_4 
REMARK    3  A    between atoms: C_5  and  C_6 
REMARK    4  A    between atoms: C_6  and  C_9 
REMARK       I    between atoms: C_9  and  N_10 
REMARK    5  A    between atoms: N_10  and  C_11 
ROOT
HETATM    1  C   UNL     1       7.500  26.347  56.994  1.00  0.00     0.300 C 
HETATM    2  N   UNL     1       7.489  27.689  56.608  1.00  0.00    -0.320 N 
HETATM    3  O   UNL     1       8.257  25.877  57.841  1.00  0.00    -0.266 OA
HETATM    4  H   UNL     1       6.832  27.921  55.866  1.00  0.00     0.169 HD
ENDROOT
BRANCH   1   5
HETATM    5  C   UNL     1       6.425  25.514  56.225  1.00  0.00     0.352 C 
HETATM    6  F   UNL     1       5.365  26.352  55.924  1.00  0.00    -0.190 F 
HETATM    7  F   UNL     1       5.861  24.586  57.059  1.00  0.00    -0.190 F 
BRANCH   5   8
HETATM    8  C   UNL     1       7.001  24.918  54.955  1.00  0.00     0.056 A 
HETATM    9  C   UNL     1       7.616  23.661  54.937  1.00  0.00     0.081 A 
HETATM   10  C   UNL     1       8.098  23.120  53.740  1.00  0.00     0.037 A 
HETATM   11  C   UNL     1       8.015  23.851  52.557  1.00  0.00     0.003 A 
HETATM   12  C   UNL     1       7.440  25.118  52.563  1.00  0.00     0.001 A 
HETATM   13  C   UNL     1       6.934  25.647  53.752  1.00  0.00     0.017 A 
BRANCH   9  14
HETATM   14  O   UNL     1       7.665  22.913  56.080  1.00  0.00    -0.351 OA
BRANCH  14  15
HETATM   15  C   UNL     1       8.572  21.806  55.978  1.00  0.00     0.171 C 
HETATM   16  C   UNL     1       7.821  20.510  56.224  1.00  0.00     0.034 C 
ENDBRANCH  14  15
ENDBRANCH   9  14
ENDBRANCH   5   8
ENDBRANCH   1   5
BRANCH   2  17
HETATM   17  C   UNL     1       8.257  28.745  57.139  1.00  0.00     0.053 A 
HETATM   18  C   UNL     1       9.624  28.937  56.909  1.00  0.00     0.148 A 
HETATM   19  N   UNL     1      10.393  29.931  57.433  1.00  0.00    -0.239 NA
HETATM   20  C   UNL     1       9.694  30.763  58.224  1.00  0.00     0.156 A 
HETATM   21  C   UNL     1       8.346  30.704  58.532  1.00  0.00     0.039 A 
HETATM   22  N   UNL     1      10.183  31.846  58.892  1.00  0.00    -0.260 N 
HETATM   23  C   UNL     1       7.596  29.655  57.975  1.00  0.00     0.048 A 
HETATM   24  C   UNL     1       8.126  31.819  59.383  1.00  0.00     0.065 A 
HETATM   25  N   UNL     1       9.251  32.516  59.602  1.00  0.00    -0.177 NA
HETATM   26  C   UNL     1       6.845  32.254  59.994  1.00  0.00     0.073 C 
HETATM   27  H   UNL     1      11.140  32.175  58.895  1.00  0.00     0.191 HD
ENDBRANCH   2  17
TORSDOF 5
ENDMDL
MODEL 2
REMARK VINA RESULT:      -9.2      1.085      2.344
REMARK  5 active torsions:
REMARK  status: ('A' for Active; 'I' for Inactive)
REMARK    1  A    between atoms: C_2  and  O_3 
REMARK    2  A    between atoms: O_3  and  C_4 
REMARK    3  A    between atoms: C_5  and  C_6 
REMARK    4  A    between atoms: C_6  and  C_9 
REMARK       I    between atoms: C_9  and  N_10 
REMARK    5  A    between atoms: N_10  and  C_11 
ROOT
HETATM    1  C   UNL     1       7.524  26.191  57.072  1.00  0.00     0.300 C 
HETATM    2  N   UNL     1       7.483  27.521  56.645  1.00  0.00    -0.320 N 
HETATM    3  O   UNL     1       8.314  25.757  57.908  1.00  0.00    -0.266 OA
HETATM    4  H   UNL     1       6.801  27.722  55.917  1.00  0.00     0.169 HD
ENDROOT
BRANCH   1   5
HETATM    5  C   UNL     1       6.434  25.323  56.365  1.00  0.00     0.352 C 
HETATM    6  F   UNL     1       5.488  26.175  55.824  1.00  0.00    -0.190 F 
HETATM    7  F   UNL     1       5.721  24.613  57.294  1.00  0.00    -0.190 F 
BRANCH   5   8
HETATM    8  C   UNL     1       7.045  24.458  55.280  1.00  0.00     0.056 A 
HETATM    9  C   UNL     1       7.335  24.960  54.005  1.00  0.00     0.081 A 
HETATM   10  C   UNL     1       7.939  24.147  53.039  1.00  0.00     0.037 A 
HETATM   11  C   UNL     1       8.214  22.810  53.321  1.00  0.00     0.003 A 
HETATM   12  C   UNL     1       7.899  22.285  54.570  1.00  0.00     0.001 A 
HETATM   13  C   UNL     1       7.321  23.103  55.543  1.00  0.00     0.017 A 
BRANCH   9  14
HETATM   14  O   UNL     1       7.112  26.280  53.729  1.00  0.00    -0.351 OA
BRANCH  14  15
HETATM   15  C   UNL     1       6.441  26.476  52.476  1.00  0.00     0.171 C 
HETATM   16  C   UNL     1       4.971  26.134  52.627  1.00  0.00     0.034 C 
ENDBRANCH  14  15
ENDBRANCH   9  14
ENDBRANCH   5   8
ENDBRANCH   1   5
BRANCH   2  17
HETATM   17  C   UNL     1       8.256  28.602  57.116  1.00  0.00     0.053 A 
HETATM   18  C   UNL     1       9.606  28.813  56.818  1.00  0.00     0.148 A 
HETATM   19  N   UNL     1      10.380  29.832  57.284  1.00  0.00    -0.239 NA
HETATM   20  C   UNL     1       9.703  30.669  58.089  1.00  0.00     0.156 A 
HETATM   21  C   UNL     1       8.373  30.592  58.462  1.00  0.00     0.039 A 
HETATM   22  N   UNL     1      10.203  31.774  58.711  1.00  0.00    -0.260 N 
HETATM   23  C   UNL     1       7.617  29.517  57.963  1.00  0.00     0.048 A 
HETATM   24  C   UNL     1       8.171  31.721  59.299  1.00  0.00     0.065 A 
HETATM   25  N   UNL     1       9.292  32.443  59.450  1.00  0.00    -0.177 NA
HETATM   26  C   UNL     1       6.913  32.146  59.961  1.00  0.00     0.073 C 
HETATM   27  H   UNL     1      11.152  32.120  58.662  1.00  0.00     0.191 HD
ENDBRANCH   2  17
TORSDOF 5
ENDMDL
MODEL 3
REMARK VINA RESULT:      -8.9      4.786      8.051
REMARK  5 active torsions:
REMARK  status: ('A' for Active; 'I' for Inactive)
REMARK    1  A    between atoms: C_2  and  O_3 
REMARK    2  A    between atoms: O_3  and  C_4 
REMARK    3  A    between atoms: C_5  and  C_6 
REMARK    4  A    between atoms: C_6  and  C_9 
REMARK       I    between atoms: C_9  and  N_10 
REMARK    5  A    between atoms: N_10  and  C_11 
ROOT
HETATM    1  C   UNL     1       6.291  25.320  52.487  1.00  0.00     0.300 C 
HETATM    2  N   UNL     1       6.328  26.331  51.524  1.00  0.00    -0.320 N 
HETATM    3  O   UNL     1       5.259  24.801  52.905  1.00  0.00    -0.266 OA
HETATM    4  H   UNL     1       7.256  26.691  51.308  1.00  0.00     0.169 HD
ENDROOT
BRANCH   1   5
HETATM    5  C   UNL     1       7.725  24.921  52.962  1.00  0.00     0.352 C 
HETATM    6  F   UNL     1       8.128  25.828  53.926  1.00  0.00    -0.190 F 
HETATM    7  F   UNL     1       8.629  25.117  51.952  1.00  0.00    -0.190 F 
BRANCH   5   8
HETATM    8  C   UNL     1       7.742  23.513  53.526  1.00  0.00     0.056 A 
HETATM    9  C   UNL     1       7.471  23.249  54.874  1.00  0.00     0.081 A 
HETATM   10  C   UNL     1       7.451  21.934  55.352  1.00  0.00     0.037 A 
HETATM   11  C   UNL     1       7.749  20.873  54.500  1.00  0.00     0.003 A 
HETATM   12  C   UNL     1       8.057  21.121  53.166  1.00  0.00     0.001 A 
HETATM   13  C   UNL     1       8.051  22.430  52.681  1.00  0.00     0.017 A 
BRANCH   9  14
HETATM   14  O   UNL     1       7.132  24.275  55.711  1.00  0.00    -0.351 OA
BRANCH  14  15
HETATM   15  C   UNL     1       7.903  24.277  56.921  1.00  0.00     0.171 C 
HETATM   16  C   UNL     1       8.315  25.697  57.259  1.00  0.00     0.034 C 
ENDBRANCH  14  15
ENDBRANCH   9  14
ENDBRANCH   5   8
ENDBRANCH   1   5
BRANCH   2  17
HETATM   17  C   UNL     1       5.244  26.886  50.814  1.00  0.00     0.053 A 
HETATM   18  C   UNL     1       4.643  28.117  51.100  1.00  0.00     0.148 A 
HETATM   19  N   UNL     1       3.578  28.660  50.448  1.00  0.00    -0.239 NA
HETATM   20  C   UNL     1       3.131  27.880  49.449  1.00  0.00     0.156 A 
HETATM   21  C   UNL     1       3.628  26.652  49.048  1.00  0.00     0.039 A 
HETATM   22  N   UNL     1       2.081  28.147  48.621  1.00  0.00    -0.260 N 
HETATM   23  C   UNL     1       4.723  26.128  49.756  1.00  0.00     0.048 A 
HETATM   24  C   UNL     1       2.809  26.277  47.950  1.00  0.00     0.065 A 
HETATM   25  N   UNL     1       1.863  27.193  47.691  1.00  0.00    -0.177 NA
HETATM   26  C   UNL     1       2.913  25.053  47.118  1.00  0.00     0.073 C 
HETATM   27  H   UNL     1       1.485  28.963  48.644  1.00  0.00     0.191 HD
ENDBRANCH   2  17
TORSDOF 5
ENDMDL
MODEL 4
REMARK VINA RESULT:      -8.8      2.303      3.570
REMARK  5 active torsions:
REMARK  status: ('A' for Active; 'I' for Inactive)
REMARK    1  A    between atoms: C_2  and  O_3 
REMARK    2  A    between atoms: O_3  and  C_4 
REMARK    3  A    between atoms: C_5  and  C_6 
REMARK    4  A    between atoms: C_6  and  C_9 
REMARK       I    between atoms: C_9  and  N_10 
REMARK    5  A    between atoms: N_10  and  C_11 
ROOT
HETATM    1  C   UNL     1       6.770  25.017  54.380  1.00  0.00     0.300 C 
HETATM    2  N   UNL     1       7.365  26.254  54.640  1.00  0.00    -0.320 N 
HETATM    3  O   UNL     1       5.809  24.568  55.002  1.00  0.00    -0.266 OA
HETATM    4  H   UNL     1       8.178  26.472  54.068  1.00  0.00     0.169 HD
ENDROOT
BRANCH   1   5
HETATM    5  C   UNL     1       7.468  24.276  53.195  1.00  0.00     0.352 C 
HETATM    6  F   UNL     1       8.531  25.052  52.769  1.00  0.00    -0.190 F 
HETATM    7  F   UNL     1       6.642  24.250  52.103  1.00  0.00    -0.190 F 
BRANCH   5   8
HETATM    8  C   UNL     1       7.954  22.904  53.620  1.00  0.00     0.056 A 
HETATM    9  C   UNL     1       8.703  22.709  54.788  1.00  0.00     0.081 A 
HETATM   10  C   UNL     1       9.099  21.424  55.174  1.00  0.00     0.037 A 
HETATM   11  C   UNL     1       8.794  20.326  54.373  1.00  0.00     0.003 A 
HETATM   12  C   UNL     1       8.083  20.506  53.191  1.00  0.00     0.001 A 
HETATM   13  C   UNL     1       7.664  21.784  52.818  1.00  0.00     0.017 A 
BRANCH   9  14
HETATM   14  O   UNL     1       8.971  23.770  55.606  1.00  0.00    -0.351 OA
BRANCH  14  15
HETATM   15  C   UNL     1       8.616  23.517  56.973  1.00  0.00     0.171 C 
HETATM   16  C   UNL     1       8.725  24.802  57.773  1.00  0.00     0.034 C 
ENDBRANCH  14  15
ENDBRANCH   9  14
ENDBRANCH   5   8
ENDBRANCH   1   5
BRANCH   2  17
HETATM   17  C   UNL     1       6.959  27.227  55.575  1.00  0.00     0.053 A 
HETATM   18  C   UNL     1       5.632  27.499  55.925  1.00  0.00     0.148 A 
HETATM   19  N   UNL     1       5.213  28.452  56.803  1.00  0.00    -0.239 NA
HETATM   20  C   UNL     1       6.233  29.143  57.341  1.00  0.00     0.156 A 
HETATM   21  C   UNL     1       7.586  28.979  57.099  1.00  0.00     0.039 A 
HETATM   22  N   UNL     1       6.135  30.159  58.245  1.00  0.00    -0.260 N 
HETATM   23  C   UNL     1       7.968  27.989  56.178  1.00  0.00     0.048 A 
HETATM   24  C   UNL     1       8.216  29.943  57.930  1.00  0.00     0.065 A 
HETATM   25  N   UNL     1       7.326  30.663  58.630  1.00  0.00    -0.177 NA
HETATM   26  C   UNL     1       9.670  30.192  58.089  1.00  0.00     0.073 C 
HETATM   27  H   UNL     1       5.284  30.543  58.634  1.00  0.00     0.191 HD
ENDBRANCH   2  17
TORSDOF 5
ENDMDL
MODEL 5
REMARK VINA RESULT:      -8.8      2.261      3.529
REMARK  5 active torsions:
REMARK  status: ('A' for Active; 'I' for Inactive)
REMARK    1  A    between atoms: C_2  and  O_3 
REMARK    2  A    between atoms: O_3  and  C_4 
REMARK    3  A    between atoms: C_5  and  C_6 
REMARK    4  A    between atoms: C_6  and  C_9 
REMARK       I    between atoms: C_9  and  N_10 
REMARK    5  A    between atoms: N_10  and  C_11 
ROOT
HETATM    1  C   UNL     1       7.373  24.718  56.597  1.00  0.00     0.300 C 
HETATM    2  N   UNL     1       7.968  25.982  56.636  1.00  0.00    -0.320 N 
HETATM    3  O   UNL     1       6.159  24.525  56.611  1.00  0.00    -0.266 OA
HETATM    4  H   UNL     1       8.986  25.981  56.659  1.00  0.00     0.169 HD
ENDROOT
BRANCH   1   5
HETATM    5  C   UNL     1       8.439  23.579  56.523  1.00  0.00     0.352 C 
HETATM    6  F   UNL     1       8.355  22.833  57.685  1.00  0.00    -0.190 F 
HETATM    7  F   UNL     1       9.701  24.108  56.582  1.00  0.00    -0.190 F 
BRANCH   5   8
HETATM    8  C   UNL     1       8.209  22.694  55.313  1.00  0.00     0.056 A 
HETATM    9  C   UNL     1       8.101  23.218  54.018  1.00  0.00     0.081 A 
HETATM   10  C   UNL     1       7.933  22.370  52.918  1.00  0.00     0.037 A 
HETATM   11  C   UNL     1       7.822  20.994  53.103  1.00  0.00     0.003 A 
HETATM   12  C   UNL     1       7.890  20.459  54.386  1.00  0.00     0.001 A 
HETATM   13  C   UNL     1       8.085  21.302  55.482  1.00  0.00     0.017 A 
BRANCH   9  14
HETATM   14  O   UNL     1       8.253  24.561  53.816  1.00  0.00    -0.351 OA
BRANCH  14  15
HETATM   15  C   UNL     1       8.010  24.945  52.455  1.00  0.00     0.171 C 
HETATM   16  C   UNL     1       6.755  25.795  52.383  1.00  0.00     0.034 C 
ENDBRANCH  14  15
ENDBRANCH   9  14
ENDBRANCH   5   8
ENDBRANCH   1   5
BRANCH   2  17
HETATM   17  C   UNL     1       7.327  27.237  56.626  1.00  0.00     0.053 A 
HETATM   18  C   UNL     1       6.381  27.647  55.681  1.00  0.00     0.148 A 
HETATM   19  N   UNL     1       5.770  28.864  55.634  1.00  0.00    -0.239 NA
HETATM   20  C   UNL     1       6.166  29.680  56.626  1.00  0.00     0.156 A 
HETATM   21  C   UNL     1       7.079  29.409  57.630  1.00  0.00     0.039 A 
HETATM   22  N   UNL     1       5.740  30.957  56.842  1.00  0.00    -0.260 N 
HETATM   23  C   UNL     1       7.690  28.143  57.632  1.00  0.00     0.048 A 
HETATM   24  C   UNL     1       7.112  30.594  58.411  1.00  0.00     0.065 A 
HETATM   25  N   UNL     1       6.293  31.540  57.927  1.00  0.00    -0.177 NA
HETATM   26  C   UNL     1       7.909  30.851  59.636  1.00  0.00     0.073 C 
HETATM   27  H   UNL     1       5.074  31.475  56.285  1.00  0.00     0.191 HD
ENDBRANCH   2  17
TORSDOF 5
ENDMDL
MODEL 6
REMARK VINA RESULT:      -8.7      4.902      7.756
REMARK  5 active torsions:
REMARK  status: ('A' for Active; 'I' for Inactive)
REMARK    1  A    between atoms: C_2  and  O_3 
REMARK    2  A    between atoms: O_3  and  C_4 
REMARK    3  A    between atoms: C_5  and  C_6 
REMARK    4  A    between atoms: C_6  and  C_9 
REMARK       I    between atoms: C_9  and  N_10 
REMARK    5  A    between atoms: N_10  and  C_11 
ROOT
HETATM    1  C   UNL     1       6.092  24.870  52.602  1.00  0.00     0.300 C 
HETATM    2  N   UNL     1       6.409  25.800  51.609  1.00  0.00    -0.320 N 
HETATM    3  O   UNL     1       4.962  24.697  53.053  1.00  0.00    -0.266 OA
HETATM    4  H   UNL     1       7.395  25.856  51.366  1.00  0.00     0.169 HD
ENDROOT
BRANCH   1   5
HETATM    5  C   UNL     1       7.350  24.067  53.064  1.00  0.00     0.352 C 
HETATM    6  F   UNL     1       8.398  24.381  52.217  1.00  0.00    -0.190 F 
HETATM    7  F   UNL     1       7.162  22.728  52.845  1.00  0.00    -0.190 F 
BRANCH   5   8
HETATM    8  C   UNL     1       7.715  24.400  54.498  1.00  0.00     0.056 A 
HETATM    9  C   UNL     1       8.565  23.587  55.258  1.00  0.00     0.081 A 
HETATM   10  C   UNL     1       8.917  23.947  56.563  1.00  0.00     0.037 A 
HETATM   11  C   UNL     1       8.385  25.097  57.141  1.00  0.00     0.003 A 
HETATM   12  C   UNL     1       7.509  25.898  56.413  1.00  0.00     0.001 A 
HETATM   13  C   UNL     1       7.179  25.555  55.101  1.00  0.00     0.017 A 
BRANCH   9  14
HETATM   14  O   UNL     1       9.129  22.480  54.689  1.00  0.00    -0.351 OA
BRANCH  14  15
HETATM   15  C   UNL     1       9.100  21.337  55.558  1.00  0.00     0.171 C 
HETATM   16  C   UNL     1       7.737  20.674  55.480  1.00  0.00     0.034 C 
ENDBRANCH  14  15
ENDBRANCH   9  14
ENDBRANCH   5   8
ENDBRANCH   1   5
BRANCH   2  17
HETATM   17  C   UNL     1       5.525  26.640  50.902  1.00  0.00     0.053 A 
HETATM   18  C   UNL     1       5.278  27.983  51.207  1.00  0.00     0.148 A 
HETATM   19  N   UNL     1       4.409  28.806  50.558  1.00  0.00    -0.239 NA
HETATM   20  C   UNL     1       3.779  28.194  49.540  1.00  0.00     0.156 A 
HETATM   21  C   UNL     1       3.929  26.884  49.119  1.00  0.00     0.039 A 
HETATM   22  N   UNL     1       2.852  28.750  48.710  1.00  0.00    -0.260 N 
HETATM   23  C   UNL     1       4.830  26.071  49.826  1.00  0.00     0.048 A 
HETATM   24  C   UNL     1       3.052  26.764  48.009  1.00  0.00     0.065 A 
HETATM   25  N   UNL     1       2.394  27.907  47.761  1.00  0.00    -0.177 NA
HETATM   26  C   UNL     1       2.829  25.572  47.154  1.00  0.00     0.073 C 
HETATM   27  H   UNL     1       2.500  29.698  48.744  1.00  0.00     0.191 HD
ENDBRANCH   2  17
TORSDOF 5
ENDMDL
MODEL 7
REMARK VINA RESULT:      -8.7      4.753      7.793
REMARK  5 active torsions:
REMARK  status: ('A' for Active; 'I' for Inactive)
REMARK    1  A    between atoms: C_2  and  O_3 
REMARK    2  A    between atoms: O_3  and  C_4 
REMARK    3  A    between atoms: C_5  and  C_6 
REMARK    4  A    between atoms: C_6  and  C_9 
REMARK       I    between atoms: C_9  and  N_10 
REMARK    5  A    between atoms: N_10  and  C_11 
ROOT
HETATM    1  C   UNL     1       6.990  25.250  52.581  1.00  0.00     0.300 C 
HETATM    2  N   UNL     1       5.790  25.921  52.334  1.00  0.00    -0.320 N 
HETATM    3  O   UNL     1       7.869  25.072  51.740  1.00  0.00    -0.266 OA
HETATM    4  H   UNL     1       5.142  25.955  53.118  1.00  0.00     0.169 HD
ENDROOT
BRANCH   1   5
HETATM    5  C   UNL     1       7.086  24.763  54.062  1.00  0.00     0.352 C 
HETATM    6  F   UNL     1       5.865  24.994  54.672  1.00  0.00    -0.190 F 
HETATM    7  F   UNL     1       7.944  25.563  54.769  1.00  0.00    -0.190 F 
BRANCH   5   8
HETATM    8  C   UNL     1       7.437  23.289  54.130  1.00  0.00     0.056 A 
HETATM    9  C   UNL     1       7.586  22.615  55.349  1.00  0.00     0.081 A 
HETATM   10  C   UNL     1       7.867  21.245  55.376  1.00  0.00     0.037 A 
HETATM   11  C   UNL     1       8.050  20.543  54.187  1.00  0.00     0.003 A 
HETATM   12  C   UNL     1       7.943  21.204  52.968  1.00  0.00     0.001 A 
HETATM   13  C   UNL     1       7.635  22.566  52.938  1.00  0.00     0.017 A 
BRANCH   9  14
HETATM   14  O   UNL     1       7.364  23.281  56.522  1.00  0.00    -0.351 OA
BRANCH  14  15
HETATM   15  C   UNL     1       8.575  23.531  57.252  1.00  0.00     0.171 C 
HETATM   16  C   UNL     1       8.581  24.964  57.751  1.00  0.00     0.034 C 
ENDBRANCH  14  15
ENDBRANCH   9  14
ENDBRANCH   5   8
ENDBRANCH   1   5
BRANCH   2  17
HETATM   17  C   UNL     1       5.391  26.564  51.145  1.00  0.00     0.053 A 
HETATM   18  C   UNL     1       5.651  27.902  50.829  1.00  0.00     0.148 A 
HETATM   19  N   UNL     1       5.252  28.552  49.702  1.00  0.00    -0.239 NA
HETATM   20  C   UNL     1       4.556  27.760  48.867  1.00  0.00     0.156 A 
HETATM   21  C   UNL     1       4.233  26.426  49.041  1.00  0.00     0.039 A 
HETATM   22  N   UNL     1       4.021  28.122  47.666  1.00  0.00    -0.260 N 
HETATM   23  C   UNL     1       4.659  25.800  50.224  1.00  0.00     0.048 A 
HETATM   24  C   UNL     1       3.514  26.078  47.867  1.00  0.00     0.065 A 
HETATM   25  N   UNL     1       3.385  27.117  47.028  1.00  0.00    -0.177 NA
HETATM   26  C   UNL     1       2.947  24.754  47.510  1.00  0.00     0.073 C 
HETATM   27  H   UNL     1       4.063  29.036  47.235  1.00  0.00     0.191 HD
ENDBRANCH   2  17
TORSDOF 5
ENDMDL
MODEL 8
REMARK VINA RESULT:      -8.6      3.298      7.768
REMARK  5 active torsions:
REMARK  status: ('A' for Active; 'I' for Inactive)
REMARK    1  A    between atoms: C_2  and  O_3 
REMARK    2  A    between atoms: O_3  and  C_4 
REMARK    3  A    between atoms: C_5  and  C_6 
REMARK    4  A    between atoms: C_6  and  C_9 
REMARK       I    between atoms: C_9  and  N_10 
REMARK    5  A    between atoms: N_10  and  C_11 
ROOT
HETATM    1  C   UNL     1       6.405  26.396  55.143  1.00  0.00     0.300 C 
HETATM    2  N   UNL     1       7.587  25.674  54.954  1.00  0.00    -0.320 N 
HETATM    3  O   UNL     1       5.389  25.936  55.658  1.00  0.00    -0.266 OA
HETATM    4  H   UNL     1       8.331  26.178  54.476  1.00  0.00     0.169 HD
ENDROOT
BRANCH   1   5
HETATM    5  C   UNL     1       6.537  27.865  54.628  1.00  0.00     0.352 C 
HETATM    6  F   UNL     1       5.607  28.054  53.620  1.00  0.00    -0.190 F 
HETATM    7  F   UNL     1       7.734  28.035  53.984  1.00  0.00    -0.190 F 
BRANCH   5   8
HETATM    8  C   UNL     1       6.306  28.860  55.749  1.00  0.00     0.056 A 
HETATM    9  C   UNL     1       7.213  29.014  56.805  1.00  0.00     0.081 A 
HETATM   10  C   UNL     1       6.992  29.971  57.801  1.00  0.00     0.037 A 
HETATM   11  C   UNL     1       5.838  30.751  57.779  1.00  0.00     0.003 A 
HETATM   12  C   UNL     1       4.908  30.587  56.758  1.00  0.00     0.001 A 
HETATM   13  C   UNL     1       5.140  29.650  55.749  1.00  0.00     0.017 A 
BRANCH   9  14
HETATM   14  O   UNL     1       8.370  28.287  56.816  1.00  0.00    -0.351 OA
BRANCH  14  15
HETATM   15  C   UNL     1       9.517  29.080  57.152  1.00  0.00     0.171 C 
HETATM   16  C   UNL     1      10.154  29.618  55.884  1.00  0.00     0.034 C 
ENDBRANCH  14  15
ENDBRANCH   9  14
ENDBRANCH   5   8
ENDBRANCH   1   5
BRANCH   2  17
HETATM   17  C   UNL     1       7.865  24.355  55.363  1.00  0.00     0.053 A 
HETATM   18  C   UNL     1       8.092  23.955  56.684  1.00  0.00     0.148 A 
HETATM   19  N   UNL     1       8.391  22.694  57.100  1.00  0.00    -0.239 NA
HETATM   20  C   UNL     1       8.445  21.814  56.085  1.00  0.00     0.156 A 
HETATM   21  C   UNL     1       8.235  22.061  54.740  1.00  0.00     0.039 A 
HETATM   22  N   UNL     1       8.725  20.483  56.182  1.00  0.00    -0.260 N 
HETATM   23  C   UNL     1       7.938  23.380  54.358  1.00  0.00     0.048 A 
HETATM   24  C   UNL     1       8.395  20.796  54.116  1.00  0.00     0.065 A 
HETATM   25  N   UNL     1       8.696  19.832  55.000  1.00  0.00    -0.177 NA
HETATM   26  C   UNL     1       8.255  20.471  52.674  1.00  0.00     0.073 C 
HETATM   27  H   UNL     1       8.939  19.969  57.026  1.00  0.00     0.191 HD
ENDBRANCH   2  17
TORSDOF 5
ENDMDL
MODEL 9
REMARK VINA RESULT:      -8.5      1.670      2.601
REMARK  5 active torsions:
REMARK  status: ('A' for Active; 'I' for Inactive)
REMARK    1  A    between atoms: C_2  and  O_3 
REMARK    2  A    between atoms: O_3  and  C_4 
REMARK    3  A    between atoms: C_5  and  C_6 
REMARK    4  A    between atoms: C_6  and  C_9 
REMARK       I    between atoms: C_9  and  N_10 
REMARK    5  A    between atoms: N_10  and  C_11 
ROOT
HETATM    1  C   UNL     1       6.621  26.618  55.044  1.00  0.00     0.300 C 
HETATM    2  N   UNL     1       6.344  27.115  56.320  1.00  0.00    -0.320 N 
HETATM    3  O   UNL     1       7.376  27.159  54.239  1.00  0.00    -0.266 OA
HETATM    4  H   UNL     1       5.668  26.578  56.858  1.00  0.00     0.169 HD
ENDROOT
BRANCH   1   5
HETATM    5  C   UNL     1       5.863  25.280  54.768  1.00  0.00     0.352 C 
HETATM    6  F   UNL     1       4.946  25.505  53.757  1.00  0.00    -0.190 F 
HETATM    7  F   UNL     1       5.073  24.955  55.839  1.00  0.00    -0.190 F 
BRANCH   5   8
HETATM    8  C   UNL     1       6.826  24.179  54.369  1.00  0.00     0.056 A 
HETATM    9  C   UNL     1       7.507  23.406  55.318  1.00  0.00     0.081 A 
HETATM   10  C   UNL     1       8.355  22.369  54.917  1.00  0.00     0.037 A 
HETATM   11  C   UNL     1       8.571  22.123  53.562  1.00  0.00     0.003 A 
HETATM   12  C   UNL     1       7.931  22.905  52.605  1.00  0.00     0.001 A 
HETATM   13  C   UNL     1       7.063  23.923  53.004  1.00  0.00     0.017 A 
BRANCH   9  14
HETATM   14  O   UNL     1       7.272  23.606  56.650  1.00  0.00    -0.351 OA
BRANCH  14  15
HETATM   15  C   UNL     1       8.475  23.589  57.431  1.00  0.00     0.171 C 
HETATM   16  C   UNL     1       9.083  24.979  57.460  1.00  0.00     0.034 C 
ENDBRANCH  14  15
ENDBRANCH   9  14
ENDBRANCH   5   8
ENDBRANCH   1   5
BRANCH   2  17
HETATM   17  C   UNL     1       6.903  28.249  56.943  1.00  0.00     0.053 A 
HETATM   18  C   UNL     1       6.177  29.226  57.633  1.00  0.00     0.148 A 
HETATM   19  N   UNL     1       6.690  30.344  58.218  1.00  0.00    -0.239 NA
HETATM   20  C   UNL     1       8.024  30.434  58.077  1.00  0.00     0.156 A 
HETATM   21  C   UNL     1       8.868  29.546  57.434  1.00  0.00     0.039 A 
HETATM   22  N   UNL     1       8.821  31.436  58.547  1.00  0.00    -0.260 N 
HETATM   23  C   UNL     1       8.291  28.412  56.839  1.00  0.00     0.048 A 
HETATM   24  C   UNL     1      10.164  30.106  57.596  1.00  0.00     0.065 A 
HETATM   25  N   UNL     1      10.132  31.262  58.276  1.00  0.00    -0.177 NA
HETATM   26  C   UNL     1      11.456  29.553  57.121  1.00  0.00     0.073 C 
HETATM   27  H   UNL     1       8.524  32.256  59.059  1.00  0.00     0.191 HD
ENDBRANCH   2  17
TORSDOF 5
ENDMDL
MODEL 10
REMARK VINA RESULT:      -8.4      1.891      2.354
REMARK  5 active torsions:
REMARK  status: ('A' for Active; 'I' for Inactive)
REMARK    1  A    between atoms: C_2  and  O_3 
REMARK    2  A    between atoms: O_3  and  C_4 
REMARK    3  A    between atoms: C_5  and  C_6 
REMARK    4  A    between atoms: C_6  and  C_9 
REMARK       I    between atoms: C_9  and  N_10 
REMARK    5  A    between atoms: N_10  and  C_11 
ROOT
HETATM    1  C   UNL     1       6.710  26.658  54.937  1.00  0.00     0.300 C 
HETATM    2  N   UNL     1       6.212  27.109  56.162  1.00  0.00    -0.320 N 
HETATM    3  O   UNL     1       7.643  27.184  54.334  1.00  0.00    -0.266 OA
HETATM    4  H   UNL     1       5.410  26.594  56.520  1.00  0.00     0.169 HD
ENDROOT
BRANCH   1   5
HETATM    5  C   UNL     1       5.944  25.394  54.431  1.00  0.00     0.352 C 
HETATM    6  F   UNL     1       5.283  25.730  53.262  1.00  0.00    -0.190 F 
HETATM    7  F   UNL     1       4.922  25.086  55.289  1.00  0.00    -0.190 F 
BRANCH   5   8
HETATM    8  C   UNL     1       6.896  24.241  54.183  1.00  0.00     0.056 A 
HETATM    9  C   UNL     1       7.516  23.550  55.232  1.00  0.00     0.081 A 
HETATM   10  C   UNL     1       8.356  22.462  54.971  1.00  0.00     0.037 A 
HETATM   11  C   UNL     1       8.624  22.082  53.658  1.00  0.00     0.003 A 
HETATM   12  C   UNL     1       8.046  22.780  52.602  1.00  0.00     0.001 A 
HETATM   13  C   UNL     1       7.186  23.849  52.862  1.00  0.00     0.017 A 
BRANCH   9  14
HETATM   14  O   UNL     1       7.228  23.882  56.526  1.00  0.00    -0.351 OA
BRANCH  14  15
HETATM   15  C   UNL     1       8.305  23.584  57.426  1.00  0.00     0.171 C 
HETATM   16  C   UNL     1       9.197  24.803  57.573  1.00  0.00     0.034 C 
ENDBRANCH  14  15
ENDBRANCH   9  14
ENDBRANCH   5   8
ENDBRANCH   1   5
BRANCH   2  17
HETATM   17  C   UNL     1       6.701  28.166  56.955  1.00  0.00     0.053 A 
HETATM   18  C   UNL     1       7.851  28.108  57.750  1.00  0.00     0.148 A 
HETATM   19  N   UNL     1       8.327  29.105  58.546  1.00  0.00    -0.239 NA
HETATM   20  C   UNL     1       7.567  30.213  58.497  1.00  0.00     0.156 A 
HETATM   21  C   UNL     1       6.418  30.417  57.755  1.00  0.00     0.039 A 
HETATM   22  N   UNL     1       7.781  31.371  59.183  1.00  0.00    -0.260 N 
HETATM   23  C   UNL     1       5.960  29.356  56.955  1.00  0.00     0.048 A 
HETATM   24  C   UNL     1       6.031  31.750  58.056  1.00  0.00     0.065 A 
HETATM   25  N   UNL     1       6.866  32.331  58.931  1.00  0.00    -0.177 NA
HETATM   26  C   UNL     1       4.872  32.502  57.514  1.00  0.00     0.073 C 
HETATM   27  H   UNL     1       8.534  31.562  59.830  1.00  0.00     0.191 HD
ENDBRANCH   2  17
TORSDOF 5
ENDMDL
