MODEL 1
REMARK VINA RESULT:     -10.1      0.000      0.000
REMARK  8 active torsions:
REMARK  status: ('A' for Active; 'I' for Inactive)
REMARK    1  A    between atoms: O_2  and  C_3 
REMARK    2  A    between atoms: C_3  and  C_4 
REMARK    3  A    between atoms: C_7  and  C_8 
REMARK    4  A    between atoms: C_8  and  O_9 
REMARK    5  A    between atoms: O_9  and  C_10 
REMARK    6  A    between atoms: C_11  and  C_12 
REMARK    7  A    between atoms: C_13  and  C_14 
REMARK    8  A    between atoms: C_13  and  C_22 
REMARK       I    between atoms: C_14  and  N_15 
ROOT
HETATM    1  C   UNL     1       6.872  29.283  55.905  1.00  0.00     0.035 C 
HETATM    2  C   UNL     1       6.340  28.142  55.420  1.00  0.00     0.079 C 
ENDROOT
BRANCH   1   3
HETATM    3  C   UNL     1       8.206  29.508  56.489  1.00  0.00    -0.002 A 
HETATM    4  C   UNL     1       8.344  29.961  57.807  1.00  0.00     0.079 A 
HETATM    5  C   UNL     1       9.607  30.272  58.327  1.00  0.00     0.037 A 
HETATM    6  C   UNL     1      10.745  30.091  57.543  1.00  0.00     0.003 A 
HETATM    7  C   UNL     1      10.622  29.626  56.236  1.00  0.00     0.001 A 
HETATM    8  C   UNL     1       9.359  29.349  55.707  1.00  0.00     0.014 A 
BRANCH   4   9
HETATM    9  O   UNL     1       7.213  30.191  58.547  1.00  0.00    -0.346 OA
BRANCH   9  10
HETATM   10  C   UNL     1       6.919  31.587  58.694  1.00  0.00     0.214 C 
BRANCH  10  11
HETATM   11  C   UNL     1       6.809  31.963  60.157  1.00  0.00    -0.034 A 
HETATM   12  C   UNL     1       5.634  32.571  60.624  1.00  0.00     0.010 A 
HETATM   13  C   UNL     1       5.497  32.916  61.972  1.00  0.00     0.018 A 
HETATM   14  C   UNL     1       6.531  32.656  62.878  1.00  0.00     0.039 A 
HETATM   15  C   UNL     1       7.700  32.036  62.423  1.00  0.00     0.018 A 
HETATM   16  C   UNL     1       7.834  31.689  61.075  1.00  0.00     0.010 A 
BRANCH  14  17
HETATM   17  C   UNL     1       6.342  33.053  64.300  1.00  0.00     0.292 C 
HETATM   18  O   UNL     1       7.247  33.450  65.016  1.00  0.00    -0.259 OA
BRANCH  17  19
HETATM   19  O   UNL     1       5.046  32.900  64.672  1.00  0.00    -0.323 OA
HETATM   20  C   UNL     1       4.641  33.759  65.738  1.00  0.00     0.213 C 
ENDBRANCH  17  19
ENDBRANCH  14  17
ENDBRANCH  10  11
ENDBRANCH   9  10
ENDBRANCH   4   9
ENDBRANCH   1   3
BRANCH   2  21
HETATM   21  C   UNL     1       4.935  28.197  54.878  1.00  0.00     0.257 C 
HETATM   22  N   UNL     1       4.711  28.179  53.513  1.00  0.00    -0.344 N 
HETATM   23  C   UNL     1       3.337  28.296  53.015  1.00  0.00     0.152 C 
HETATM   24  C   UNL     1       5.697  28.191  52.425  1.00  0.00     0.152 C 
HETATM   25  C   UNL     1       3.205  29.559  52.159  1.00  0.00     0.187 C 
HETATM   26  O   UNL     1       4.168  29.562  51.089  1.00  0.00    -0.388 OA
HETATM   27  C   UNL     1       5.512  29.470  51.595  1.00  0.00     0.187 C 
HETATM   28  O   UNL     1       4.000  28.189  55.686  1.00  0.00    -0.267 OA
ENDBRANCH   2  21
BRANCH   2  29
HETATM   29  C   UNL     1       6.967  26.867  55.596  1.00  0.00     0.144 A 
HETATM   30  N   UNL     1       7.316  26.194  56.679  1.00  0.00    -0.228 NA
HETATM   31  C   UNL     1       7.763  24.969  56.250  1.00  0.00     0.086 A 
HETATM   32  C   UNL     1       7.729  24.889  54.866  1.00  0.00     0.062 A 
HETATM   33  C   UNL     1       8.203  23.862  56.988  1.00  0.00     0.034 A 
HETATM   34  N   UNL     1       7.238  26.105  54.475  1.00  0.00    -0.338 N 
HETATM   35  C   UNL     1       8.118  23.756  54.149  1.00  0.00     0.032 A 
HETATM   36  H   UNL     1       7.025  26.387  53.525  1.00  0.00     0.167 HD
HETATM   37  C   UNL     1       8.553  22.660  54.902  1.00  0.00     0.002 A 
HETATM   38  C   UNL     1       8.593  22.707  56.298  1.00  0.00     0.002 A 
ENDBRANCH   2  29
TORSDOF 8
ENDMDL
MODEL 2
REMARK VINA RESULT:      -9.9      3.992      9.848
REMARK  8 active torsions:
REMARK  status: ('A' for Active; 'I' for Inactive)
REMARK    1  A    between atoms: O_2  and  C_3 
REMARK    2  A    between atoms: C_3  and  C_4 
REMARK    3  A    between atoms: C_7  and  C_8 
REMARK    4  A    between atoms: C_8  and  O_9 
REMARK    5  A    between atoms: O_9  and  C_10 
REMARK    6  A    between atoms: C_11  and  C_12 
REMARK    7  A    between atoms: C_13  and  C_14 
REMARK    8  A    between atoms: C_13  and  C_22 
REMARK       I    between atoms: C_14  and  N_15 
ROOT
HETATM    1  C   UNL     1       5.532  26.827  55.496  1.00  0.00     0.035 C 
HETATM    2  C   UNL     1       6.760  26.683  56.035  1.00  0.00     0.079 C 
ENDROOT
BRANCH   1   3
HETATM    3  C   UNL     1       4.782  28.064  55.217  1.00  0.00    -0.002 A 
HETATM    4  C   UNL     1       4.714  28.583  53.917  1.00  0.00     0.079 A 
HETATM    5  C   UNL     1       4.089  29.811  53.671  1.00  0.00     0.037 A 
HETATM    6  C   UNL     1       3.491  30.510  54.718  1.00  0.00     0.003 A 
HETATM    7  C   UNL     1       3.539  29.998  56.012  1.00  0.00     0.001 A 
HETATM    8  C   UNL     1       4.193  28.789  56.263  1.00  0.00     0.014 A 
BRANCH   4   9
HETATM    9  O   UNL     1       5.357  27.916  52.906  1.00  0.00    -0.346 OA
BRANCH   9  10
HETATM   10  C   UNL     1       5.485  28.702  51.714  1.00  0.00     0.214 C 
BRANCH  10  11
HETATM   11  C   UNL     1       4.622  28.140  50.603  1.00  0.00    -0.034 A 
HETATM   12  C   UNL     1       4.942  26.893  50.047  1.00  0.00     0.010 A 
HETATM   13  C   UNL     1       4.156  26.342  49.031  1.00  0.00     0.018 A 
HETATM   14  C   UNL     1       3.032  27.028  48.555  1.00  0.00     0.039 A 
HETATM   15  C   UNL     1       2.697  28.265  49.116  1.00  0.00     0.018 A 
HETATM   16  C   UNL     1       3.484  28.813  50.134  1.00  0.00     0.010 A 
BRANCH  14  17
HETATM   17  C   UNL     1       2.233  26.405  47.464  1.00  0.00     0.292 C 
HETATM   18  O   UNL     1       2.720  25.724  46.577  1.00  0.00    -0.259 OA
BRANCH  17  19
HETATM   19  O   UNL     1       0.918  26.713  47.598  1.00  0.00    -0.323 OA
HETATM   20  C   UNL     1       0.381  27.460  46.506  1.00  0.00     0.213 C 
ENDBRANCH  17  19
ENDBRANCH  14  17
ENDBRANCH  10  11
ENDBRANCH   9  10
ENDBRANCH   4   9
ENDBRANCH   1   3
BRANCH   2  21
HETATM   21  C   UNL     1       7.289  25.283  56.212  1.00  0.00     0.257 C 
HETATM   22  N   UNL     1       7.841  24.602  55.143  1.00  0.00    -0.344 N 
HETATM   23  C   UNL     1       8.291  23.220  55.332  1.00  0.00     0.152 C 
HETATM   24  C   UNL     1       7.935  25.027  53.740  1.00  0.00     0.152 C 
HETATM   25  C   UNL     1       7.493  22.288  54.415  1.00  0.00     0.187 C 
HETATM   26  O   UNL     1       7.594  22.703  53.040  1.00  0.00    -0.388 OA
HETATM   27  C   UNL     1       7.128  24.054  52.867  1.00  0.00     0.187 C 
HETATM   28  O   UNL     1       7.275  24.797  57.349  1.00  0.00    -0.267 OA
ENDBRANCH   2  21
BRANCH   2  29
HETATM   29  C   UNL     1       7.472  27.775  56.627  1.00  0.00     0.144 A 
HETATM   30  N   UNL     1       7.313  28.419  57.771  1.00  0.00    -0.228 NA
HETATM   31  C   UNL     1       8.365  29.294  57.874  1.00  0.00     0.086 A 
HETATM   32  C   UNL     1       9.178  29.223  56.753  1.00  0.00     0.062 A 
HETATM   33  C   UNL     1       8.702  30.177  58.909  1.00  0.00     0.034 A 
HETATM   34  N   UNL     1       8.585  28.268  55.973  1.00  0.00    -0.338 N 
HETATM   35  C   UNL     1      10.329  29.994  56.585  1.00  0.00     0.032 A 
HETATM   36  H   UNL     1       8.937  27.912  55.092  1.00  0.00     0.167 HD
HETATM   37  C   UNL     1      10.653  30.869  57.629  1.00  0.00     0.002 A 
HETATM   38  C   UNL     1       9.857  30.959  58.774  1.00  0.00     0.002 A 
ENDBRANCH   2  29
TORSDOF 8
ENDMDL
MODEL 3
REMARK VINA RESULT:      -9.4      5.191     10.881
REMARK  8 active torsions:
REMARK  status: ('A' for Active; 'I' for Inactive)
REMARK    1  A    between atoms: O_2  and  C_3 
REMARK    2  A    between atoms: C_3  and  C_4 
REMARK    3  A    between atoms: C_7  and  C_8 
REMARK    4  A    between atoms: C_8  and  O_9 
REMARK    5  A    between atoms: O_9  and  C_10 
REMARK    6  A    between atoms: C_11  and  C_12 
REMARK    7  A    between atoms: C_13  and  C_14 
REMARK    8  A    between atoms: C_13  and  C_22 
REMARK       I    between atoms: C_14  and  N_15 
ROOT
HETATM    1  C   UNL     1       3.943  34.382  64.144  1.00  0.00     0.035 C 
HETATM    2  C   UNL     1       3.829  35.281  63.145  1.00  0.00     0.079 C 
ENDROOT
BRANCH   1   3
HETATM    3  C   UNL     1       4.833  34.409  65.318  1.00  0.00    -0.002 A 
HETATM    4  C   UNL     1       6.176  34.025  65.208  1.00  0.00     0.079 A 
HETATM    5  C   UNL     1       6.993  33.954  66.343  1.00  0.00     0.037 A 
HETATM    6  C   UNL     1       6.483  34.307  67.592  1.00  0.00     0.003 A 
HETATM    7  C   UNL     1       5.154  34.706  67.711  1.00  0.00     0.001 A 
HETATM    8  C   UNL     1       4.330  34.743  66.584  1.00  0.00     0.014 A 
BRANCH   4   9
HETATM    9  O   UNL     1       6.649  33.624  63.986  1.00  0.00    -0.346 OA
BRANCH   9  10
HETATM   10  C   UNL     1       7.505  32.476  64.070  1.00  0.00     0.214 C 
BRANCH  10  11
HETATM   11  C   UNL     1       8.070  32.125  62.709  1.00  0.00    -0.034 A 
HETATM   12  C   UNL     1       7.856  32.995  61.630  1.00  0.00     0.010 A 
HETATM   13  C   UNL     1       8.378  32.706  60.366  1.00  0.00     0.018 A 
HETATM   14  C   UNL     1       9.127  31.541  60.159  1.00  0.00     0.039 A 
HETATM   15  C   UNL     1       9.357  30.676  61.234  1.00  0.00     0.018 A 
HETATM   16  C   UNL     1       8.836  30.969  62.498  1.00  0.00     0.010 A 
BRANCH  14  17
HETATM   17  C   UNL     1       9.651  31.271  58.792  1.00  0.00     0.292 C 
HETATM   18  O   UNL     1      10.565  31.899  58.284  1.00  0.00    -0.259 OA
BRANCH  17  19
HETATM   19  O   UNL     1       8.967  30.255  58.209  1.00  0.00    -0.323 OA
HETATM   20  C   UNL     1       9.749  29.467  57.311  1.00  0.00     0.213 C 
ENDBRANCH  17  19
ENDBRANCH  14  17
ENDBRANCH  10  11
ENDBRANCH   9  10
ENDBRANCH   4   9
ENDBRANCH   1   3
BRANCH   2  21
HETATM   21  C   UNL     1       2.827  34.998  62.057  1.00  0.00     0.257 C 
HETATM   22  N   UNL     1       3.146  34.146  61.016  1.00  0.00    -0.344 N 
HETATM   23  C   UNL     1       2.173  33.939  59.939  1.00  0.00     0.152 C 
HETATM   24  C   UNL     1       4.426  33.481  60.740  1.00  0.00     0.152 C 
HETATM   25  C   UNL     1       2.768  34.408  58.608  1.00  0.00     0.187 C 
HETATM   26  O   UNL     1       4.018  33.748  58.338  1.00  0.00    -0.388 OA
HETATM   27  C   UNL     1       4.970  33.980  59.393  1.00  0.00     0.187 C 
HETATM   28  O   UNL     1       1.699  35.494  62.163  1.00  0.00    -0.267 OA
ENDBRANCH   2  21
BRANCH   2  29
HETATM   29  C   UNL     1       4.756  36.359  62.974  1.00  0.00     0.144 A 
HETATM   30  N   UNL     1       5.516  36.720  61.953  1.00  0.00    -0.228 NA
HETATM   31  C   UNL     1       6.106  37.907  62.307  1.00  0.00     0.086 A 
HETATM   32  C   UNL     1       5.739  38.277  63.592  1.00  0.00     0.062 A 
HETATM   33  C   UNL     1       6.963  38.740  61.574  1.00  0.00     0.034 A 
HETATM   34  N   UNL     1       4.898  37.276  63.998  1.00  0.00    -0.338 N 
HETATM   35  C   UNL     1       6.180  39.446  64.214  1.00  0.00     0.032 A 
HETATM   36  H   UNL     1       4.390  37.240  64.875  1.00  0.00     0.167 HD
HETATM   37  C   UNL     1       7.033  40.267  63.467  1.00  0.00     0.002 A 
HETATM   38  C   UNL     1       7.417  39.924  62.168  1.00  0.00     0.002 A 
ENDBRANCH   2  29
TORSDOF 8
ENDMDL
MODEL 4
REMARK VINA RESULT:      -9.4      1.897      2.325
REMARK  8 active torsions:
REMARK  status: ('A' for Active; 'I' for Inactive)
REMARK    1  A    between atoms: O_2  and  C_3 
REMARK    2  A    between atoms: C_3  and  C_4 
REMARK    3  A    between atoms: C_7  and  C_8 
REMARK    4  A    between atoms: C_8  and  O_9 
REMARK    5  A    between atoms: O_9  and  C_10 
REMARK    6  A    between atoms: C_11  and  C_12 
REMARK    7  A    between atoms: C_13  and  C_14 
REMARK    8  A    between atoms: C_13  and  C_22 
REMARK       I    between atoms: C_14  and  N_15 
ROOT
HETATM    1  C   UNL     1       6.909  29.939  56.696  1.00  0.00     0.035 C 
HETATM    2  C   UNL     1       6.157  29.108  55.945  1.00  0.00     0.079 C 
ENDROOT
BRANCH   1   3
HETATM    3  C   UNL     1       8.356  29.889  56.966  1.00  0.00    -0.002 A 
HETATM    4  C   UNL     1       8.885  30.433  58.144  1.00  0.00     0.079 A 
HETATM    5  C   UNL     1      10.269  30.476  58.352  1.00  0.00     0.037 A 
HETATM    6  C   UNL     1      11.133  29.936  57.401  1.00  0.00     0.003 A 
HETATM    7  C   UNL     1      10.619  29.378  56.234  1.00  0.00     0.001 A 
HETATM    8  C   UNL     1       9.239  29.366  56.011  1.00  0.00     0.014 A 
BRANCH   4   9
HETATM    9  O   UNL     1       8.029  31.015  59.044  1.00  0.00    -0.346 OA
BRANCH   9  10
HETATM   10  C   UNL     1       8.605  32.148  59.707  1.00  0.00     0.214 C 
BRANCH  10  11
HETATM   11  C   UNL     1       7.905  32.414  61.024  1.00  0.00    -0.034 A 
HETATM   12  C   UNL     1       6.532  32.702  61.027  1.00  0.00     0.010 A 
HETATM   13  C   UNL     1       5.855  32.937  62.227  1.00  0.00     0.018 A 
HETATM   14  C   UNL     1       6.539  32.886  63.448  1.00  0.00     0.039 A 
HETATM   15  C   UNL     1       7.906  32.585  63.454  1.00  0.00     0.018 A 
HETATM   16  C   UNL     1       8.580  32.347  62.252  1.00  0.00     0.010 A 
BRANCH  14  17
HETATM   17  C   UNL     1       5.777  33.155  64.697  1.00  0.00     0.292 C 
HETATM   18  O   UNL     1       4.574  32.985  64.804  1.00  0.00    -0.259 OA
BRANCH  17  19
HETATM   19  O   UNL     1       6.602  33.618  65.671  1.00  0.00    -0.323 OA
HETATM   20  C   UNL     1       5.923  34.244  66.760  1.00  0.00     0.213 C 
ENDBRANCH  17  19
ENDBRANCH  14  17
ENDBRANCH  10  11
ENDBRANCH   9  10
ENDBRANCH   4   9
ENDBRANCH   1   3
BRANCH   2  21
HETATM   21  C   UNL     1       4.682  29.397  55.841  1.00  0.00     0.257 C 
HETATM   22  N   UNL     1       4.238  30.579  55.279  1.00  0.00    -0.344 N 
HETATM   23  C   UNL     1       2.799  30.858  55.247  1.00  0.00     0.152 C 
HETATM   24  C   UNL     1       5.033  31.717  54.798  1.00  0.00     0.152 C 
HETATM   25  C   UNL     1       2.502  32.125  56.056  1.00  0.00     0.187 C 
HETATM   26  O   UNL     1       3.277  33.239  55.576  1.00  0.00    -0.388 OA
HETATM   27  C   UNL     1       4.688  32.958  55.635  1.00  0.00     0.187 C 
HETATM   28  O   UNL     1       3.891  28.520  56.208  1.00  0.00    -0.267 OA
ENDBRANCH   2  21
BRANCH   2  29
HETATM   29  C   UNL     1       6.661  27.869  55.433  1.00  0.00     0.144 A 
HETATM   30  N   UNL     1       6.882  26.699  56.007  1.00  0.00    -0.228 NA
HETATM   31  C   UNL     1       7.248  25.837  55.004  1.00  0.00     0.086 A 
HETATM   32  C   UNL     1       7.294  26.491  53.783  1.00  0.00     0.062 A 
HETATM   33  C   UNL     1       7.544  24.467  55.058  1.00  0.00     0.034 A 
HETATM   34  N   UNL     1       6.935  27.777  54.082  1.00  0.00    -0.338 N 
HETATM   35  C   UNL     1       7.629  25.862  52.582  1.00  0.00     0.032 A 
HETATM   36  H   UNL     1       6.807  28.533  53.418  1.00  0.00     0.167 HD
HETATM   37  C   UNL     1       7.920  24.495  52.654  1.00  0.00     0.002 A 
HETATM   38  C   UNL     1       7.877  23.806  53.868  1.00  0.00     0.002 A 
ENDBRANCH   2  29
TORSDOF 8
ENDMDL
MODEL 5
REMARK VINA RESULT:      -9.4      4.495      9.880
REMARK  8 active torsions:
REMARK  status: ('A' for Active; 'I' for Inactive)
REMARK    1  A    between atoms: O_2  and  C_3 
REMARK    2  A    between atoms: C_3  and  C_4 
REMARK    3  A    between atoms: C_7  and  C_8 
REMARK    4  A    between atoms: C_8  and  O_9 
REMARK    5  A    between atoms: O_9  and  C_10 
REMARK    6  A    between atoms: C_11  and  C_12 
REMARK    7  A    between atoms: C_13  and  C_14 
REMARK    8  A    between atoms: C_13  and  C_22 
REMARK       I    between atoms: C_14  and  N_15 
ROOT
HETATM    1  C   UNL     1       4.917  27.717  54.247  1.00  0.00     0.035 C 
HETATM    2  C   UNL     1       6.206  27.379  54.457  1.00  0.00     0.079 C 
ENDROOT
BRANCH   1   3
HETATM    3  C   UNL     1       4.206  28.946  54.643  1.00  0.00    -0.002 A 
HETATM    4  C   UNL     1       4.014  29.989  53.728  1.00  0.00     0.079 A 
HETATM    5  C   UNL     1       3.429  31.195  54.133  1.00  0.00     0.037 A 
HETATM    6  C   UNL     1       2.995  31.351  55.449  1.00  0.00     0.003 A 
HETATM    7  C   UNL     1       3.167  30.315  56.364  1.00  0.00     0.001 A 
HETATM    8  C   UNL     1       3.781  29.125  55.967  1.00  0.00     0.014 A 
BRANCH   4   9
HETATM    9  O   UNL     1       4.498  29.846  52.454  1.00  0.00    -0.346 OA
BRANCH   9  10
HETATM   10  C   UNL     1       3.743  30.586  51.485  1.00  0.00     0.214 C 
BRANCH  10  11
HETATM   11  C   UNL     1       3.284  29.684  50.358  1.00  0.00    -0.034 A 
HETATM   12  C   UNL     1       4.191  29.327  49.349  1.00  0.00     0.010 A 
HETATM   13  C   UNL     1       3.801  28.485  48.304  1.00  0.00     0.018 A 
HETATM   14  C   UNL     1       2.495  27.981  48.250  1.00  0.00     0.039 A 
HETATM   15  C   UNL     1       1.589  28.321  49.261  1.00  0.00     0.018 A 
HETATM   16  C   UNL     1       1.983  29.162  50.306  1.00  0.00     0.010 A 
BRANCH  14  17
HETATM   17  C   UNL     1       2.124  27.098  47.111  1.00  0.00     0.292 C 
HETATM   18  O   UNL     1       1.057  27.165  46.525  1.00  0.00    -0.259 OA
BRANCH  17  19
HETATM   19  O   UNL     1       3.125  26.222  46.839  1.00  0.00    -0.323 OA
HETATM   20  C   UNL     1       3.055  25.008  47.587  1.00  0.00     0.213 C 
ENDBRANCH  17  19
ENDBRANCH  14  17
ENDBRANCH  10  11
ENDBRANCH   9  10
ENDBRANCH   4   9
ENDBRANCH   1   3
BRANCH   2  21
HETATM   21  C   UNL     1       6.674  26.043  53.940  1.00  0.00     0.257 C 
HETATM   22  N   UNL     1       6.678  24.935  54.767  1.00  0.00    -0.344 N 
HETATM   23  C   UNL     1       7.196  23.663  54.254  1.00  0.00     0.152 C 
HETATM   24  C   UNL     1       6.345  24.860  56.196  1.00  0.00     0.152 C 
HETATM   25  C   UNL     1       8.407  23.227  55.085  1.00  0.00     0.187 C 
HETATM   26  O   UNL     1       8.074  23.148  56.483  1.00  0.00    -0.388 OA
HETATM   27  C   UNL     1       7.588  24.410  56.977  1.00  0.00     0.187 C 
HETATM   28  O   UNL     1       6.984  25.958  52.746  1.00  0.00    -0.267 OA
ENDBRANCH   2  21
BRANCH   2  29
HETATM   29  C   UNL     1       7.067  28.130  55.319  1.00  0.00     0.144 A 
HETATM   30  N   UNL     1       6.997  28.417  56.608  1.00  0.00    -0.228 NA
HETATM   31  C   UNL     1       8.166  29.063  56.927  1.00  0.00     0.086 A 
HETATM   32  C   UNL     1       8.966  29.217  55.806  1.00  0.00     0.062 A 
HETATM   33  C   UNL     1       8.623  29.538  58.164  1.00  0.00     0.034 A 
HETATM   34  N   UNL     1       8.244  28.634  54.800  1.00  0.00    -0.338 N 
HETATM   35  C   UNL     1      10.219  29.831  55.831  1.00  0.00     0.032 A 
HETATM   36  H   UNL     1       8.546  28.512  53.840  1.00  0.00     0.167 HD
HETATM   37  C   UNL     1      10.661  30.297  57.074  1.00  0.00     0.002 A 
HETATM   38  C   UNL     1       9.880  30.152  58.224  1.00  0.00     0.002 A 
ENDBRANCH   2  29
TORSDOF 8
ENDMDL
MODEL 6
REMARK VINA RESULT:      -9.2      3.304      4.830
REMARK  8 active torsions:
REMARK  status: ('A' for Active; 'I' for Inactive)
REMARK    1  A    between atoms: O_2  and  C_3 
REMARK    2  A    between atoms: C_3  and  C_4 
REMARK    3  A    between atoms: C_7  and  C_8 
REMARK    4  A    between atoms: C_8  and  O_9 
REMARK    5  A    between atoms: O_9  and  C_10 
REMARK    6  A    between atoms: C_11  and  C_12 
REMARK    7  A    between atoms: C_13  and  C_14 
REMARK    8  A    between atoms: C_13  and  C_22 
REMARK       I    between atoms: C_14  and  N_15 
ROOT
HETATM    1  C   UNL     1       6.013  32.301  59.235  1.00  0.00     0.035 C 
HETATM    2  C   UNL     1       5.439  31.583  58.248  1.00  0.00     0.079 C 
ENDROOT
BRANCH   1   3
HETATM    3  C   UNL     1       7.304  32.081  59.910  1.00  0.00    -0.002 A 
HETATM    4  C   UNL     1       7.382  32.027  61.307  1.00  0.00     0.079 A 
HETATM    5  C   UNL     1       8.622  31.921  61.949  1.00  0.00     0.037 A 
HETATM    6  C   UNL     1       9.790  31.825  61.195  1.00  0.00     0.003 A 
HETATM    7  C   UNL     1       9.724  31.862  59.804  1.00  0.00     0.001 A 
HETATM    8  C   UNL     1       8.490  32.003  59.165  1.00  0.00     0.014 A 
BRANCH   4   9
HETATM    9  O   UNL     1       6.233  32.182  62.038  1.00  0.00    -0.346 OA
BRANCH   9  10
HETATM   10  C   UNL     1       5.957  33.552  62.358  1.00  0.00     0.214 C 
BRANCH  10  11
HETATM   11  C   UNL     1       5.776  33.731  63.851  1.00  0.00    -0.034 A 
HETATM   12  C   UNL     1       6.906  33.766  64.681  1.00  0.00     0.010 A 
HETATM   13  C   UNL     1       6.772  33.945  66.061  1.00  0.00     0.018 A 
HETATM   14  C   UNL     1       5.504  34.095  66.636  1.00  0.00     0.039 A 
HETATM   15  C   UNL     1       4.373  34.077  65.812  1.00  0.00     0.018 A 
HETATM   16  C   UNL     1       4.510  33.900  64.432  1.00  0.00     0.010 A 
BRANCH  14  17
HETATM   17  C   UNL     1       5.412  34.271  68.111  1.00  0.00     0.292 C 
HETATM   18  O   UNL     1       4.730  33.564  68.834  1.00  0.00    -0.259 OA
BRANCH  17  19
HETATM   19  O   UNL     1       6.175  35.317  68.517  1.00  0.00    -0.323 OA
HETATM   20  C   UNL     1       7.089  34.998  69.566  1.00  0.00     0.213 C 
ENDBRANCH  17  19
ENDBRANCH  14  17
ENDBRANCH  10  11
ENDBRANCH   9  10
ENDBRANCH   4   9
ENDBRANCH   1   3
BRANCH   2  21
HETATM   21  C   UNL     1       4.095  32.037  57.739  1.00  0.00     0.257 C 
HETATM   22  N   UNL     1       4.009  32.872  56.640  1.00  0.00    -0.344 N 
HETATM   23  C   UNL     1       2.691  33.346  56.206  1.00  0.00     0.152 C 
HETATM   24  C   UNL     1       5.099  33.494  55.877  1.00  0.00     0.152 C 
HETATM   25  C   UNL     1       2.636  34.874  56.302  1.00  0.00     0.187 C 
HETATM   26  O   UNL     1       3.701  35.479  55.546  1.00  0.00    -0.388 OA
HETATM   27  C   UNL     1       4.989  35.020  55.999  1.00  0.00     0.187 C 
HETATM   28  O   UNL     1       3.083  31.587  58.289  1.00  0.00    -0.267 OA
ENDBRANCH   2  21
BRANCH   2  29
HETATM   29  C   UNL     1       5.948  30.312  57.827  1.00  0.00     0.144 A 
HETATM   30  N   UNL     1       7.179  29.874  57.629  1.00  0.00    -0.228 NA
HETATM   31  C   UNL     1       7.075  28.533  57.353  1.00  0.00     0.086 A 
HETATM   32  C   UNL     1       5.748  28.133  57.341  1.00  0.00     0.062 A 
HETATM   33  C   UNL     1       8.078  27.583  57.116  1.00  0.00     0.034 A 
HETATM   34  N   UNL     1       5.054  29.277  57.627  1.00  0.00    -0.338 N 
HETATM   35  C   UNL     1       5.340  26.821  57.097  1.00  0.00     0.032 A 
HETATM   36  H   UNL     1       4.051  29.352  57.755  1.00  0.00     0.167 HD
HETATM   37  C   UNL     1       6.354  25.885  56.864  1.00  0.00     0.002 A 
HETATM   38  C   UNL     1       7.701  26.256  56.875  1.00  0.00     0.002 A 
ENDBRANCH   2  29
TORSDOF 8
ENDMDL
MODEL 7
REMARK VINA RESULT:      -8.6      1.769      2.558
REMARK  8 active torsions:
REMARK  status: ('A' for Active; 'I' for Inactive)
REMARK    1  A    between atoms: O_2  and  C_3 
REMARK    2  A    between atoms: C_3  and  C_4 
REMARK    3  A    between atoms: C_7  and  C_8 
REMARK    4  A    between atoms: C_8  and  O_9 
REMARK    5  A    between atoms: O_9  and  C_10 
REMARK    6  A    between atoms: C_11  and  C_12 
REMARK    7  A    between atoms: C_13  and  C_14 
REMARK    8  A    between atoms: C_13  and  C_22 
REMARK       I    between atoms: C_14  and  N_15 
ROOT
HETATM    1  C   UNL     1       5.700  28.961  54.608  1.00  0.00     0.035 C 
HETATM    2  C   UNL     1       5.377  28.049  53.669  1.00  0.00     0.079 C 
ENDROOT
BRANCH   1   3
HETATM    3  C   UNL     1       6.810  28.939  55.577  1.00  0.00    -0.002 A 
HETATM    4  C   UNL     1       6.578  29.180  56.938  1.00  0.00     0.079 A 
HETATM    5  C   UNL     1       7.646  29.260  57.840  1.00  0.00     0.037 A 
HETATM    6  C   UNL     1       8.951  29.057  57.394  1.00  0.00     0.003 A 
HETATM    7  C   UNL     1       9.192  28.800  56.047  1.00  0.00     0.001 A 
HETATM    8  C   UNL     1       8.130  28.755  55.141  1.00  0.00     0.014 A 
BRANCH   4   9
HETATM    9  O   UNL     1       5.297  29.437  57.353  1.00  0.00    -0.346 OA
BRANCH   9  10
HETATM   10  C   UNL     1       4.938  30.819  57.227  1.00  0.00     0.214 C 
BRANCH  10  11
HETATM   11  C   UNL     1       4.765  31.457  58.591  1.00  0.00    -0.034 A 
HETATM   12  C   UNL     1       5.855  32.108  59.188  1.00  0.00     0.010 A 
HETATM   13  C   UNL     1       5.722  32.719  60.438  1.00  0.00     0.018 A 
HETATM   14  C   UNL     1       4.496  32.693  61.113  1.00  0.00     0.039 A 
HETATM   15  C   UNL     1       3.400  32.058  60.516  1.00  0.00     0.018 A 
HETATM   16  C   UNL     1       3.535  31.450  59.264  1.00  0.00     0.010 A 
BRANCH  14  17
HETATM   17  C   UNL     1       4.408  33.347  62.447  1.00  0.00     0.292 C 
HETATM   18  O   UNL     1       3.400  33.344  63.135  1.00  0.00    -0.259 OA
BRANCH  17  19
HETATM   19  O   UNL     1       5.585  33.940  62.768  1.00  0.00    -0.323 OA
HETATM   20  C   UNL     1       5.468  34.973  63.746  1.00  0.00     0.213 C 
ENDBRANCH  17  19
ENDBRANCH  14  17
ENDBRANCH  10  11
ENDBRANCH   9  10
ENDBRANCH   4   9
ENDBRANCH   1   3
BRANCH   2  21
HETATM   21  C   UNL     1       4.174  28.327  52.804  1.00  0.00     0.257 C 
HETATM   22  N   UNL     1       4.334  28.792  51.512  1.00  0.00    -0.344 N 
HETATM   23  C   UNL     1       3.145  29.112  50.716  1.00  0.00     0.152 C 
HETATM   24  C   UNL     1       5.577  29.156  50.819  1.00  0.00     0.152 C 
HETATM   25  C   UNL     1       3.159  30.597  50.343  1.00  0.00     0.187 C 
HETATM   26  O   UNL     1       4.375  30.948  49.658  1.00  0.00    -0.388 OA
HETATM   27  C   UNL     1       5.532  30.649  50.461  1.00  0.00     0.187 C 
HETATM   28  O   UNL     1       3.057  28.062  53.261  1.00  0.00    -0.267 OA
ENDBRANCH   2  21
BRANCH   2  29
HETATM   29  C   UNL     1       5.991  26.756  53.609  1.00  0.00     0.144 A 
HETATM   30  N   UNL     1       6.722  26.165  52.679  1.00  0.00    -0.228 NA
HETATM   31  C   UNL     1       7.148  24.977  53.217  1.00  0.00     0.086 A 
HETATM   32  C   UNL     1       6.642  24.803  54.496  1.00  0.00     0.062 A 
HETATM   33  C   UNL     1       7.988  23.994  52.675  1.00  0.00     0.034 A 
HETATM   34  N   UNL     1       5.901  25.932  54.715  1.00  0.00    -0.338 N 
HETATM   35  C   UNL     1       6.915  23.688  55.289  1.00  0.00     0.032 A 
HETATM   36  H   UNL     1       5.424  26.177  55.576  1.00  0.00     0.167 HD
HETATM   37  C   UNL     1       7.757  22.717  54.733  1.00  0.00     0.002 A 
HETATM   38  C   UNL     1       8.288  22.866  53.449  1.00  0.00     0.002 A 
ENDBRANCH   2  29
TORSDOF 8
ENDMDL
MODEL 8
REMARK VINA RESULT:      -8.6      4.873      9.727
REMARK  8 active torsions:
REMARK  status: ('A' for Active; 'I' for Inactive)
REMARK    1  A    between atoms: O_2  and  C_3 
REMARK    2  A    between atoms: C_3  and  C_4 
REMARK    3  A    between atoms: C_7  and  C_8 
REMARK    4  A    between atoms: C_8  and  O_9 
REMARK    5  A    between atoms: O_9  and  C_10 
REMARK    6  A    between atoms: C_11  and  C_12 
REMARK    7  A    between atoms: C_13  and  C_14 
REMARK    8  A    between atoms: C_13  and  C_22 
REMARK       I    between atoms: C_14  and  N_15 
ROOT
HETATM    1  C   UNL     1       3.127  29.494  51.651  1.00  0.00     0.035 C 
HETATM    2  C   UNL     1       3.877  30.502  52.142  1.00  0.00     0.079 C 
ENDROOT
BRANCH   1   3
HETATM    3  C   UNL     1       3.129  28.912  50.297  1.00  0.00    -0.002 A 
HETATM    4  C   UNL     1       3.971  27.838  49.980  1.00  0.00     0.079 A 
HETATM    5  C   UNL     1       4.046  27.354  48.668  1.00  0.00     0.037 A 
HETATM    6  C   UNL     1       3.248  27.914  47.672  1.00  0.00     0.003 A 
HETATM    7  C   UNL     1       2.396  28.972  47.979  1.00  0.00     0.001 A 
HETATM    8  C   UNL     1       2.347  29.478  49.280  1.00  0.00     0.014 A 
BRANCH   4   9
HETATM    9  O   UNL     1       4.793  27.335  50.954  1.00  0.00    -0.346 OA
BRANCH   9  10
HETATM   10  C   UNL     1       5.156  25.967  50.724  1.00  0.00     0.214 C 
BRANCH  10  11
HETATM   11  C   UNL     1       5.949  25.416  51.892  1.00  0.00    -0.034 A 
HETATM   12  C   UNL     1       5.288  25.120  53.093  1.00  0.00     0.010 A 
HETATM   13  C   UNL     1       5.990  24.597  54.183  1.00  0.00     0.018 A 
HETATM   14  C   UNL     1       7.366  24.357  54.090  1.00  0.00     0.039 A 
HETATM   15  C   UNL     1       8.030  24.636  52.890  1.00  0.00     0.018 A 
HETATM   16  C   UNL     1       7.325  25.157  51.800  1.00  0.00     0.010 A 
BRANCH  14  17
HETATM   17  C   UNL     1       8.071  23.810  55.281  1.00  0.00     0.292 C 
HETATM   18  O   UNL     1       9.051  23.087  55.212  1.00  0.00    -0.259 OA
BRANCH  17  19
HETATM   19  O   UNL     1       7.467  24.220  56.425  1.00  0.00    -0.323 OA
HETATM   20  C   UNL     1       8.226  25.167  57.177  1.00  0.00     0.213 C 
ENDBRANCH  17  19
ENDBRANCH  14  17
ENDBRANCH  10  11
ENDBRANCH   9  10
ENDBRANCH   4   9
ENDBRANCH   1   3
BRANCH   2  21
HETATM   21  C   UNL     1       3.664  30.900  53.579  1.00  0.00     0.257 C 
HETATM   22  N   UNL     1       4.414  30.318  54.585  1.00  0.00    -0.344 N 
HETATM   23  C   UNL     1       4.142  30.681  55.979  1.00  0.00     0.152 C 
HETATM   24  C   UNL     1       5.406  29.240  54.478  1.00  0.00     0.152 C 
HETATM   25  C   UNL     1       3.700  29.438  56.758  1.00  0.00     0.187 C 
HETATM   26  O   UNL     1       4.678  28.388  56.656  1.00  0.00    -0.388 OA
HETATM   27  C   UNL     1       4.918  28.028  55.283  1.00  0.00     0.187 C 
HETATM   28  O   UNL     1       2.855  31.804  53.818  1.00  0.00    -0.267 OA
ENDBRANCH   2  21
BRANCH   2  29
HETATM   29  C   UNL     1       4.694  31.329  51.305  1.00  0.00     0.144 A 
HETATM   30  N   UNL     1       5.268  31.110  50.134  1.00  0.00    -0.228 NA
HETATM   31  C   UNL     1       5.824  32.304  49.745  1.00  0.00     0.086 A 
HETATM   32  C   UNL     1       5.627  33.279  50.710  1.00  0.00     0.062 A 
HETATM   33  C   UNL     1       6.505  32.636  48.566  1.00  0.00     0.034 A 
HETATM   34  N   UNL     1       4.924  32.635  51.693  1.00  0.00    -0.338 N 
HETATM   35  C   UNL     1       6.076  34.594  50.582  1.00  0.00     0.032 A 
HETATM   36  H   UNL     1       4.555  33.056  52.538  1.00  0.00     0.167 HD
HETATM   37  C   UNL     1       6.752  34.909  49.398  1.00  0.00     0.002 A 
HETATM   38  C   UNL     1       6.962  33.951  48.404  1.00  0.00     0.002 A 
ENDBRANCH   2  29
TORSDOF 8
ENDMDL
MODEL 9
REMARK VINA RESULT:      -8.5      3.662      6.836
REMARK  8 active torsions:
REMARK  status: ('A' for Active; 'I' for Inactive)
REMARK    1  A    between atoms: O_2  and  C_3 
REMARK    2  A    between atoms: C_3  and  C_4 
REMARK    3  A    between atoms: C_7  and  C_8 
REMARK    4  A    between atoms: C_8  and  O_9 
REMARK    5  A    between atoms: O_9  and  C_10 
REMARK    6  A    between atoms: C_11  and  C_12 
REMARK    7  A    between atoms: C_13  and  C_14 
REMARK    8  A    between atoms: C_13  and  C_22 
REMARK       I    between atoms: C_14  and  N_15 
ROOT
HETATM    1  C   UNL     1       6.284  28.253  52.913  1.00  0.00     0.035 C 
HETATM    2  C   UNL     1       6.841  27.595  53.951  1.00  0.00     0.079 C 
ENDROOT
BRANCH   1   3
HETATM    3  C   UNL     1       5.708  27.706  51.672  1.00  0.00    -0.002 A 
HETATM    4  C   UNL     1       5.547  28.514  50.539  1.00  0.00     0.079 A 
HETATM    5  C   UNL     1       4.906  28.022  49.396  1.00  0.00     0.037 A 
HETATM    6  C   UNL     1       4.458  26.702  49.363  1.00  0.00     0.003 A 
HETATM    7  C   UNL     1       4.626  25.884  50.477  1.00  0.00     0.001 A 
HETATM    8  C   UNL     1       5.235  26.387  51.630  1.00  0.00     0.014 A 
BRANCH   4   9
HETATM    9  O   UNL     1       5.939  29.827  50.605  1.00  0.00    -0.346 OA
BRANCH   9  10
HETATM   10  C   UNL     1       4.860  30.741  50.366  1.00  0.00     0.214 C 
BRANCH  10  11
HETATM   11  C   UNL     1       4.371  31.348  51.665  1.00  0.00    -0.034 A 
HETATM   12  C   UNL     1       4.678  32.685  51.958  1.00  0.00     0.010 A 
HETATM   13  C   UNL     1       4.228  33.278  53.141  1.00  0.00     0.018 A 
HETATM   14  C   UNL     1       3.459  32.544  54.052  1.00  0.00     0.039 A 
HETATM   15  C   UNL     1       3.135  31.214  53.760  1.00  0.00     0.018 A 
HETATM   16  C   UNL     1       3.585  30.625  52.574  1.00  0.00     0.010 A 
BRANCH  14  17
HETATM   17  C   UNL     1       3.013  33.216  55.304  1.00  0.00     0.292 C 
HETATM   18  O   UNL     1       2.044  32.858  55.953  1.00  0.00    -0.259 OA
BRANCH  17  19
HETATM   19  O   UNL     1       3.822  34.265  55.598  1.00  0.00    -0.323 OA
HETATM   20  C   UNL     1       4.636  34.066  56.754  1.00  0.00     0.213 C 
ENDBRANCH  17  19
ENDBRANCH  14  17
ENDBRANCH  10  11
ENDBRANCH   9  10
ENDBRANCH   4   9
ENDBRANCH   1   3
BRANCH   2  21
HETATM   21  C   UNL     1       7.359  28.414  55.105  1.00  0.00     0.257 C 
HETATM   22  N   UNL     1       6.573  28.625  56.222  1.00  0.00    -0.344 N 
HETATM   23  C   UNL     1       7.080  29.477  57.302  1.00  0.00     0.152 C 
HETATM   24  C   UNL     1       5.182  28.211  56.452  1.00  0.00     0.152 C 
HETATM   25  C   UNL     1       6.161  30.689  57.477  1.00  0.00     0.187 C 
HETATM   26  O   UNL     1       4.801  30.279  57.710  1.00  0.00    -0.388 OA
HETATM   27  C   UNL     1       4.310  29.462  56.631  1.00  0.00     0.187 C 
HETATM   28  O   UNL     1       8.523  28.827  55.047  1.00  0.00    -0.267 OA
ENDBRANCH   2  21
BRANCH   2  29
HETATM   29  C   UNL     1       7.145  26.197  53.900  1.00  0.00     0.144 A 
HETATM   30  N   UNL     1       7.788  25.463  53.007  1.00  0.00    -0.228 NA
HETATM   31  C   UNL     1       7.890  24.202  53.541  1.00  0.00     0.086 A 
HETATM   32  C   UNL     1       7.263  24.137  54.776  1.00  0.00     0.062 A 
HETATM   33  C   UNL     1       8.519  23.058  53.032  1.00  0.00     0.034 A 
HETATM   34  N   UNL     1       6.787  25.404  54.974  1.00  0.00    -0.338 N 
HETATM   35  C   UNL     1       7.214  22.981  55.556  1.00  0.00     0.032 A 
HETATM   36  H   UNL     1       6.316  25.744  55.805  1.00  0.00     0.167 HD
HETATM   37  C   UNL     1       7.850  21.848  55.034  1.00  0.00     0.002 A 
HETATM   38  C   UNL     1       8.494  21.883  53.795  1.00  0.00     0.002 A 
ENDBRANCH   2  29
TORSDOF 8
ENDMDL
MODEL 10
REMARK VINA RESULT:      -8.5      4.615      9.960
REMARK  8 active torsions:
REMARK  status: ('A' for Active; 'I' for Inactive)
REMARK    1  A    between atoms: O_2  and  C_3 
REMARK    2  A    between atoms: C_3  and  C_4 
REMARK    3  A    between atoms: C_7  and  C_8 
REMARK    4  A    between atoms: C_8  and  O_9 
REMARK    5  A    between atoms: O_9  and  C_10 
REMARK    6  A    between atoms: C_11  and  C_12 
REMARK    7  A    between atoms: C_13  and  C_14 
REMARK    8  A    between atoms: C_13  and  C_22 
REMARK       I    between atoms: C_14  and  N_15 
ROOT
HETATM    1  C   UNL     1       3.609  29.254  52.307  1.00  0.00     0.035 C 
HETATM    2  C   UNL     1       4.020  30.526  52.484  1.00  0.00     0.079 C 
ENDROOT
BRANCH   1   3
HETATM    3  C   UNL     1       3.807  28.370  51.145  1.00  0.00    -0.002 A 
HETATM    4  C   UNL     1       4.766  27.349  51.176  1.00  0.00     0.079 A 
HETATM    5  C   UNL     1       5.024  26.577  50.037  1.00  0.00     0.037 A 
HETATM    6  C   UNL     1       4.293  26.793  48.870  1.00  0.00     0.003 A 
HETATM    7  C   UNL     1       3.326  27.794  48.832  1.00  0.00     0.001 A 
HETATM    8  C   UNL     1       3.093  28.587  49.958  1.00  0.00     0.014 A 
BRANCH   4   9
HETATM    9  O   UNL     1       5.519  27.186  52.311  1.00  0.00    -0.346 OA
BRANCH   9  10
HETATM   10  C   UNL     1       4.928  26.272  53.244  1.00  0.00     0.214 C 
BRANCH  10  11
HETATM   11  C   UNL     1       5.895  25.161  53.596  1.00  0.00    -0.034 A 
HETATM   12  C   UNL     1       6.578  24.493  52.569  1.00  0.00     0.010 A 
HETATM   13  C   UNL     1       7.488  23.474  52.864  1.00  0.00     0.018 A 
HETATM   14  C   UNL     1       7.735  23.106  54.192  1.00  0.00     0.039 A 
HETATM   15  C   UNL     1       7.069  23.779  55.222  1.00  0.00     0.018 A 
HETATM   16  C   UNL     1       6.161  24.800  54.925  1.00  0.00     0.010 A 
BRANCH  14  17
HETATM   17  C   UNL     1       8.704  22.007  54.454  1.00  0.00     0.292 C 
HETATM   18  O   UNL     1       9.214  21.334  53.574  1.00  0.00    -0.259 OA
BRANCH  17  19
HETATM   19  O   UNL     1       8.918  21.865  55.786  1.00  0.00    -0.323 OA
HETATM   20  C   UNL     1       9.104  20.513  56.205  1.00  0.00     0.213 C 
ENDBRANCH  17  19
ENDBRANCH  14  17
ENDBRANCH  10  11
ENDBRANCH   9  10
ENDBRANCH   4   9
ENDBRANCH   1   3
BRANCH   2  21
HETATM   21  C   UNL     1       3.674  31.202  53.786  1.00  0.00     0.257 C 
HETATM   22  N   UNL     1       4.350  30.874  54.946  1.00  0.00    -0.344 N 
HETATM   23  C   UNL     1       3.949  31.504  56.208  1.00  0.00     0.152 C 
HETATM   24  C   UNL     1       5.378  29.844  55.145  1.00  0.00     0.152 C 
HETATM   25  C   UNL     1       3.477  30.429  57.193  1.00  0.00     0.187 C 
HETATM   26  O   UNL     1       4.490  29.426  57.390  1.00  0.00    -0.388 OA
HETATM   27  C   UNL     1       4.857  28.802  56.146  1.00  0.00     0.187 C 
HETATM   28  O   UNL     1       2.822  32.097  53.766  1.00  0.00    -0.267 OA
ENDBRANCH   2  21
BRANCH   2  29
HETATM   29  C   UNL     1       4.574  31.309  51.421  1.00  0.00     0.144 A 
HETATM   30  N   UNL     1       5.716  31.223  50.760  1.00  0.00    -0.228 NA
HETATM   31  C   UNL     1       5.657  32.161  49.759  1.00  0.00     0.086 A 
HETATM   32  C   UNL     1       4.470  32.874  49.819  1.00  0.00     0.062 A 
HETATM   33  C   UNL     1       6.580  32.453  48.745  1.00  0.00     0.034 A 
HETATM   34  N   UNL     1       3.809  32.329  50.887  1.00  0.00    -0.338 N 
HETATM   35  C   UNL     1       4.132  33.887  48.921  1.00  0.00     0.032 A 
HETATM   36  H   UNL     1       2.875  32.569  51.198  1.00  0.00     0.167 HD
HETATM   37  C   UNL     1       5.063  34.164  47.913  1.00  0.00     0.002 A 
HETATM   38  C   UNL     1       6.266  33.459  47.822  1.00  0.00     0.002 A 
ENDBRANCH   2  29
TORSDOF 8
ENDMDL
