MODEL 1
REMARK VINA RESULT:      -8.4      0.000      0.000
REMARK  4 active torsions:
REMARK  status: ('A' for Active; 'I' for Inactive)
REMARK    1  A    between atoms: C_9  and  C_10 
REMARK    2  A    between atoms: C_17  and  C_18 
REMARK       I    between atoms: C_18  and  N_19 
REMARK    3  A    between atoms: N_19  and  C_20 
REMARK    4  A    between atoms: C_23  and  O_24 
ROOT
HETATM    1  C   UNL     1       3.899  25.421  49.100  1.00  0.00     0.070 C 
HETATM    2  C   UNL     1       4.425  26.685  49.735  1.00  0.00     0.037 C 
HETATM    3  N   UNL     1       4.260  27.842  48.979  1.00  0.00    -0.192 N 
HETATM    4  C   UNL     1       4.875  29.006  49.265  1.00  0.00     0.725 A 
HETATM    5  N   UNL     1       5.567  29.128  50.440  1.00  0.00    -0.084 N 
HETATM    6  N   UNL     1       6.205  30.316  50.512  1.00  0.00    -0.149 NA
HETATM    7  C   UNL     1       5.800  30.881  49.369  1.00  0.00     0.275 A 
HETATM    8  N   UNL     1       4.985  30.113  48.577  1.00  0.00    -0.054 NA
HETATM    9  C   UNL     1       5.718  28.043  51.417  1.00  0.00     0.204 C 
HETATM   10  C   UNL     1       5.099  26.741  50.914  1.00  0.00     0.062 C 
HETATM   11  H   UNL     1       3.818  27.752  48.067  1.00  0.00     0.184 HD
ENDROOT
BRANCH  10  12
HETATM   12  C   UNL     1       5.484  25.547  51.713  1.00  0.00     0.256 C 
HETATM   13  N   UNL     1       6.833  25.443  51.973  1.00  0.00    -0.323 N 
HETATM   14  H   UNL     1       7.443  26.119  51.531  1.00  0.00     0.169 HD
HETATM   15  O   UNL     1       4.603  24.760  52.038  1.00  0.00    -0.267 OA
BRANCH  13  16
HETATM   16  C   UNL     1       7.454  24.526  52.851  1.00  0.00     0.035 A 
HETATM   17  C   UNL     1       7.897  23.260  52.470  1.00  0.00     0.032 A 
HETATM   18  C   UNL     1       8.461  22.391  53.410  1.00  0.00     0.039 A 
HETATM   19  C   UNL     1       8.594  22.769  54.745  1.00  0.00     0.068 A 
HETATM   20  C   UNL     1       8.155  24.032  55.136  1.00  0.00     0.039 A 
HETATM   21  C   UNL     1       7.591  24.905  54.194  1.00  0.00     0.032 A 
BRANCH  19  22
HETATM   22  O   UNL     1       9.154  21.820  55.554  1.00  0.00    -0.356 OA
HETATM   23  C   UNL     1       8.296  21.182  56.489  1.00  0.00     0.210 C 
ENDBRANCH  19  22
ENDBRANCH  13  16
ENDBRANCH  10  12
BRANCH   9  24
HETATM   24  C   UNL     1       5.239  28.481  52.801  1.00  0.00    -0.006 A 
HETATM   25  C   UNL     1       6.048  28.535  53.950  1.00  0.00     0.042 A 
HETATM   26 CL   UNL     1       7.741  28.199  53.927  1.00  0.00    -0.084 Cl
HETATM   27  C   UNL     1       5.504  28.894  55.191  1.00  0.00     0.024 A 
HETATM   28  C   UNL     1       4.156  29.222  55.306  1.00  0.00     0.002 A 
HETATM   29  C   UNL     1       3.345  29.201  54.177  1.00  0.00     0.001 A 
HETATM   30  C   UNL     1       3.881  28.836  52.940  1.00  0.00     0.011 A 
ENDBRANCH   9  24
TORSDOF 4
ENDMDL
MODEL 2
REMARK VINA RESULT:      -8.3      3.065      6.613
REMARK  4 active torsions:
REMARK  status: ('A' for Active; 'I' for Inactive)
REMARK    1  A    between atoms: C_9  and  C_10 
REMARK    2  A    between atoms: C_17  and  C_18 
REMARK       I    between atoms: C_18  and  N_19 
REMARK    3  A    between atoms: N_19  and  C_20 
REMARK    4  A    between atoms: C_23  and  O_24 
ROOT
HETATM    1  C   UNL     1       4.042  30.453  55.478  1.00  0.00     0.070 C 
HETATM    2  C   UNL     1       5.329  29.681  55.641  1.00  0.00     0.037 C 
HETATM    3  N   UNL     1       6.170  30.137  56.653  1.00  0.00    -0.192 N 
HETATM    4  C   UNL     1       7.450  29.738  56.786  1.00  0.00     0.725 A 
HETATM    5  N   UNL     1       7.918  28.716  56.006  1.00  0.00    -0.084 N 
HETATM    6  N   UNL     1       9.241  28.522  56.194  1.00  0.00    -0.149 NA
HETATM    7  C   UNL     1       9.488  29.426  57.149  1.00  0.00     0.275 A 
HETATM    8  N   UNL     1       8.418  30.190  57.540  1.00  0.00    -0.054 NA
HETATM    9  C   UNL     1       7.115  28.031  54.985  1.00  0.00     0.204 C 
HETATM   10  C   UNL     1       5.735  28.666  54.835  1.00  0.00     0.062 C 
HETATM   11  H   UNL     1       5.868  30.947  57.190  1.00  0.00     0.184 HD
ENDROOT
BRANCH  10  12
HETATM   12  C   UNL     1       4.999  28.218  53.621  1.00  0.00     0.256 C 
HETATM   13  N   UNL     1       5.681  28.402  52.439  1.00  0.00    -0.323 N 
HETATM   14  H   UNL     1       6.563  28.897  52.484  1.00  0.00     0.169 HD
HETATM   15  O   UNL     1       3.870  27.766  53.764  1.00  0.00    -0.267 OA
BRANCH  13  16
HETATM   16  C   UNL     1       5.311  27.909  51.166  1.00  0.00     0.035 A 
HETATM   17  C   UNL     1       4.985  26.577  50.913  1.00  0.00     0.032 A 
HETATM   18  C   UNL     1       4.674  26.156  49.615  1.00  0.00     0.039 A 
HETATM   19  C   UNL     1       4.682  27.054  48.549  1.00  0.00     0.068 A 
HETATM   20  C   UNL     1       5.007  28.388  48.793  1.00  0.00     0.039 A 
HETATM   21  C   UNL     1       5.317  28.811  50.094  1.00  0.00     0.032 A 
BRANCH  19  22
HETATM   22  O   UNL     1       4.367  26.506  47.338  1.00  0.00    -0.356 OA
HETATM   23  C   UNL     1       3.235  25.649  47.292  1.00  0.00     0.210 C 
ENDBRANCH  19  22
ENDBRANCH  13  16
ENDBRANCH  10  12
BRANCH   9  24
HETATM   24  C   UNL     1       7.098  26.521  55.224  1.00  0.00    -0.006 A 
HETATM   25  C   UNL     1       7.454  25.553  54.269  1.00  0.00     0.042 A 
HETATM   26 CL   UNL     1       8.060  25.954  52.702  1.00  0.00    -0.084 Cl
HETATM   27  C   UNL     1       7.350  24.186  54.561  1.00  0.00     0.024 A 
HETATM   28  C   UNL     1       6.909  23.761  55.812  1.00  0.00     0.002 A 
HETATM   29  C   UNL     1       6.578  24.702  56.780  1.00  0.00     0.001 A 
HETATM   30  C   UNL     1       6.672  26.065  56.489  1.00  0.00     0.011 A 
ENDBRANCH   9  24
TORSDOF 4
ENDMDL
MODEL 3
REMARK VINA RESULT:      -8.3      2.988      6.628
REMARK  4 active torsions:
REMARK  status: ('A' for Active; 'I' for Inactive)
REMARK    1  A    between atoms: C_9  and  C_10 
REMARK    2  A    between atoms: C_17  and  C_18 
REMARK       I    between atoms: C_18  and  N_19 
REMARK    3  A    between atoms: N_19  and  C_20 
REMARK    4  A    between atoms: C_23  and  O_24 
ROOT
HETATM    1  C   UNL     1       3.623  30.260  55.238  1.00  0.00     0.070 C 
HETATM    2  C   UNL     1       4.952  29.552  55.334  1.00  0.00     0.037 C 
HETATM    3  N   UNL     1       5.771  29.968  56.381  1.00  0.00    -0.192 N 
HETATM    4  C   UNL     1       7.072  29.633  56.480  1.00  0.00     0.725 A 
HETATM    5  N   UNL     1       7.594  28.709  55.615  1.00  0.00    -0.084 N 
HETATM    6  N   UNL     1       8.926  28.575  55.786  1.00  0.00    -0.149 NA
HETATM    7  C   UNL     1       9.126  29.408  56.814  1.00  0.00     0.275 A 
HETATM    8  N   UNL     1       8.017  30.074  57.269  1.00  0.00    -0.054 NA
HETATM    9  C   UNL     1       6.826  28.068  54.540  1.00  0.00     0.204 C 
HETATM   10  C   UNL     1       5.411  28.634  54.445  1.00  0.00     0.062 C 
HETATM   11  H   UNL     1       5.426  30.711  56.985  1.00  0.00     0.184 HD
ENDROOT
BRANCH  10  12
HETATM   12  C   UNL     1       4.695  28.249  53.198  1.00  0.00     0.256 C 
HETATM   13  N   UNL     1       5.433  28.402  52.045  1.00  0.00    -0.323 N 
HETATM   14  H   UNL     1       6.342  28.839  52.131  1.00  0.00     0.169 HD
HETATM   15  O   UNL     1       3.535  27.870  53.291  1.00  0.00    -0.267 OA
BRANCH  13  16
HETATM   16  C   UNL     1       5.082  27.949  50.752  1.00  0.00     0.035 A 
HETATM   17  C   UNL     1       4.787  28.796  49.685  1.00  0.00     0.032 A 
HETATM   18  C   UNL     1       4.401  28.271  48.446  1.00  0.00     0.039 A 
HETATM   19  C   UNL     1       4.304  26.894  48.251  1.00  0.00     0.068 A 
HETATM   20  C   UNL     1       4.597  26.040  49.312  1.00  0.00     0.039 A 
HETATM   21  C   UNL     1       4.986  26.566  50.554  1.00  0.00     0.032 A 
BRANCH  19  22
HETATM   22  O   UNL     1       3.910  26.522  46.997  1.00  0.00    -0.356 OA
HETATM   23  C   UNL     1       2.736  25.727  46.899  1.00  0.00     0.210 C 
ENDBRANCH  19  22
ENDBRANCH  13  16
ENDBRANCH  10  12
BRANCH   9  24
HETATM   24  C   UNL     1       6.896  26.545  54.650  1.00  0.00    -0.006 A 
HETATM   25  C   UNL     1       6.370  25.792  55.715  1.00  0.00     0.042 A 
HETATM   26 CL   UNL     1       5.477  26.495  57.015  1.00  0.00    -0.084 Cl
HETATM   27  C   UNL     1       6.536  24.400  55.757  1.00  0.00     0.024 A 
HETATM   28  C   UNL     1       7.207  23.735  54.735  1.00  0.00     0.002 A 
HETATM   29  C   UNL     1       7.710  24.458  53.660  1.00  0.00     0.001 A 
HETATM   30  C   UNL     1       7.556  25.845  53.618  1.00  0.00     0.011 A 
ENDBRANCH   9  24
TORSDOF 4
ENDMDL
MODEL 4
REMARK VINA RESULT:      -8.1      6.378      9.633
REMARK  4 active torsions:
REMARK  status: ('A' for Active; 'I' for Inactive)
REMARK    1  A    between atoms: C_9  and  C_10 
REMARK    2  A    between atoms: C_17  and  C_18 
REMARK       I    between atoms: C_18  and  N_19 
REMARK    3  A    between atoms: N_19  and  C_20 
REMARK    4  A    between atoms: C_23  and  O_24 
ROOT
HETATM    1  C   UNL     1       3.743  29.938  55.700  1.00  0.00     0.070 C 
HETATM    2  C   UNL     1       4.933  29.221  56.290  1.00  0.00     0.037 C 
HETATM    3  N   UNL     1       5.046  27.877  55.943  1.00  0.00    -0.192 N 
HETATM    4  C   UNL     1       5.888  27.023  56.558  1.00  0.00     0.725 A 
HETATM    5  N   UNL     1       6.801  27.511  57.454  1.00  0.00    -0.084 N 
HETATM    6  N   UNL     1       7.485  26.512  58.050  1.00  0.00    -0.149 NA
HETATM    7  C   UNL     1       6.971  25.451  57.418  1.00  0.00     0.275 A 
HETATM    8  N   UNL     1       5.991  25.721  56.496  1.00  0.00    -0.054 NA
HETATM    9  C   UNL     1       6.907  28.928  57.826  1.00  0.00     0.204 C 
HETATM   10  C   UNL     1       5.812  29.765  57.171  1.00  0.00     0.062 C 
HETATM   11  H   UNL     1       4.328  27.481  55.340  1.00  0.00     0.184 HD
ENDROOT
BRANCH  10  12
HETATM   12  C   UNL     1       5.681  31.133  57.742  1.00  0.00     0.256 C 
HETATM   13  N   UNL     1       5.078  31.180  58.980  1.00  0.00    -0.323 N 
HETATM   14  H   UNL     1       4.702  30.314  59.345  1.00  0.00     0.169 HD
HETATM   15  O   UNL     1       6.078  32.079  57.074  1.00  0.00    -0.267 OA
BRANCH  13  16
HETATM   16  C   UNL     1       4.989  32.305  59.832  1.00  0.00     0.035 A 
HETATM   17  C   UNL     1       4.022  33.301  59.706  1.00  0.00     0.032 A 
HETATM   18  C   UNL     1       4.028  34.409  60.561  1.00  0.00     0.039 A 
HETATM   19  C   UNL     1       4.996  34.542  61.556  1.00  0.00     0.068 A 
HETATM   20  C   UNL     1       5.966  33.550  61.689  1.00  0.00     0.039 A 
HETATM   21  C   UNL     1       5.960  32.438  60.834  1.00  0.00     0.032 A 
BRANCH  19  22
HETATM   22  O   UNL     1       4.887  35.674  62.311  1.00  0.00    -0.356 OA
HETATM   23  C   UNL     1       5.732  35.775  63.449  1.00  0.00     0.210 C 
ENDBRANCH  19  22
ENDBRANCH  13  16
ENDBRANCH  10  12
BRANCH   9  24
HETATM   24  C   UNL     1       8.327  29.449  57.601  1.00  0.00    -0.006 A 
HETATM   25  C   UNL     1       9.090  30.139  58.559  1.00  0.00     0.042 A 
HETATM   26 CL   UNL     1       8.550  30.409  60.177  1.00  0.00    -0.084 Cl
HETATM   27  C   UNL     1      10.363  30.631  58.240  1.00  0.00     0.024 A 
HETATM   28  C   UNL     1      10.904  30.430  56.973  1.00  0.00     0.002 A 
HETATM   29  C   UNL     1      10.177  29.727  56.020  1.00  0.00     0.001 A 
HETATM   30  C   UNL     1       8.905  29.242  56.330  1.00  0.00     0.011 A 
ENDBRANCH   9  24
TORSDOF 4
ENDMDL
MODEL 5
REMARK VINA RESULT:      -8.1      5.016      6.827
REMARK  4 active torsions:
REMARK  status: ('A' for Active; 'I' for Inactive)
REMARK    1  A    between atoms: C_9  and  C_10 
REMARK    2  A    between atoms: C_17  and  C_18 
REMARK       I    between atoms: C_18  and  N_19 
REMARK    3  A    between atoms: N_19  and  C_20 
REMARK    4  A    between atoms: C_23  and  O_24 
ROOT
HETATM    1  C   UNL     1      10.993  29.699  56.665  1.00  0.00     0.070 C 
HETATM    2  C   UNL     1       9.706  30.142  57.318  1.00  0.00     0.037 C 
HETATM    3  N   UNL     1       9.818  31.243  58.163  1.00  0.00    -0.192 N 
HETATM    4  C   UNL     1       8.845  31.625  59.012  1.00  0.00     0.725 A 
HETATM    5  N   UNL     1       7.618  31.022  58.941  1.00  0.00    -0.084 N 
HETATM    6  N   UNL     1       6.803  31.450  59.929  1.00  0.00    -0.149 NA
HETATM    7  C   UNL     1       7.590  32.356  60.520  1.00  0.00     0.275 A 
HETATM    8  N   UNL     1       8.847  32.495  59.989  1.00  0.00    -0.054 NA
HETATM    9  C   UNL     1       7.292  29.938  58.006  1.00  0.00     0.204 C 
HETATM   10  C   UNL     1       8.513  29.502  57.201  1.00  0.00     0.062 C 
HETATM   11  H   UNL     1      10.742  31.653  58.286  1.00  0.00     0.184 HD
ENDROOT
BRANCH  10  12
HETATM   12  C   UNL     1       8.322  28.221  56.468  1.00  0.00     0.256 C 
HETATM   13  N   UNL     1       8.497  27.091  57.237  1.00  0.00    -0.323 N 
HETATM   14  H   UNL     1       8.822  27.223  58.186  1.00  0.00     0.169 HD
HETATM   15  O   UNL     1       8.064  28.271  55.272  1.00  0.00    -0.267 OA
BRANCH  13  16
HETATM   16  C   UNL     1       8.202  25.761  56.861  1.00  0.00     0.035 A 
HETATM   17  C   UNL     1       8.764  24.638  57.467  1.00  0.00     0.032 A 
HETATM   18  C   UNL     1       8.457  23.353  57.005  1.00  0.00     0.039 A 
HETATM   19  C   UNL     1       7.585  23.165  55.935  1.00  0.00     0.068 A 
HETATM   20  C   UNL     1       7.018  24.282  55.323  1.00  0.00     0.039 A 
HETATM   21  C   UNL     1       7.324  25.570  55.786  1.00  0.00     0.032 A 
BRANCH  19  22
HETATM   22  O   UNL     1       7.382  21.860  55.586  1.00  0.00    -0.356 OA
HETATM   23  C   UNL     1       8.028  21.400  54.406  1.00  0.00     0.210 C 
ENDBRANCH  19  22
ENDBRANCH  13  16
ENDBRANCH  10  12
BRANCH   9  24
HETATM   24  C   UNL     1       6.067  30.292  57.162  1.00  0.00    -0.006 A 
HETATM   25  C   UNL     1       5.072  29.379  56.770  1.00  0.00     0.042 A 
HETATM   26 CL   UNL     1       5.054  27.729  57.278  1.00  0.00    -0.084 Cl
HETATM   27  C   UNL     1       4.014  29.785  55.944  1.00  0.00     0.024 A 
HETATM   28  C   UNL     1       3.919  31.106  55.513  1.00  0.00     0.002 A 
HETATM   29  C   UNL     1       4.877  32.030  55.912  1.00  0.00     0.001 A 
HETATM   30  C   UNL     1       5.938  31.628  56.727  1.00  0.00     0.011 A 
ENDBRANCH   9  24
TORSDOF 4
ENDMDL
MODEL 6
REMARK VINA RESULT:      -7.9      2.624      4.509
REMARK  4 active torsions:
REMARK  status: ('A' for Active; 'I' for Inactive)
REMARK    1  A    between atoms: C_9  and  C_10 
REMARK    2  A    between atoms: C_17  and  C_18 
REMARK       I    between atoms: C_18  and  N_19 
REMARK    3  A    between atoms: N_19  and  C_20 
REMARK    4  A    between atoms: C_23  and  O_24 
ROOT
HETATM    1  C   UNL     1       8.591  28.872  56.113  1.00  0.00     0.070 C 
HETATM    2  C   UNL     1       7.277  29.015  55.386  1.00  0.00     0.037 C 
HETATM    3  N   UNL     1       6.524  30.133  55.736  1.00  0.00    -0.192 N 
HETATM    4  C   UNL     1       5.234  30.296  55.382  1.00  0.00     0.725 A 
HETATM    5  N   UNL     1       4.665  29.418  54.500  1.00  0.00    -0.084 N 
HETATM    6  N   UNL     1       3.347  29.667  54.342  1.00  0.00    -0.149 NA
HETATM    7  C   UNL     1       3.208  30.749  55.117  1.00  0.00     0.275 A 
HETATM    8  N   UNL     1       4.339  31.167  55.770  1.00  0.00    -0.054 NA
HETATM    9  C   UNL     1       5.367  28.264  53.926  1.00  0.00     0.204 C 
HETATM   10  C   UNL     1       6.768  28.109  54.511  1.00  0.00     0.062 C 
HETATM   11  H   UNL     1       6.901  30.753  56.450  1.00  0.00     0.184 HD
ENDROOT
BRANCH  10  12
HETATM   12  C   UNL     1       7.405  26.800  54.202  1.00  0.00     0.256 C 
HETATM   13  N   UNL     1       7.029  25.769  55.035  1.00  0.00    -0.323 N 
HETATM   14  H   UNL     1       6.439  26.004  55.824  1.00  0.00     0.169 HD
HETATM   15  O   UNL     1       8.210  26.752  53.281  1.00  0.00    -0.267 OA
BRANCH  13  16
HETATM   16  C   UNL     1       7.326  24.398  54.868  1.00  0.00     0.035 A 
HETATM   17  C   UNL     1       7.386  23.760  53.629  1.00  0.00     0.032 A 
HETATM   18  C   UNL     1       7.640  22.386  53.548  1.00  0.00     0.039 A 
HETATM   19  C   UNL     1       7.840  21.626  54.699  1.00  0.00     0.068 A 
HETATM   20  C   UNL     1       7.782  22.254  55.941  1.00  0.00     0.039 A 
HETATM   21  C   UNL     1       7.530  23.632  56.023  1.00  0.00     0.032 A 
BRANCH  19  22
HETATM   22  O   UNL     1       8.070  20.298  54.473  1.00  0.00    -0.356 OA
HETATM   23  C   UNL     1       8.767  19.958  53.282  1.00  0.00     0.210 C 
ENDBRANCH  19  22
ENDBRANCH  13  16
ENDBRANCH  10  12
BRANCH   9  24
HETATM   24  C   UNL     1       5.316  28.296  52.398  1.00  0.00    -0.006 A 
HETATM   25  C   UNL     1       5.091  27.175  51.579  1.00  0.00     0.042 A 
HETATM   26 CL   UNL     1       4.741  25.605  52.206  1.00  0.00    -0.084 Cl
HETATM   27  C   UNL     1       5.121  27.293  50.182  1.00  0.00     0.024 A 
HETATM   28  C   UNL     1       5.356  28.526  49.580  1.00  0.00     0.002 A 
HETATM   29  C   UNL     1       5.554  29.651  50.371  1.00  0.00     0.001 A 
HETATM   30  C   UNL     1       5.534  29.537  51.763  1.00  0.00     0.011 A 
ENDBRANCH   9  24
TORSDOF 4
ENDMDL
MODEL 7
REMARK VINA RESULT:      -7.7      4.796      6.894
REMARK  4 active torsions:
REMARK  status: ('A' for Active; 'I' for Inactive)
REMARK    1  A    between atoms: C_9  and  C_10 
REMARK    2  A    between atoms: C_17  and  C_18 
REMARK       I    between atoms: C_18  and  N_19 
REMARK    3  A    between atoms: N_19  and  C_20 
REMARK    4  A    between atoms: C_23  and  O_24 
ROOT
HETATM    1  C   UNL     1       8.953  30.745  58.831  1.00  0.00     0.070 C 
HETATM    2  C   UNL     1       7.491  31.014  58.570  1.00  0.00     0.037 C 
HETATM    3  N   UNL     1       6.918  32.002  59.366  1.00  0.00    -0.192 N 
HETATM    4  C   UNL     1       5.589  32.206  59.449  1.00  0.00     0.725 A 
HETATM    5  N   UNL     1       4.753  31.536  58.597  1.00  0.00    -0.084 N 
HETATM    6  N   UNL     1       3.458  31.777  58.891  1.00  0.00    -0.149 NA
HETATM    7  C   UNL     1       3.593  32.652  59.894  1.00  0.00     0.275 A 
HETATM    8  N   UNL     1       4.881  32.942  60.266  1.00  0.00    -0.054 NA
HETATM    9  C   UNL     1       5.211  30.561  57.600  1.00  0.00     0.204 C 
HETATM   10  C   UNL     1       6.715  30.315  57.701  1.00  0.00     0.062 C 
HETATM   11  H   UNL     1       7.511  32.454  60.059  1.00  0.00     0.184 HD
ENDROOT
BRANCH  10  12
HETATM   12  C   UNL     1       7.180  29.128  56.934  1.00  0.00     0.256 C 
HETATM   13  N   UNL     1       6.999  27.924  57.578  1.00  0.00    -0.323 N 
HETATM   14  H   UNL     1       6.659  27.955  58.531  1.00  0.00     0.169 HD
HETATM   15  O   UNL     1       7.700  29.313  55.841  1.00  0.00    -0.267 OA
BRANCH  13  16
HETATM   16  C   UNL     1       7.174  26.635  57.023  1.00  0.00     0.035 A 
HETATM   17  C   UNL     1       6.263  26.030  56.159  1.00  0.00     0.032 A 
HETATM   18  C   UNL     1       6.485  24.731  55.688  1.00  0.00     0.039 A 
HETATM   19  C   UNL     1       7.618  24.015  56.068  1.00  0.00     0.068 A 
HETATM   20  C   UNL     1       8.535  24.612  56.931  1.00  0.00     0.039 A 
HETATM   21  C   UNL     1       8.315  25.915  57.402  1.00  0.00     0.032 A 
BRANCH  19  22
HETATM   22  O   UNL     1       7.704  22.758  55.540  1.00  0.00    -0.356 OA
HETATM   23  C   UNL     1       8.999  22.294  55.185  1.00  0.00     0.210 C 
ENDBRANCH  19  22
ENDBRANCH  13  16
ENDBRANCH  10  12
BRANCH   9  24
HETATM   24  C   UNL     1       4.721  30.936  56.201  1.00  0.00    -0.006 A 
HETATM   25  C   UNL     1       4.161  30.035  55.278  1.00  0.00     0.042 A 
HETATM   26 CL   UNL     1       3.861  28.375  55.646  1.00  0.00    -0.084 Cl
HETATM   27  C   UNL     1       3.794  30.462  53.994  1.00  0.00     0.024 A 
HETATM   28  C   UNL     1       3.960  31.792  53.615  1.00  0.00     0.002 A 
HETATM   29  C   UNL     1       4.487  32.704  54.522  1.00  0.00     0.001 A 
HETATM   30  C   UNL     1       4.862  32.281  55.799  1.00  0.00     0.011 A 
ENDBRANCH   9  24
TORSDOF 4
ENDMDL
MODEL 8
REMARK VINA RESULT:      -7.7      3.915      7.698
REMARK  4 active torsions:
REMARK  status: ('A' for Active; 'I' for Inactive)
REMARK    1  A    between atoms: C_9  and  C_10 
REMARK    2  A    between atoms: C_17  and  C_18 
REMARK       I    between atoms: C_18  and  N_19 
REMARK    3  A    between atoms: N_19  and  C_20 
REMARK    4  A    between atoms: C_23  and  O_24 
ROOT
HETATM    1  C   UNL     1       4.430  30.921  57.848  1.00  0.00     0.070 C 
HETATM    2  C   UNL     1       5.738  30.224  57.564  1.00  0.00     0.037 C 
HETATM    3  N   UNL     1       6.792  30.577  58.403  1.00  0.00    -0.192 N 
HETATM    4  C   UNL     1       8.076  30.252  58.154  1.00  0.00     0.725 A 
HETATM    5  N   UNL     1       8.363  29.395  57.126  1.00  0.00    -0.084 N 
HETATM    6  N   UNL     1       9.696  29.266  56.953  1.00  0.00    -0.149 NA
HETATM    7  C   UNL     1      10.148  30.029  57.955  1.00  0.00     0.275 A 
HETATM    8  N   UNL     1       9.189  30.650  58.714  1.00  0.00    -0.054 NA
HETATM    9  C   UNL     1       7.350  28.820  56.232  1.00  0.00     0.204 C 
HETATM   10  C   UNL     1       5.958  29.374  56.528  1.00  0.00     0.062 C 
HETATM   11  H   UNL     1       6.612  31.274  59.123  1.00  0.00     0.184 HD
ENDROOT
BRANCH  10  12
HETATM   12  C   UNL     1       4.955  29.067  55.473  1.00  0.00     0.256 C 
HETATM   13  N   UNL     1       5.109  29.789  54.310  1.00  0.00    -0.323 N 
HETATM   14  H   UNL     1       5.815  30.514  54.305  1.00  0.00     0.169 HD
HETATM   15  O   UNL     1       4.082  28.247  55.727  1.00  0.00    -0.267 OA
BRANCH  13  16
HETATM   16  C   UNL     1       4.426  29.578  53.090  1.00  0.00     0.035 A 
HETATM   17  C   UNL     1       3.339  30.341  52.665  1.00  0.00     0.032 A 
HETATM   18  C   UNL     1       2.686  30.040  51.464  1.00  0.00     0.039 A 
HETATM   19  C   UNL     1       3.105  28.976  50.667  1.00  0.00     0.068 A 
HETATM   20  C   UNL     1       4.191  28.208  51.084  1.00  0.00     0.039 A 
HETATM   21  C   UNL     1       4.848  28.510  52.287  1.00  0.00     0.032 A 
BRANCH  19  22
HETATM   22  O   UNL     1       2.373  28.792  49.529  1.00  0.00    -0.356 OA
HETATM   23  C   UNL     1       2.847  29.424  48.348  1.00  0.00     0.210 C 
ENDBRANCH  19  22
ENDBRANCH  13  16
ENDBRANCH  10  12
BRANCH   9  24
HETATM   24  C   UNL     1       7.436  27.294  56.216  1.00  0.00    -0.006 A 
HETATM   25  C   UNL     1       7.569  26.510  55.057  1.00  0.00     0.042 A 
HETATM   26 CL   UNL     1       7.750  27.185  53.478  1.00  0.00    -0.084 Cl
HETATM   27  C   UNL     1       7.581  25.110  55.137  1.00  0.00     0.024 A 
HETATM   28  C   UNL     1       7.480  24.470  56.370  1.00  0.00     0.002 A 
HETATM   29  C   UNL     1       7.376  25.228  57.531  1.00  0.00     0.001 A 
HETATM   30  C   UNL     1       7.355  26.622  57.454  1.00  0.00     0.011 A 
ENDBRANCH   9  24
TORSDOF 4
ENDMDL
MODEL 9
REMARK VINA RESULT:      -7.6      1.999      3.892
REMARK  4 active torsions:
REMARK  status: ('A' for Active; 'I' for Inactive)
REMARK    1  A    between atoms: C_9  and  C_10 
REMARK    2  A    between atoms: C_17  and  C_18 
REMARK       I    between atoms: C_18  and  N_19 
REMARK    3  A    between atoms: N_19  and  C_20 
REMARK    4  A    between atoms: C_23  and  O_24 
ROOT
HETATM    1  C   UNL     1       6.077  28.702  54.838  1.00  0.00     0.070 C 
HETATM    2  C   UNL     1       5.239  28.946  53.606  1.00  0.00     0.037 C 
HETATM    3  N   UNL     1       4.763  30.247  53.461  1.00  0.00    -0.192 N 
HETATM    4  C   UNL     1       3.811  30.590  52.572  1.00  0.00     0.725 A 
HETATM    5  N   UNL     1       3.396  29.671  51.645  1.00  0.00    -0.084 N 
HETATM    6  N   UNL     1       2.368  30.147  50.910  1.00  0.00    -0.149 NA
HETATM    7  C   UNL     1       2.260  31.383  51.411  1.00  0.00     0.275 A 
HETATM    8  N   UNL     1       3.124  31.694  52.429  1.00  0.00    -0.054 NA
HETATM    9  C   UNL     1       3.902  28.295  51.573  1.00  0.00     0.204 C 
HETATM   10  C   UNL     1       4.867  27.990  52.716  1.00  0.00     0.062 C 
HETATM   11  H   UNL     1       4.999  30.921  54.186  1.00  0.00     0.184 HD
ENDROOT
BRANCH  10  12
HETATM   12  C   UNL     1       5.171  26.541  52.872  1.00  0.00     0.256 C 
HETATM   13  N   UNL     1       6.512  26.246  52.975  1.00  0.00    -0.323 N 
HETATM   14  H   UNL     1       7.165  27.009  52.847  1.00  0.00     0.169 HD
HETATM   15  O   UNL     1       4.236  25.750  52.864  1.00  0.00    -0.267 OA
BRANCH  13  16
HETATM   16  C   UNL     1       7.077  24.995  53.311  1.00  0.00     0.035 A 
HETATM   17  C   UNL     1       7.567  24.086  52.375  1.00  0.00     0.032 A 
HETATM   18  C   UNL     1       8.070  22.845  52.784  1.00  0.00     0.039 A 
HETATM   19  C   UNL     1       8.093  22.491  54.132  1.00  0.00     0.068 A 
HETATM   20  C   UNL     1       7.605  23.393  55.075  1.00  0.00     0.039 A 
HETATM   21  C   UNL     1       7.104  24.638  54.666  1.00  0.00     0.032 A 
BRANCH  19  22
HETATM   22  O   UNL     1       8.602  21.249  54.387  1.00  0.00    -0.356 OA
HETATM   23  C   UNL     1       8.729  20.364  53.282  1.00  0.00     0.210 C 
ENDBRANCH  19  22
ENDBRANCH  13  16
ENDBRANCH  10  12
BRANCH   9  24
HETATM   24  C   UNL     1       4.449  27.985  50.180  1.00  0.00    -0.006 A 
HETATM   25  C   UNL     1       5.342  28.805  49.467  1.00  0.00     0.042 A 
HETATM   26 CL   UNL     1       6.024  30.249  50.124  1.00  0.00    -0.084 Cl
HETATM   27  C   UNL     1       5.743  28.466  48.167  1.00  0.00     0.024 A 
HETATM   28  C   UNL     1       5.278  27.299  47.564  1.00  0.00     0.002 A 
HETATM   29  C   UNL     1       4.417  26.461  48.262  1.00  0.00     0.001 A 
HETATM   30  C   UNL     1       4.008  26.800  49.554  1.00  0.00     0.011 A 
ENDBRANCH   9  24
TORSDOF 4
ENDMDL
MODEL 10
REMARK VINA RESULT:      -7.5      3.683      5.580
REMARK  4 active torsions:
REMARK  status: ('A' for Active; 'I' for Inactive)
REMARK    1  A    between atoms: C_9  and  C_10 
REMARK    2  A    between atoms: C_17  and  C_18 
REMARK       I    between atoms: C_18  and  N_19 
REMARK    3  A    between atoms: N_19  and  C_20 
REMARK    4  A    between atoms: C_23  and  O_24 
ROOT
HETATM    1  C   UNL     1       8.931  29.677  57.037  1.00  0.00     0.070 C 
HETATM    2  C   UNL     1       7.435  29.803  56.883  1.00  0.00     0.037 C 
HETATM    3  N   UNL     1       6.822  30.698  57.757  1.00  0.00    -0.192 N 
HETATM    4  C   UNL     1       5.488  30.761  57.936  1.00  0.00     0.725 A 
HETATM    5  N   UNL     1       4.667  30.040  57.112  1.00  0.00    -0.084 N 
HETATM    6  N   UNL     1       3.377  30.136  57.499  1.00  0.00    -0.149 NA
HETATM    7  C   UNL     1       3.493  30.983  58.528  1.00  0.00     0.275 A 
HETATM    8  N   UNL     1       4.768  31.390  58.828  1.00  0.00    -0.054 NA
HETATM    9  C   UNL     1       5.150  29.154  56.045  1.00  0.00     0.204 C 
HETATM   10  C   UNL     1       6.674  29.061  56.038  1.00  0.00     0.062 C 
HETATM   11  H   UNL     1       7.413  31.182  58.429  1.00  0.00     0.184 HD
ENDROOT
BRANCH  10  12
HETATM   12  C   UNL     1       7.202  27.957  55.191  1.00  0.00     0.256 C 
HETATM   13  N   UNL     1       6.887  26.692  55.637  1.00  0.00    -0.323 N 
HETATM   14  H   UNL     1       6.414  26.621  56.530  1.00  0.00     0.169 HD
HETATM   15  O   UNL     1       7.880  28.251  54.214  1.00  0.00    -0.267 OA
BRANCH  13  16
HETATM   16  C   UNL     1       7.093  25.477  54.945  1.00  0.00     0.035 A 
HETATM   17  C   UNL     1       6.537  25.187  53.700  1.00  0.00     0.032 A 
HETATM   18  C   UNL     1       6.750  23.941  53.099  1.00  0.00     0.039 A 
HETATM   19  C   UNL     1       7.522  22.966  53.728  1.00  0.00     0.068 A 
HETATM   20  C   UNL     1       8.082  23.247  54.972  1.00  0.00     0.039 A 
HETATM   21  C   UNL     1       7.871  24.496  55.574  1.00  0.00     0.032 A 
BRANCH  19  22
HETATM   22  O   UNL     1       7.640  21.796  53.032  1.00  0.00    -0.356 OA
HETATM   23  C   UNL     1       8.238  20.699  53.710  1.00  0.00     0.210 C 
ENDBRANCH  19  22
ENDBRANCH  13  16
ENDBRANCH  10  12
BRANCH   9  24
HETATM   24  C   UNL     1       4.530  29.528  54.699  1.00  0.00    -0.006 A 
HETATM   25  C   UNL     1       4.376  30.843  54.223  1.00  0.00     0.042 A 
HETATM   26 CL   UNL     1       4.966  32.226  55.072  1.00  0.00    -0.084 Cl
HETATM   27  C   UNL     1       3.740  31.091  52.999  1.00  0.00     0.024 A 
HETATM   28  C   UNL     1       3.264  30.038  52.222  1.00  0.00     0.002 A 
HETATM   29  C   UNL     1       3.430  28.730  52.661  1.00  0.00     0.001 A 
HETATM   30  C   UNL     1       4.055  28.479  53.884  1.00  0.00     0.011 A 
ENDBRANCH   9  24
TORSDOF 4
ENDMDL
