MODEL 1
REMARK VINA RESULT:      -7.6      0.000      0.000
REMARK  6 active torsions:
REMARK  status: ('A' for Active; 'I' for Inactive)
REMARK    1  A    between atoms: C_2  and  C_3 
REMARK    2  A    between atoms: C_3  and  N_4 
REMARK    3  A    between atoms: C_3  and  C_15 
REMARK       I    between atoms: N_4  and  C_5 
REMARK       I    between atoms: C_5  and  N_6 
REMARK    4  A    between atoms: N_6  and  C_7 
REMARK    5  A    between atoms: C_16  and  O_17 
REMARK    6  A    between atoms: O_17  and  C_18 
ROOT
HETATM    1  N   UNL     1       7.644  25.325  53.842  1.00  0.00    -0.334 N 
HETATM    2  C   UNL     1       7.393  26.531  54.426  1.00  0.00     0.321 C 
HETATM    3  N   UNL     1       6.381  26.519  55.345  1.00  0.00    -0.307 N 
HETATM    4  O   UNL     1       8.097  27.491  54.131  1.00  0.00    -0.247 OA
HETATM    5  H   UNL     1       8.427  25.356  53.205  1.00  0.00     0.165 HD
HETATM    6  H   UNL     1       6.398  25.670  55.898  1.00  0.00     0.170 HD
ENDROOT
BRANCH   1   7
HETATM    7  C   UNL     1       6.724  24.195  53.704  1.00  0.00     0.122 C 
BRANCH   7   8
HETATM    8  C   UNL     1       5.895  24.353  52.406  1.00  0.00     0.026 C 
HETATM    9  C   UNL     1       4.520  24.996  52.580  1.00  0.00     0.007 C 
ENDBRANCH   7   8
BRANCH   7  10
HETATM   10  C   UNL     1       7.456  22.876  53.936  1.00  0.00    -0.002 A 
HETATM   11  C   UNL     1       7.809  22.496  55.251  1.00  0.00     0.077 A 
HETATM   12  C   UNL     1       8.442  21.270  55.493  1.00  0.00     0.037 A 
HETATM   13  C   UNL     1       8.747  20.415  54.436  1.00  0.00     0.003 A 
HETATM   14  C   UNL     1       8.405  20.771  53.138  1.00  0.00     0.001 A 
HETATM   15  C   UNL     1       7.760  21.986  52.891  1.00  0.00     0.012 A 
BRANCH  11  16
HETATM   16  O   UNL     1       7.440  23.345  56.270  1.00  0.00    -0.351 OA
BRANCH  16  17
HETATM   17  C   UNL     1       8.361  23.417  57.364  1.00  0.00     0.171 C 
HETATM   18  C   UNL     1       9.059  24.764  57.306  1.00  0.00     0.034 C 
ENDBRANCH  16  17
ENDBRANCH  11  16
ENDBRANCH   7  10
ENDBRANCH   1   7
BRANCH   3  19
HETATM   19  C   UNL     1       5.776  27.641  55.953  1.00  0.00     0.059 A 
HETATM   20  C   UNL     1       6.287  28.357  57.047  1.00  0.00    -0.032 A 
HETATM   21  C   UNL     1       7.594  28.060  57.726  1.00  0.00     0.050 C 
HETATM   22  C   UNL     1       5.541  29.446  57.532  1.00  0.00     0.028 A 
HETATM   23  C   UNL     1       4.370  29.817  56.891  1.00  0.00     0.117 A 
HETATM   24  N   UNL     1       3.885  29.189  55.805  1.00  0.00    -0.271 NA
HETATM   25  C   UNL     1       4.600  28.123  55.368  1.00  0.00     0.146 A 
ENDBRANCH   3  19
TORSDOF 6
ENDMDL
MODEL 2
REMARK VINA RESULT:      -7.5      2.503      3.886
REMARK  6 active torsions:
REMARK  status: ('A' for Active; 'I' for Inactive)
REMARK    1  A    between atoms: C_2  and  C_3 
REMARK    2  A    between atoms: C_3  and  N_4 
REMARK    3  A    between atoms: C_3  and  C_15 
REMARK       I    between atoms: N_4  and  C_5 
REMARK       I    between atoms: C_5  and  N_6 
REMARK    4  A    between atoms: N_6  and  C_7 
REMARK    5  A    between atoms: C_16  and  O_17 
REMARK    6  A    between atoms: O_17  and  C_18 
ROOT
HETATM    1  N   UNL     1       7.387  26.664  55.471  1.00  0.00    -0.334 N 
HETATM    2  C   UNL     1       7.560  27.952  55.885  1.00  0.00     0.321 C 
HETATM    3  N   UNL     1       8.455  28.106  56.907  1.00  0.00    -0.307 N 
HETATM    4  O   UNL     1       6.960  28.848  55.302  1.00  0.00    -0.247 OA
HETATM    5  H   UNL     1       6.758  26.589  54.684  1.00  0.00     0.165 HD
HETATM    6  H   UNL     1       9.250  27.488  56.794  1.00  0.00     0.170 HD
ENDROOT
BRANCH   1   7
HETATM    7  C   UNL     1       7.636  25.442  56.237  1.00  0.00     0.122 C 
BRANCH   7   8
HETATM    8  C   UNL     1       6.522  25.256  57.296  1.00  0.00     0.026 C 
HETATM    9  C   UNL     1       5.099  25.501  56.799  1.00  0.00     0.007 C 
ENDBRANCH   7   8
BRANCH   7  10
HETATM   10  C   UNL     1       7.945  24.276  55.303  1.00  0.00    -0.002 A 
HETATM   11  C   UNL     1       7.301  24.201  54.045  1.00  0.00     0.077 A 
HETATM   12  C   UNL     1       7.602  23.165  53.152  1.00  0.00     0.037 A 
HETATM   13  C   UNL     1       8.526  22.182  53.499  1.00  0.00     0.003 A 
HETATM   14  C   UNL     1       9.169  22.242  54.729  1.00  0.00     0.001 A 
HETATM   15  C   UNL     1       8.886  23.281  55.619  1.00  0.00     0.012 A 
BRANCH  11  16
HETATM   16  O   UNL     1       6.436  25.222  53.722  1.00  0.00    -0.351 OA
BRANCH  16  17
HETATM   17  C   UNL     1       5.220  24.809  53.089  1.00  0.00     0.171 C 
HETATM   18  C   UNL     1       5.129  25.502  51.742  1.00  0.00     0.034 C 
ENDBRANCH  16  17
ENDBRANCH  11  16
ENDBRANCH   7  10
ENDBRANCH   1   7
BRANCH   3  19
HETATM   19  C   UNL     1       8.685  29.277  57.661  1.00  0.00     0.059 A 
HETATM   20  C   UNL     1       9.878  30.016  57.689  1.00  0.00    -0.032 A 
HETATM   21  C   UNL     1      11.101  29.691  56.878  1.00  0.00     0.050 C 
HETATM   22  C   UNL     1       9.934  31.155  58.511  1.00  0.00     0.028 A 
HETATM   23  C   UNL     1       8.808  31.549  59.216  1.00  0.00     0.117 A 
HETATM   24  N   UNL     1       7.632  30.897  59.164  1.00  0.00    -0.271 NA
HETATM   25  C   UNL     1       7.604  29.785  58.391  1.00  0.00     0.146 A 
ENDBRANCH   3  19
TORSDOF 6
ENDMDL
MODEL 3
REMARK VINA RESULT:      -7.5      0.792      1.581
REMARK  6 active torsions:
REMARK  status: ('A' for Active; 'I' for Inactive)
REMARK    1  A    between atoms: C_2  and  C_3 
REMARK    2  A    between atoms: C_3  and  N_4 
REMARK    3  A    between atoms: C_3  and  C_15 
REMARK       I    between atoms: N_4  and  C_5 
REMARK       I    between atoms: C_5  and  N_6 
REMARK    4  A    between atoms: N_6  and  C_7 
REMARK    5  A    between atoms: C_16  and  O_17 
REMARK    6  A    between atoms: O_17  and  C_18 
ROOT
HETATM    1  N   UNL     1       7.646  25.517  54.014  1.00  0.00    -0.334 N 
HETATM    2  C   UNL     1       7.285  26.739  54.500  1.00  0.00     0.321 C 
HETATM    3  N   UNL     1       6.103  26.751  55.187  1.00  0.00    -0.307 N 
HETATM    4  O   UNL     1       8.040  27.690  54.335  1.00  0.00    -0.247 OA
HETATM    5  H   UNL     1       8.546  25.531  53.555  1.00  0.00     0.165 HD
HETATM    6  H   UNL     1       5.999  25.918  55.754  1.00  0.00     0.170 HD
ENDROOT
BRANCH   1   7
HETATM    7  C   UNL     1       6.769  24.383  53.716  1.00  0.00     0.122 C 
BRANCH   7   8
HETATM    8  C   UNL     1       6.111  24.584  52.329  1.00  0.00     0.026 C 
HETATM    9  C   UNL     1       4.595  24.778  52.345  1.00  0.00     0.007 C 
ENDBRANCH   7   8
BRANCH   7  10
HETATM   10  C   UNL     1       7.486  23.065  53.989  1.00  0.00    -0.002 A 
HETATM   11  C   UNL     1       7.830  22.719  55.317  1.00  0.00     0.077 A 
HETATM   12  C   UNL     1       8.448  21.494  55.597  1.00  0.00     0.037 A 
HETATM   13  C   UNL     1       8.749  20.605  54.567  1.00  0.00     0.003 A 
HETATM   14  C   UNL     1       8.417  20.928  53.258  1.00  0.00     0.001 A 
HETATM   15  C   UNL     1       7.785  22.141  52.972  1.00  0.00     0.012 A 
BRANCH  11  16
HETATM   16  O   UNL     1       7.466  23.601  56.309  1.00  0.00    -0.351 OA
BRANCH  16  17
HETATM   17  C   UNL     1       8.522  23.990  57.193  1.00  0.00     0.171 C 
HETATM   18  C   UNL     1       8.231  25.396  57.689  1.00  0.00     0.034 C 
ENDBRANCH  16  17
ENDBRANCH  11  16
ENDBRANCH   7  10
ENDBRANCH   1   7
BRANCH   3  19
HETATM   19  C   UNL     1       5.390  27.889  55.625  1.00  0.00     0.059 A 
HETATM   20  C   UNL     1       4.409  28.576  54.894  1.00  0.00    -0.032 A 
HETATM   21  C   UNL     1       3.930  28.178  53.526  1.00  0.00     0.050 C 
HETATM   22  C   UNL     1       3.808  29.702  55.484  1.00  0.00     0.028 A 
HETATM   23  C   UNL     1       4.152  30.064  56.777  1.00  0.00     0.117 A 
HETATM   24  N   UNL     1       5.044  29.392  57.526  1.00  0.00    -0.271 NA
HETATM   25  C   UNL     1       5.635  28.327  56.932  1.00  0.00     0.146 A 
ENDBRANCH   3  19
TORSDOF 6
ENDMDL
MODEL 4
REMARK VINA RESULT:      -7.2      1.655      3.501
REMARK  6 active torsions:
REMARK  status: ('A' for Active; 'I' for Inactive)
REMARK    1  A    between atoms: C_2  and  C_3 
REMARK    2  A    between atoms: C_3  and  N_4 
REMARK    3  A    between atoms: C_3  and  C_15 
REMARK       I    between atoms: N_4  and  C_5 
REMARK       I    between atoms: C_5  and  N_6 
REMARK    4  A    between atoms: N_6  and  C_7 
REMARK    5  A    between atoms: C_16  and  O_17 
REMARK    6  A    between atoms: O_17  and  C_18 
ROOT
HETATM    1  N   UNL     1       6.328  24.216  56.308  1.00  0.00    -0.334 N 
HETATM    2  C   UNL     1       5.825  25.451  56.591  1.00  0.00     0.321 C 
HETATM    3  N   UNL     1       6.582  26.493  56.131  1.00  0.00    -0.307 N 
HETATM    4  O   UNL     1       4.749  25.536  57.172  1.00  0.00    -0.247 OA
HETATM    5  H   UNL     1       5.722  23.468  56.618  1.00  0.00     0.165 HD
HETATM    6  H   UNL     1       6.969  26.289  55.217  1.00  0.00     0.170 HD
ENDROOT
BRANCH   1   7
HETATM    7  C   UNL     1       7.721  23.865  56.027  1.00  0.00     0.122 C 
BRANCH   7   8
HETATM    8  C   UNL     1       8.490  23.685  57.359  1.00  0.00     0.026 C 
HETATM    9  C   UNL     1       9.371  24.864  57.770  1.00  0.00     0.007 C 
ENDBRANCH   7   8
BRANCH   7  10
HETATM   10  C   UNL     1       7.794  22.743  54.996  1.00  0.00    -0.002 A 
HETATM   11  C   UNL     1       7.824  23.062  53.618  1.00  0.00     0.077 A 
HETATM   12  C   UNL     1       7.937  22.051  52.655  1.00  0.00     0.037 A 
HETATM   13  C   UNL     1       8.002  20.715  53.042  1.00  0.00     0.003 A 
HETATM   14  C   UNL     1       7.975  20.383  54.390  1.00  0.00     0.001 A 
HETATM   15  C   UNL     1       7.879  21.387  55.358  1.00  0.00     0.012 A 
BRANCH  11  16
HETATM   16  O   UNL     1       7.812  24.397  53.284  1.00  0.00    -0.351 OA
BRANCH  16  17
HETATM   17  C   UNL     1       6.890  24.756  52.251  1.00  0.00     0.171 C 
HETATM   18  C   UNL     1       5.504  24.850  52.864  1.00  0.00     0.034 C 
ENDBRANCH  16  17
ENDBRANCH  11  16
ENDBRANCH   7  10
ENDBRANCH   1   7
BRANCH   3  19
HETATM   19  C   UNL     1       6.418  27.861  56.441  1.00  0.00     0.059 A 
HETATM   20  C   UNL     1       5.559  28.755  55.784  1.00  0.00    -0.032 A 
HETATM   21  C   UNL     1       4.639  28.381  54.657  1.00  0.00     0.050 C 
HETATM   22  C   UNL     1       5.532  30.091  56.221  1.00  0.00     0.028 A 
HETATM   23  C   UNL     1       6.299  30.472  57.311  1.00  0.00     0.117 A 
HETATM   24  N   UNL     1       7.086  29.626  57.999  1.00  0.00    -0.271 NA
HETATM   25  C   UNL     1       7.123  28.349  57.547  1.00  0.00     0.146 A 
ENDBRANCH   3  19
TORSDOF 6
ENDMDL
MODEL 5
REMARK VINA RESULT:      -7.1      2.421      7.080
REMARK  6 active torsions:
REMARK  status: ('A' for Active; 'I' for Inactive)
REMARK    1  A    between atoms: C_2  and  C_3 
REMARK    2  A    between atoms: C_3  and  N_4 
REMARK    3  A    between atoms: C_3  and  C_15 
REMARK       I    between atoms: N_4  and  C_5 
REMARK       I    between atoms: C_5  and  N_6 
REMARK    4  A    between atoms: N_6  and  C_7 
REMARK    5  A    between atoms: C_16  and  O_17 
REMARK    6  A    between atoms: O_17  and  C_18 
ROOT
HETATM    1  N   UNL     1       7.200  27.089  56.928  1.00  0.00    -0.334 N 
HETATM    2  C   UNL     1       7.059  25.735  56.858  1.00  0.00     0.321 C 
HETATM    3  N   UNL     1       8.031  25.097  56.138  1.00  0.00    -0.307 N 
HETATM    4  O   UNL     1       6.134  25.202  57.462  1.00  0.00    -0.247 OA
HETATM    5  H   UNL     1       6.495  27.525  57.507  1.00  0.00     0.165 HD
HETATM    6  H   UNL     1       8.940  25.514  56.300  1.00  0.00     0.170 HD
ENDROOT
BRANCH   1   7
HETATM    7  C   UNL     1       7.921  27.958  55.997  1.00  0.00     0.122 C 
BRANCH   7   8
HETATM    8  C   UNL     1       6.960  28.436  54.881  1.00  0.00     0.026 C 
HETATM    9  C   UNL     1       7.127  27.741  53.530  1.00  0.00     0.007 C 
ENDBRANCH   7   8
BRANCH   7  10
HETATM   10  C   UNL     1       8.724  29.010  56.756  1.00  0.00    -0.002 A 
HETATM   11  C   UNL     1       8.084  29.797  57.742  1.00  0.00     0.077 A 
HETATM   12  C   UNL     1       8.811  30.738  58.483  1.00  0.00     0.037 A 
HETATM   13  C   UNL     1      10.171  30.923  58.246  1.00  0.00     0.003 A 
HETATM   14  C   UNL     1      10.815  30.158  57.283  1.00  0.00     0.001 A 
HETATM   15  C   UNL     1      10.101  29.206  56.550  1.00  0.00     0.012 A 
BRANCH  11  16
HETATM   16  O   UNL     1       6.753  29.543  57.982  1.00  0.00    -0.351 OA
BRANCH  16  17
HETATM   17  C   UNL     1       5.876  30.653  57.769  1.00  0.00     0.171 C 
HETATM   18  C   UNL     1       4.539  30.116  57.290  1.00  0.00     0.034 C 
ENDBRANCH  16  17
ENDBRANCH  11  16
ENDBRANCH   7  10
ENDBRANCH   1   7
BRANCH   3  19
HETATM   19  C   UNL     1       8.035  23.744  55.734  1.00  0.00     0.059 A 
HETATM   20  C   UNL     1       7.799  23.275  54.432  1.00  0.00    -0.032 A 
HETATM   21  C   UNL     1       7.538  24.155  53.243  1.00  0.00     0.050 C 
HETATM   22  C   UNL     1       7.830  21.886  54.212  1.00  0.00     0.028 A 
HETATM   23  C   UNL     1       8.149  21.033  55.257  1.00  0.00     0.117 A 
HETATM   24  N   UNL     1       8.439  21.455  56.500  1.00  0.00    -0.271 NA
HETATM   25  C   UNL     1       8.376  22.793  56.703  1.00  0.00     0.146 A 
ENDBRANCH   3  19
TORSDOF 6
ENDMDL
MODEL 6
REMARK VINA RESULT:      -7.1      2.172      3.503
REMARK  6 active torsions:
REMARK  status: ('A' for Active; 'I' for Inactive)
REMARK    1  A    between atoms: C_2  and  C_3 
REMARK    2  A    between atoms: C_3  and  N_4 
REMARK    3  A    between atoms: C_3  and  C_15 
REMARK       I    between atoms: N_4  and  C_5 
REMARK       I    between atoms: C_5  and  N_6 
REMARK    4  A    between atoms: N_6  and  C_7 
REMARK    5  A    between atoms: C_16  and  O_17 
REMARK    6  A    between atoms: O_17  and  C_18 
ROOT
HETATM    1  N   UNL     1       7.523  26.397  54.715  1.00  0.00    -0.334 N 
HETATM    2  C   UNL     1       7.645  27.680  55.161  1.00  0.00     0.321 C 
HETATM    3  N   UNL     1       7.846  27.798  56.509  1.00  0.00    -0.307 N 
HETATM    4  O   UNL     1       7.617  28.597  54.347  1.00  0.00    -0.247 OA
HETATM    5  H   UNL     1       7.426  26.342  53.711  1.00  0.00     0.165 HD
HETATM    6  H   UNL     1       8.461  27.070  56.853  1.00  0.00     0.170 HD
ENDROOT
BRANCH   1   7
HETATM    7  C   UNL     1       7.112  25.223  55.486  1.00  0.00     0.122 C 
BRANCH   7   8
HETATM    8  C   UNL     1       5.585  25.275  55.738  1.00  0.00     0.026 C 
HETATM    9  C   UNL     1       5.166  25.376  57.204  1.00  0.00     0.007 C 
ENDBRANCH   7   8
BRANCH   7  10
HETATM   10  C   UNL     1       7.700  23.952  54.881  1.00  0.00    -0.002 A 
HETATM   11  C   UNL     1       7.288  23.537  53.593  1.00  0.00     0.077 A 
HETATM   12  C   UNL     1       7.847  22.398  52.999  1.00  0.00     0.037 A 
HETATM   13  C   UNL     1       8.804  21.647  53.678  1.00  0.00     0.003 A 
HETATM   14  C   UNL     1       9.221  22.041  54.943  1.00  0.00     0.001 A 
HETATM   15  C   UNL     1       8.680  23.185  55.536  1.00  0.00     0.012 A 
BRANCH  11  16
HETATM   16  O   UNL     1       6.381  24.337  52.937  1.00  0.00    -0.351 OA
BRANCH  16  17
HETATM   17  C   UNL     1       6.894  25.021  51.789  1.00  0.00     0.171 C 
HETATM   18  C   UNL     1       5.817  25.960  51.276  1.00  0.00     0.034 C 
ENDBRANCH  16  17
ENDBRANCH  11  16
ENDBRANCH   7  10
ENDBRANCH   1   7
BRANCH   3  19
HETATM   19  C   UNL     1       7.809  28.987  57.269  1.00  0.00     0.059 A 
HETATM   20  C   UNL     1       6.652  29.674  57.666  1.00  0.00    -0.032 A 
HETATM   21  C   UNL     1       5.249  29.223  57.371  1.00  0.00     0.050 C 
HETATM   22  C   UNL     1       6.804  30.855  58.413  1.00  0.00     0.028 A 
HETATM   23  C   UNL     1       8.073  31.273  58.786  1.00  0.00     0.117 A 
HETATM   24  N   UNL     1       9.198  30.605  58.473  1.00  0.00    -0.271 NA
HETATM   25  C   UNL     1       9.035  29.485  57.727  1.00  0.00     0.146 A 
ENDBRANCH   3  19
TORSDOF 6
ENDMDL
MODEL 7
REMARK VINA RESULT:      -7.0      2.255      7.184
REMARK  6 active torsions:
REMARK  status: ('A' for Active; 'I' for Inactive)
REMARK    1  A    between atoms: C_2  and  C_3 
REMARK    2  A    between atoms: C_3  and  N_4 
REMARK    3  A    between atoms: C_3  and  C_15 
REMARK       I    between atoms: N_4  and  C_5 
REMARK       I    between atoms: C_5  and  N_6 
REMARK    4  A    between atoms: N_6  and  C_7 
REMARK    5  A    between atoms: C_16  and  O_17 
REMARK    6  A    between atoms: O_17  and  C_18 
ROOT
HETATM    1  N   UNL     1       5.959  27.036  57.066  1.00  0.00    -0.334 N 
HETATM    2  C   UNL     1       6.032  25.694  56.838  1.00  0.00     0.321 C 
HETATM    3  N   UNL     1       7.251  25.256  56.400  1.00  0.00    -0.307 N 
HETATM    4  O   UNL     1       5.052  24.996  57.078  1.00  0.00    -0.247 OA
HETATM    5  H   UNL     1       5.061  27.320  57.434  1.00  0.00     0.165 HD
HETATM    6  H   UNL     1       8.005  25.742  56.870  1.00  0.00     0.170 HD
ENDROOT
BRANCH   1   7
HETATM    7  C   UNL     1       6.796  28.084  56.481  1.00  0.00     0.122 C 
BRANCH   7   8
HETATM    8  C   UNL     1       6.494  28.208  54.968  1.00  0.00     0.026 C 
HETATM    9  C   UNL     1       7.694  28.012  54.042  1.00  0.00     0.007 C 
ENDBRANCH   7   8
BRANCH   7  10
HETATM   10  C   UNL     1       6.744  29.349  57.333  1.00  0.00    -0.002 A 
HETATM   11  C   UNL     1       7.893  29.755  58.052  1.00  0.00     0.077 A 
HETATM   12  C   UNL     1       7.882  30.936  58.804  1.00  0.00     0.037 A 
HETATM   13  C   UNL     1       6.732  31.720  58.868  1.00  0.00     0.003 A 
HETATM   14  C   UNL     1       5.595  31.337  58.168  1.00  0.00     0.001 A 
HETATM   15  C   UNL     1       5.603  30.168  57.402  1.00  0.00     0.012 A 
BRANCH  11  16
HETATM   16  O   UNL     1       9.023  28.981  57.916  1.00  0.00    -0.351 OA
BRANCH  16  17
HETATM   17  C   UNL     1      10.212  29.699  57.574  1.00  0.00     0.171 C 
HETATM   18  C   UNL     1      10.299  29.779  56.060  1.00  0.00     0.034 C 
ENDBRANCH  16  17
ENDBRANCH  11  16
ENDBRANCH   7  10
ENDBRANCH   1   7
BRANCH   3  19
HETATM   19  C   UNL     1       7.560  23.972  55.900  1.00  0.00     0.059 A 
HETATM   20  C   UNL     1       7.344  23.527  54.587  1.00  0.00    -0.032 A 
HETATM   21  C   UNL     1       6.775  24.373  53.483  1.00  0.00     0.050 C 
HETATM   22  C   UNL     1       7.703  22.206  54.267  1.00  0.00     0.028 A 
HETATM   23  C   UNL     1       8.309  21.408  55.225  1.00  0.00     0.117 A 
HETATM   24  N   UNL     1       8.585  21.824  56.473  1.00  0.00    -0.271 NA
HETATM   25  C   UNL     1       8.206  23.089  56.775  1.00  0.00     0.146 A 
ENDBRANCH   3  19
TORSDOF 6
ENDMDL
MODEL 8
REMARK VINA RESULT:      -6.9      6.065     10.590
REMARK  6 active torsions:
REMARK  status: ('A' for Active; 'I' for Inactive)
REMARK    1  A    between atoms: C_2  and  C_3 
REMARK    2  A    between atoms: C_3  and  N_4 
REMARK    3  A    between atoms: C_3  and  C_15 
REMARK       I    between atoms: N_4  and  C_5 
REMARK       I    between atoms: C_5  and  N_6 
REMARK    4  A    between atoms: N_6  and  C_7 
REMARK    5  A    between atoms: C_16  and  O_17 
REMARK    6  A    between atoms: O_17  and  C_18 
ROOT
HETATM    1  N   UNL     1       8.288  32.275  61.013  1.00  0.00    -0.334 N 
HETATM    2  C   UNL     1       8.066  32.074  59.683  1.00  0.00     0.321 C 
HETATM    3  N   UNL     1       6.815  31.614  59.377  1.00  0.00    -0.307 N 
HETATM    4  O   UNL     1       8.953  32.353  58.884  1.00  0.00    -0.247 OA
HETATM    5  H   UNL     1       9.203  32.661  61.201  1.00  0.00     0.165 HD
HETATM    6  H   UNL     1       6.111  32.054  59.958  1.00  0.00     0.170 HD
ENDROOT
BRANCH   1   7
HETATM    7  C   UNL     1       7.591  31.648  62.136  1.00  0.00     0.122 C 
BRANCH   7   8
HETATM    8  C   UNL     1       8.474  30.527  62.736  1.00  0.00     0.026 C 
HETATM    9  C   UNL     1       9.777  30.249  61.989  1.00  0.00     0.007 C 
ENDBRANCH   7   8
BRANCH   7  10
HETATM   10  C   UNL     1       7.032  32.708  63.080  1.00  0.00    -0.002 A 
HETATM   11  C   UNL     1       5.862  33.417  62.719  1.00  0.00     0.077 A 
HETATM   12  C   UNL     1       5.306  34.363  63.590  1.00  0.00     0.037 A 
HETATM   13  C   UNL     1       5.908  34.631  64.817  1.00  0.00     0.003 A 
HETATM   14  C   UNL     1       7.055  33.943  65.188  1.00  0.00     0.001 A 
HETATM   15  C   UNL     1       7.608  32.986  64.332  1.00  0.00     0.012 A 
BRANCH  11  16
HETATM   16  O   UNL     1       5.270  33.082  61.523  1.00  0.00    -0.351 OA
BRANCH  16  17
HETATM   17  C   UNL     1       3.954  32.529  61.630  1.00  0.00     0.171 C 
HETATM   18  C   UNL     1       3.151  32.978  60.423  1.00  0.00     0.034 C 
ENDBRANCH  16  17
ENDBRANCH  11  16
ENDBRANCH   7  10
ENDBRANCH   1   7
BRANCH   3  19
HETATM   19  C   UNL     1       6.372  31.133  58.126  1.00  0.00     0.059 A 
HETATM   20  C   UNL     1       6.776  29.936  57.515  1.00  0.00    -0.032 A 
HETATM   21  C   UNL     1       7.729  28.947  58.124  1.00  0.00     0.050 C 
HETATM   22  C   UNL     1       6.238  29.620  56.255  1.00  0.00     0.028 A 
HETATM   23  C   UNL     1       5.291  30.456  55.683  1.00  0.00     0.117 A 
HETATM   24  N   UNL     1       4.839  31.578  56.270  1.00  0.00    -0.271 NA
HETATM   25  C   UNL     1       5.389  31.883  57.470  1.00  0.00     0.146 A 
ENDBRANCH   3  19
TORSDOF 6
ENDMDL
MODEL 9
REMARK VINA RESULT:      -6.9      2.333      3.445
REMARK  6 active torsions:
REMARK  status: ('A' for Active; 'I' for Inactive)
REMARK    1  A    between atoms: C_2  and  C_3 
REMARK    2  A    between atoms: C_3  and  N_4 
REMARK    3  A    between atoms: C_3  and  C_15 
REMARK       I    between atoms: N_4  and  C_5 
REMARK       I    between atoms: C_5  and  N_6 
REMARK    4  A    between atoms: N_6  and  C_7 
REMARK    5  A    between atoms: C_16  and  O_17 
REMARK    6  A    between atoms: O_17  and  C_18 
ROOT
HETATM    1  N   UNL     1       8.231  27.969  54.841  1.00  0.00    -0.334 N 
HETATM    2  C   UNL     1       8.423  28.944  55.774  1.00  0.00     0.321 C 
HETATM    3  N   UNL     1       7.538  28.917  56.816  1.00  0.00    -0.307 N 
HETATM    4  O   UNL     1       9.368  29.714  55.643  1.00  0.00    -0.247 OA
HETATM    5  H   UNL     1       8.930  27.986  54.111  1.00  0.00     0.165 HD
HETATM    6  H   UNL     1       7.331  27.966  57.097  1.00  0.00     0.170 HD
ENDROOT
BRANCH   1   7
HETATM    7  C   UNL     1       6.993  27.243  54.555  1.00  0.00     0.122 C 
BRANCH   7   8
HETATM    8  C   UNL     1       5.995  28.181  53.833  1.00  0.00     0.026 C 
HETATM    9  C   UNL     1       4.579  28.196  54.406  1.00  0.00     0.007 C 
ENDBRANCH   7   8
BRANCH   7  10
HETATM   10  C   UNL     1       7.300  25.890  53.919  1.00  0.00    -0.002 A 
HETATM   11  C   UNL     1       7.272  24.722  54.717  1.00  0.00     0.077 A 
HETATM   12  C   UNL     1       7.506  23.465  54.146  1.00  0.00     0.037 A 
HETATM   13  C   UNL     1       7.787  23.349  52.787  1.00  0.00     0.003 A 
HETATM   14  C   UNL     1       7.816  24.485  51.989  1.00  0.00     0.001 A 
HETATM   15  C   UNL     1       7.568  25.742  52.547  1.00  0.00     0.012 A 
BRANCH  11  16
HETATM   16  O   UNL     1       6.937  24.876  56.043  1.00  0.00    -0.351 OA
BRANCH  16  17
HETATM   17  C   UNL     1       7.659  24.040  56.953  1.00  0.00     0.171 C 
HETATM   18  C   UNL     1       8.921  24.773  57.370  1.00  0.00     0.034 C 
ENDBRANCH  16  17
ENDBRANCH  11  16
ENDBRANCH   7  10
ENDBRANCH   1   7
BRANCH   3  19
HETATM   19  C   UNL     1       7.371  29.905  57.811  1.00  0.00     0.059 A 
HETATM   20  C   UNL     1       6.384  30.903  57.821  1.00  0.00    -0.032 A 
HETATM   21  C   UNL     1       5.313  31.053  56.778  1.00  0.00     0.050 C 
HETATM   22  C   UNL     1       6.374  31.816  58.891  1.00  0.00     0.028 A 
HETATM   23  C   UNL     1       7.287  31.672  59.924  1.00  0.00     0.117 A 
HETATM   24  N   UNL     1       8.206  30.692  59.974  1.00  0.00    -0.271 NA
HETATM   25  C   UNL     1       8.221  29.839  58.921  1.00  0.00     0.146 A 
ENDBRANCH   3  19
TORSDOF 6
ENDMDL
MODEL 10
REMARK VINA RESULT:      -6.8      2.098      6.521
REMARK  6 active torsions:
REMARK  status: ('A' for Active; 'I' for Inactive)
REMARK    1  A    between atoms: C_2  and  C_3 
REMARK    2  A    between atoms: C_3  and  N_4 
REMARK    3  A    between atoms: C_3  and  C_15 
REMARK       I    between atoms: N_4  and  C_5 
REMARK       I    between atoms: C_5  and  N_6 
REMARK    4  A    between atoms: N_6  and  C_7 
REMARK    5  A    between atoms: C_16  and  O_17 
REMARK    6  A    between atoms: O_17  and  C_18 
ROOT
HETATM    1  N   UNL     1       4.532  26.820  53.574  1.00  0.00    -0.334 N 
HETATM    2  C   UNL     1       4.985  25.534  53.591  1.00  0.00     0.321 C 
HETATM    3  N   UNL     1       6.171  25.358  54.247  1.00  0.00    -0.307 N 
HETATM    4  O   UNL     1       4.299  24.656  53.080  1.00  0.00    -0.247 OA
HETATM    5  H   UNL     1       3.631  26.909  53.125  1.00  0.00     0.165 HD
HETATM    6  H   UNL     1       6.220  25.935  55.079  1.00  0.00     0.170 HD
ENDROOT
BRANCH   1   7
HETATM    7  C   UNL     1       5.321  28.044  53.722  1.00  0.00     0.122 C 
BRANCH   7   8
HETATM    8  C   UNL     1       5.340  28.816  52.380  1.00  0.00     0.026 C 
HETATM    9  C   UNL     1       4.159  28.543  51.450  1.00  0.00     0.007 C 
ENDBRANCH   7   8
BRANCH   7  10
HETATM   10  C   UNL     1       4.909  28.799  54.982  1.00  0.00    -0.002 A 
HETATM   11  C   UNL     1       5.503  28.464  56.221  1.00  0.00     0.077 A 
HETATM   12  C   UNL     1       5.174  29.173  57.384  1.00  0.00     0.037 A 
HETATM   13  C   UNL     1       4.241  30.207  57.337  1.00  0.00     0.003 A 
HETATM   14  C   UNL     1       3.649  30.550  56.129  1.00  0.00     0.001 A 
HETATM   15  C   UNL     1       3.985  29.858  54.961  1.00  0.00     0.012 A 
BRANCH  11  16
HETATM   16  O   UNL     1       6.459  27.474  56.211  1.00  0.00    -0.351 OA
BRANCH  16  17
HETATM   17  C   UNL     1       7.368  27.496  57.316  1.00  0.00     0.171 C 
HETATM   18  C   UNL     1       7.577  26.068  57.787  1.00  0.00     0.034 C 
ENDBRANCH  16  17
ENDBRANCH  11  16
ENDBRANCH   7  10
ENDBRANCH   1   7
BRANCH   3  19
HETATM   19  C   UNL     1       6.969  24.192  54.257  1.00  0.00     0.059 A 
HETATM   20  C   UNL     1       7.813  23.766  53.220  1.00  0.00    -0.032 A 
HETATM   21  C   UNL     1       8.031  24.514  51.935  1.00  0.00     0.050 C 
HETATM   22  C   UNL     1       8.527  22.568  53.396  1.00  0.00     0.028 A 
HETATM   23  C   UNL     1       8.428  21.880  54.596  1.00  0.00     0.117 A 
HETATM   24  N   UNL     1       7.676  22.294  55.631  1.00  0.00    -0.271 NA
HETATM   25  C   UNL     1       6.971  23.434  55.433  1.00  0.00     0.146 A 
ENDBRANCH   3  19
TORSDOF 6
ENDMDL
