MODEL 1
REMARK VINA RESULT:      -8.9      0.000      0.000
REMARK  6 active torsions:
REMARK  status: ('A' for Active; 'I' for Inactive)
REMARK    1  A    between atoms: C_2  and  N_3 
REMARK    2  A    between atoms: C_5  and  C_6 
REMARK    3  A    between atoms: C_6  and  N_7 
REMARK       I    between atoms: N_7  and  C_8 
REMARK    4  A    between atoms: C_8  and  C_9 
REMARK    5  A    between atoms: C_9  and  C_10 
REMARK    6  A    between atoms: C_11  and  C_12 
ROOT
HETATM    1  C   UNL     1       6.455  26.334  53.062  1.00  0.00     0.006 C 
HETATM    2  C   UNL     1       6.234  24.907  53.108  1.00  0.00     0.096 C 
HETATM    3  N   UNL     1       5.050  24.622  52.538  1.00  0.00    -0.173 NA
HETATM    4  N   UNL     1       4.621  25.759  51.997  1.00  0.00    -0.282 N 
HETATM    5  H   UNL     1       3.776  25.732  51.434  1.00  0.00     0.189 HD
HETATM    6  C   UNL     1       5.402  26.831  52.303  1.00  0.00     0.033 C 
HETATM    7  C   UNL     1       5.075  28.187  51.798  1.00  0.00     0.070 C 
ENDROOT
BRANCH   1   8
HETATM    8  C   UNL     1       7.556  27.162  53.642  1.00  0.00     0.146 C 
BRANCH   8   9
HETATM    9  C   UNL     1       7.136  27.742  54.987  1.00  0.00     0.222 C 
HETATM   10  N   UNL     1       7.588  29.011  55.270  1.00  0.00    -0.359 N 
HETATM   11  H   UNL     1       8.278  29.420  54.649  1.00  0.00     0.162 HD
HETATM   12  O   UNL     1       6.367  27.178  55.767  1.00  0.00    -0.273 OA
BRANCH  10  13
HETATM   13  C   UNL     1       7.324  29.677  56.541  1.00  0.00     0.155 C 
BRANCH  13  14
HETATM   14  C   UNL     1       8.427  29.545  57.627  1.00  0.00     0.206 C 
HETATM   15  N   UNL     1       8.784  30.895  58.246  1.00  0.00    -0.066 N 
HETATM   16  H   UNL     1       8.328  31.624  57.658  1.00  0.00     0.280 HD
HETATM   17  C   UNL     1      10.272  31.100  58.084  1.00  0.00     0.235 C 
HETATM   18  C   UNL     1      10.638  30.215  56.914  1.00  0.00     0.030 C 
HETATM   19  C   UNL     1       9.756  28.998  57.105  1.00  0.00     0.036 C 
BRANCH  15  20
HETATM   20  C   UNL     1       8.250  31.106  59.631  1.00  0.00     0.231 C 
HETATM   21  C   UNL     1       9.170  32.012  60.429  1.00  0.00     0.034 C 
ENDBRANCH  15  20
ENDBRANCH  13  14
ENDBRANCH  10  13
ENDBRANCH   8   9
ENDBRANCH   1   8
BRANCH   2  22
HETATM   22  C   UNL     1       7.034  23.783  53.647  1.00  0.00    -0.005 A 
HETATM   23  C   UNL     1       7.744  22.877  52.849  1.00  0.00     0.017 A 
HETATM   24  C   UNL     1       8.482  21.830  53.420  1.00  0.00     0.043 A 
HETATM   25  C   UNL     1       8.508  21.671  54.797  1.00  0.00     0.116 A 
HETATM   26  F   UNL     1       9.213  20.668  55.334  1.00  0.00    -0.206 F 
HETATM   27  C   UNL     1       7.811  22.540  55.618  1.00  0.00     0.043 A 
HETATM   28  C   UNL     1       7.082  23.587  55.046  1.00  0.00     0.017 A 
ENDBRANCH   2  22
TORSDOF 6
ENDMDL
MODEL 2
REMARK VINA RESULT:      -8.9      3.808      6.885
REMARK  6 active torsions:
REMARK  status: ('A' for Active; 'I' for Inactive)
REMARK    1  A    between atoms: C_2  and  N_3 
REMARK    2  A    between atoms: C_5  and  C_6 
REMARK    3  A    between atoms: C_6  and  N_7 
REMARK       I    between atoms: N_7  and  C_8 
REMARK    4  A    between atoms: C_8  and  C_9 
REMARK    5  A    between atoms: C_9  and  C_10 
REMARK    6  A    between atoms: C_11  and  C_12 
ROOT
HETATM    1  C   UNL     1       5.691  25.541  54.066  1.00  0.00     0.006 C 
HETATM    2  C   UNL     1       6.783  24.802  54.655  1.00  0.00     0.096 C 
HETATM    3  N   UNL     1       7.412  25.580  55.554  1.00  0.00    -0.173 NA
HETATM    4  N   UNL     1       6.669  26.676  55.672  1.00  0.00    -0.282 N 
HETATM    5  H   UNL     1       6.930  27.357  56.381  1.00  0.00     0.189 HD
HETATM    6  C   UNL     1       5.640  26.731  54.784  1.00  0.00     0.033 C 
HETATM    7  C   UNL     1       4.708  27.885  54.758  1.00  0.00     0.070 C 
ENDROOT
BRANCH   1   8
HETATM    8  C   UNL     1       4.758  25.172  52.958  1.00  0.00     0.146 C 
BRANCH   8   9
HETATM    9  C   UNL     1       5.302  25.654  51.618  1.00  0.00     0.222 C 
HETATM   10  N   UNL     1       4.370  25.889  50.633  1.00  0.00    -0.359 N 
HETATM   11  H   UNL     1       3.414  25.594  50.802  1.00  0.00     0.162 HD
HETATM   12  O   UNL     1       6.488  25.916  51.414  1.00  0.00    -0.273 OA
BRANCH  10  13
HETATM   13  C   UNL     1       4.738  26.293  49.280  1.00  0.00     0.155 C 
BRANCH  13  14
HETATM   14  C   UNL     1       3.915  27.456  48.663  1.00  0.00     0.206 C 
HETATM   15  N   UNL     1       2.774  27.898  49.578  1.00  0.00    -0.066 N 
HETATM   16  H   UNL     1       2.701  27.182  50.332  1.00  0.00     0.280 HD
HETATM   17  C   UNL     1       1.488  27.807  48.791  1.00  0.00     0.235 C 
HETATM   18  C   UNL     1       1.795  26.803  47.703  1.00  0.00     0.030 C 
HETATM   19  C   UNL     1       3.233  27.107  47.339  1.00  0.00     0.036 C 
BRANCH  15  20
HETATM   20  C   UNL     1       3.009  29.200  50.283  1.00  0.00     0.231 C 
HETATM   21  C   UNL     1       2.886  29.027  51.785  1.00  0.00     0.034 C 
ENDBRANCH  15  20
ENDBRANCH  13  14
ENDBRANCH  10  13
ENDBRANCH   8   9
ENDBRANCH   1   8
BRANCH   2  22
HETATM   22  C   UNL     1       7.297  23.428  54.445  1.00  0.00    -0.005 A 
HETATM   23  C   UNL     1       7.614  22.898  53.188  1.00  0.00     0.017 A 
HETATM   24  C   UNL     1       8.094  21.587  53.054  1.00  0.00     0.043 A 
HETATM   25  C   UNL     1       8.251  20.788  54.176  1.00  0.00     0.116 A 
HETATM   26  F   UNL     1       8.709  19.538  54.040  1.00  0.00    -0.206 F 
HETATM   27  C   UNL     1       7.939  21.274  55.434  1.00  0.00     0.043 A 
HETATM   28  C   UNL     1       7.467  22.584  55.565  1.00  0.00     0.017 A 
ENDBRANCH   2  22
TORSDOF 6
ENDMDL
MODEL 3
REMARK VINA RESULT:      -8.5      3.078      6.563
REMARK  6 active torsions:
REMARK  status: ('A' for Active; 'I' for Inactive)
REMARK    1  A    between atoms: C_2  and  N_3 
REMARK    2  A    between atoms: C_5  and  C_6 
REMARK    3  A    between atoms: C_6  and  N_7 
REMARK       I    between atoms: N_7  and  C_8 
REMARK    4  A    between atoms: C_8  and  C_9 
REMARK    5  A    between atoms: C_9  and  C_10 
REMARK    6  A    between atoms: C_11  and  C_12 
ROOT
HETATM    1  C   UNL     1       6.398  25.507  55.556  1.00  0.00     0.006 C 
HETATM    2  C   UNL     1       7.422  24.493  55.658  1.00  0.00     0.096 C 
HETATM    3  N   UNL     1       8.300  24.844  56.615  1.00  0.00    -0.173 NA
HETATM    4  N   UNL     1       7.781  25.912  57.214  1.00  0.00    -0.282 N 
HETATM    5  H   UNL     1       8.256  26.278  58.034  1.00  0.00     0.189 HD
HETATM    6  C   UNL     1       6.657  26.380  56.606  1.00  0.00     0.033 C 
HETATM    7  C   UNL     1       5.943  27.572  57.126  1.00  0.00     0.070 C 
ENDROOT
BRANCH   1   8
HETATM    8  C   UNL     1       5.263  25.642  54.593  1.00  0.00     0.146 C 
BRANCH   8   9
HETATM    9  C   UNL     1       5.779  26.016  53.208  1.00  0.00     0.222 C 
HETATM   10  N   UNL     1       4.930  25.765  52.154  1.00  0.00    -0.359 N 
HETATM   11  H   UNL     1       4.092  25.222  52.337  1.00  0.00     0.162 HD
HETATM   12  O   UNL     1       6.848  26.594  53.008  1.00  0.00    -0.273 OA
BRANCH  10  13
HETATM   13  C   UNL     1       5.304  26.009  50.765  1.00  0.00     0.155 C 
BRANCH  13  14
HETATM   14  C   UNL     1       4.609  27.211  50.069  1.00  0.00     0.206 C 
HETATM   15  N   UNL     1       5.489  27.829  48.984  1.00  0.00    -0.066 N 
HETATM   16  H   UNL     1       6.437  27.409  49.091  1.00  0.00     0.280 HD
HETATM   17  C   UNL     1       5.647  29.299  49.297  1.00  0.00     0.235 C 
HETATM   18  C   UNL     1       5.386  29.386  50.784  1.00  0.00     0.030 C 
HETATM   19  C   UNL     1       4.282  28.373  51.007  1.00  0.00     0.036 C 
BRANCH  15  20
HETATM   20  C   UNL     1       5.066  27.510  47.581  1.00  0.00     0.231 C 
HETATM   21  C   UNL     1       3.711  26.827  47.571  1.00  0.00     0.034 C 
ENDBRANCH  15  20
ENDBRANCH  13  14
ENDBRANCH  10  13
ENDBRANCH   8   9
ENDBRANCH   1   8
BRANCH   2  22
HETATM   22  C   UNL     1       7.657  23.223  54.932  1.00  0.00    -0.005 A 
HETATM   23  C   UNL     1       7.640  21.962  55.541  1.00  0.00     0.017 A 
HETATM   24  C   UNL     1       7.873  20.795  54.799  1.00  0.00     0.043 A 
HETATM   25  C   UNL     1       8.136  20.878  53.440  1.00  0.00     0.116 A 
HETATM   26  F   UNL     1       8.358  19.760  52.740  1.00  0.00    -0.206 F 
HETATM   27  C   UNL     1       8.170  22.108  52.805  1.00  0.00     0.043 A 
HETATM   28  C   UNL     1       7.931  23.269  53.547  1.00  0.00     0.017 A 
ENDBRANCH   2  22
TORSDOF 6
ENDMDL
MODEL 4
REMARK VINA RESULT:      -8.1      1.242      2.266
REMARK  6 active torsions:
REMARK  status: ('A' for Active; 'I' for Inactive)
REMARK    1  A    between atoms: C_2  and  N_3 
REMARK    2  A    between atoms: C_5  and  C_6 
REMARK    3  A    between atoms: C_6  and  N_7 
REMARK       I    between atoms: N_7  and  C_8 
REMARK    4  A    between atoms: C_8  and  C_9 
REMARK    5  A    between atoms: C_9  and  C_10 
REMARK    6  A    between atoms: C_11  and  C_12 
ROOT
HETATM    1  C   UNL     1       5.337  25.929  54.252  1.00  0.00     0.006 C 
HETATM    2  C   UNL     1       5.998  24.834  53.583  1.00  0.00     0.096 C 
HETATM    3  N   UNL     1       5.645  24.827  52.286  1.00  0.00    -0.173 NA
HETATM    4  N   UNL     1       4.952  25.945  52.089  1.00  0.00    -0.282 N 
HETATM    5  H   UNL     1       4.670  26.173  51.140  1.00  0.00     0.189 HD
HETATM    6  C   UNL     1       4.704  26.636  53.236  1.00  0.00     0.033 C 
HETATM    7  C   UNL     1       3.934  27.904  53.216  1.00  0.00     0.070 C 
ENDROOT
BRANCH   1   8
HETATM    8  C   UNL     1       5.314  26.309  55.697  1.00  0.00     0.146 C 
BRANCH   8   9
HETATM    9  C   UNL     1       6.638  26.947  56.102  1.00  0.00     0.222 C 
HETATM   10  N   UNL     1       6.747  27.341  57.417  1.00  0.00    -0.359 N 
HETATM   11  H   UNL     1       5.909  27.321  57.990  1.00  0.00     0.162 HD
HETATM   12  O   UNL     1       7.611  27.043  55.353  1.00  0.00    -0.273 OA
BRANCH  10  13
HETATM   13  C   UNL     1       7.925  28.023  57.941  1.00  0.00     0.155 C 
BRANCH  13  14
HETATM   14  C   UNL     1       8.124  29.496  57.489  1.00  0.00     0.206 C 
HETATM   15  N   UNL     1       9.370  30.122  58.111  1.00  0.00    -0.066 N 
HETATM   16  H   UNL     1       9.701  29.463  58.848  1.00  0.00     0.280 HD
HETATM   17  C   UNL     1       8.947  31.378  58.835  1.00  0.00     0.235 C 
HETATM   18  C   UNL     1       7.479  31.156  59.125  1.00  0.00     0.030 C 
HETATM   19  C   UNL     1       6.983  30.432  57.890  1.00  0.00     0.036 C 
BRANCH  15  20
HETATM   20  C   UNL     1      10.526  30.279  57.168  1.00  0.00     0.231 C 
HETATM   21  C   UNL     1      10.182  29.721  55.800  1.00  0.00     0.034 C 
ENDBRANCH  15  20
ENDBRANCH  13  14
ENDBRANCH  10  13
ENDBRANCH   8   9
ENDBRANCH   1   8
BRANCH   2  22
HETATM   22  C   UNL     1       6.931  23.784  54.055  1.00  0.00    -0.005 A 
HETATM   23  C   UNL     1       7.055  23.395  55.394  1.00  0.00     0.017 A 
HETATM   24  C   UNL     1       7.960  22.395  55.778  1.00  0.00     0.043 A 
HETATM   25  C   UNL     1       8.760  21.780  54.827  1.00  0.00     0.116 A 
HETATM   26  F   UNL     1       9.622  20.828  55.201  1.00  0.00    -0.206 F 
HETATM   27  C   UNL     1       8.672  22.145  53.494  1.00  0.00     0.043 A 
HETATM   28  C   UNL     1       7.764  23.138  53.114  1.00  0.00     0.017 A 
ENDBRANCH   2  22
TORSDOF 6
ENDMDL
MODEL 5
REMARK VINA RESULT:      -8.1      1.232      2.148
REMARK  6 active torsions:
REMARK  status: ('A' for Active; 'I' for Inactive)
REMARK    1  A    between atoms: C_2  and  N_3 
REMARK    2  A    between atoms: C_5  and  C_6 
REMARK    3  A    between atoms: C_6  and  N_7 
REMARK       I    between atoms: N_7  and  C_8 
REMARK    4  A    between atoms: C_8  and  C_9 
REMARK    5  A    between atoms: C_9  and  C_10 
REMARK    6  A    between atoms: C_11  and  C_12 
ROOT
HETATM    1  C   UNL     1       6.241  26.632  53.450  1.00  0.00     0.006 C 
HETATM    2  C   UNL     1       5.970  25.225  53.632  1.00  0.00     0.096 C 
HETATM    3  N   UNL     1       4.642  25.018  53.573  1.00  0.00    -0.173 NA
HETATM    4  N   UNL     1       4.107  26.176  53.197  1.00  0.00    -0.282 N 
HETATM    5  H   UNL     1       3.110  26.202  53.005  1.00  0.00     0.189 HD
HETATM    6  C   UNL     1       5.009  27.194  53.137  1.00  0.00     0.033 C 
HETATM    7  C   UNL     1       4.595  28.563  52.745  1.00  0.00     0.070 C 
ENDROOT
BRANCH   1   8
HETATM    8  C   UNL     1       7.529  27.387  53.528  1.00  0.00     0.146 C 
BRANCH   8   9
HETATM    9  C   UNL     1       7.875  27.705  54.978  1.00  0.00     0.222 C 
HETATM   10  N   UNL     1       8.228  29.008  55.248  1.00  0.00    -0.359 N 
HETATM   11  H   UNL     1       8.378  29.632  54.462  1.00  0.00     0.162 HD
HETATM   12  O   UNL     1       7.771  26.895  55.900  1.00  0.00    -0.273 OA
BRANCH  10  13
HETATM   13  C   UNL     1       8.646  29.453  56.572  1.00  0.00     0.155 C 
BRANCH  13  14
HETATM   14  C   UNL     1       7.525  29.586  57.638  1.00  0.00     0.206 C 
HETATM   15  N   UNL     1       6.494  30.646  57.255  1.00  0.00    -0.066 N 
HETATM   16  H   UNL     1       6.889  31.168  56.444  1.00  0.00     0.280 HD
HETATM   17  C   UNL     1       6.407  31.640  58.390  1.00  0.00     0.235 C 
HETATM   18  C   UNL     1       7.735  31.500  59.100  1.00  0.00     0.030 C 
HETATM   19  C   UNL     1       8.022  30.015  59.019  1.00  0.00     0.036 C 
BRANCH  15  20
HETATM   20  C   UNL     1       5.183  30.097  56.776  1.00  0.00     0.231 C 
HETATM   21  C   UNL     1       5.051  28.629  57.138  1.00  0.00     0.034 C 
ENDBRANCH  15  20
ENDBRANCH  13  14
ENDBRANCH  10  13
ENDBRANCH   8   9
ENDBRANCH   1   8
BRANCH   2  22
HETATM   22  C   UNL     1       6.847  24.054  53.863  1.00  0.00    -0.005 A 
HETATM   23  C   UNL     1       7.492  23.348  52.840  1.00  0.00     0.017 A 
HETATM   24  C   UNL     1       8.308  22.243  53.124  1.00  0.00     0.043 A 
HETATM   25  C   UNL     1       8.478  21.825  54.435  1.00  0.00     0.116 A 
HETATM   26  F   UNL     1       9.258  20.770  54.697  1.00  0.00    -0.206 F 
HETATM   27  C   UNL     1       7.849  22.492  55.472  1.00  0.00     0.043 A 
HETATM   28  C   UNL     1       7.041  23.597  55.186  1.00  0.00     0.017 A 
ENDBRANCH   2  22
TORSDOF 6
ENDMDL
MODEL 6
REMARK VINA RESULT:      -8.0      1.938      2.952
REMARK  6 active torsions:
REMARK  status: ('A' for Active; 'I' for Inactive)
REMARK    1  A    between atoms: C_2  and  N_3 
REMARK    2  A    between atoms: C_5  and  C_6 
REMARK    3  A    between atoms: C_6  and  N_7 
REMARK       I    between atoms: N_7  and  C_8 
REMARK    4  A    between atoms: C_8  and  C_9 
REMARK    5  A    between atoms: C_9  and  C_10 
REMARK    6  A    between atoms: C_11  and  C_12 
ROOT
HETATM    1  C   UNL     1       6.684  27.570  55.132  1.00  0.00     0.006 C 
HETATM    2  C   UNL     1       6.324  26.246  54.681  1.00  0.00     0.096 C 
HETATM    3  N   UNL     1       4.992  26.182  54.512  1.00  0.00    -0.173 NA
HETATM    4  N   UNL     1       4.543  27.424  54.664  1.00  0.00    -0.282 N 
HETATM    5  H   UNL     1       3.559  27.603  54.482  1.00  0.00     0.189 HD
HETATM    6  C   UNL     1       5.503  28.300  55.069  1.00  0.00     0.033 C 
HETATM    7  C   UNL     1       5.188  29.731  55.302  1.00  0.00     0.070 C 
ENDROOT
BRANCH   1   8
HETATM    8  C   UNL     1       8.007  28.122  55.556  1.00  0.00     0.146 C 
BRANCH   8   9
HETATM    9  C   UNL     1       8.100  28.179  57.076  1.00  0.00     0.222 C 
HETATM   10  N   UNL     1       8.046  29.432  57.643  1.00  0.00    -0.359 N 
HETATM   11  H   UNL     1       8.095  30.236  57.025  1.00  0.00     0.162 HD
HETATM   12  O   UNL     1       8.133  27.181  57.799  1.00  0.00    -0.273 OA
BRANCH  10  13
HETATM   13  C   UNL     1       8.185  29.655  59.078  1.00  0.00     0.155 C 
BRANCH  13  14
HETATM   14  C   UNL     1       8.002  31.118  59.566  1.00  0.00     0.206 C 
HETATM   15  N   UNL     1       7.364  31.183  60.952  1.00  0.00    -0.066 N 
HETATM   16  H   UNL     1       7.028  30.221  61.172  1.00  0.00     0.280 HD
HETATM   17  C   UNL     1       6.127  32.045  60.853  1.00  0.00     0.235 C 
HETATM   18  C   UNL     1       5.747  31.972  59.391  1.00  0.00     0.030 C 
HETATM   19  C   UNL     1       7.085  31.963  58.680  1.00  0.00     0.036 C 
BRANCH  15  20
HETATM   20  C   UNL     1       8.312  31.539  62.059  1.00  0.00     0.231 C 
HETATM   21  C   UNL     1       9.683  31.874  61.504  1.00  0.00     0.034 C 
ENDBRANCH  15  20
ENDBRANCH  13  14
ENDBRANCH  10  13
ENDBRANCH   8   9
ENDBRANCH   1   8
BRANCH   2  22
HETATM   22  C   UNL     1       7.120  25.029  54.400  1.00  0.00    -0.005 A 
HETATM   23  C   UNL     1       7.880  24.353  55.363  1.00  0.00     0.017 A 
HETATM   24  C   UNL     1       8.615  23.206  55.033  1.00  0.00     0.043 A 
HETATM   25  C   UNL     1       8.608  22.728  53.732  1.00  0.00     0.116 A 
HETATM   26  F   UNL     1       9.313  21.633  53.425  1.00  0.00    -0.206 F 
HETATM   27  C   UNL     1       7.876  23.374  52.750  1.00  0.00     0.043 A 
HETATM   28  C   UNL     1       7.139  24.514  53.084  1.00  0.00     0.017 A 
ENDBRANCH   2  22
TORSDOF 6
ENDMDL
MODEL 7
REMARK VINA RESULT:      -8.0      1.629      2.152
REMARK  6 active torsions:
REMARK  status: ('A' for Active; 'I' for Inactive)
REMARK    1  A    between atoms: C_2  and  N_3 
REMARK    2  A    between atoms: C_5  and  C_6 
REMARK    3  A    between atoms: C_6  and  N_7 
REMARK       I    between atoms: N_7  and  C_8 
REMARK    4  A    between atoms: C_8  and  C_9 
REMARK    5  A    between atoms: C_9  and  C_10 
REMARK    6  A    between atoms: C_11  and  C_12 
ROOT
HETATM    1  C   UNL     1       5.487  27.418  51.797  1.00  0.00     0.006 C 
HETATM    2  C   UNL     1       5.637  25.983  51.870  1.00  0.00     0.096 C 
HETATM    3  N   UNL     1       4.823  25.405  50.969  1.00  0.00    -0.173 NA
HETATM    4  N   UNL     1       4.320  26.398  50.240  1.00  0.00    -0.282 N 
HETATM    5  H   UNL     1       3.745  26.158  49.437  1.00  0.00     0.189 HD
HETATM    6  C   UNL     1       4.654  27.633  50.705  1.00  0.00     0.033 C 
HETATM    7  C   UNL     1       4.176  28.863  50.027  1.00  0.00     0.070 C 
ENDROOT
BRANCH   1   8
HETATM    8  C   UNL     1       6.083  28.498  52.641  1.00  0.00     0.146 C 
BRANCH   8   9
HETATM    9  C   UNL     1       5.373  28.575  53.988  1.00  0.00     0.222 C 
HETATM   10  N   UNL     1       5.914  29.442  54.911  1.00  0.00    -0.359 N 
HETATM   11  H   UNL     1       6.816  29.858  54.702  1.00  0.00     0.162 HD
HETATM   12  O   UNL     1       4.325  27.983  54.246  1.00  0.00    -0.273 OA
BRANCH  10  13
HETATM   13  C   UNL     1       5.387  29.581  56.265  1.00  0.00     0.155 C 
BRANCH  13  14
HETATM   14  C   UNL     1       6.318  29.109  57.415  1.00  0.00     0.206 C 
HETATM   15  N   UNL     1       7.660  29.839  57.401  1.00  0.00    -0.066 N 
HETATM   16  H   UNL     1       7.708  30.359  56.500  1.00  0.00     0.280 HD
HETATM   17  C   UNL     1       8.753  28.797  57.340  1.00  0.00     0.235 C 
HETATM   18  C   UNL     1       8.071  27.587  56.743  1.00  0.00     0.030 C 
HETATM   19  C   UNL     1       6.686  27.626  57.353  1.00  0.00     0.036 C 
BRANCH  15  20
HETATM   20  C   UNL     1       7.816  30.877  58.472  1.00  0.00     0.231 C 
HETATM   21  C   UNL     1       8.554  30.307  59.669  1.00  0.00     0.034 C 
ENDBRANCH  15  20
ENDBRANCH  13  14
ENDBRANCH  10  13
ENDBRANCH   8   9
ENDBRANCH   1   8
BRANCH   2  22
HETATM   22  C   UNL     1       6.473  25.101  52.717  1.00  0.00    -0.005 A 
HETATM   23  C   UNL     1       7.596  24.407  52.249  1.00  0.00     0.017 A 
HETATM   24  C   UNL     1       8.347  23.584  53.101  1.00  0.00     0.043 A 
HETATM   25  C   UNL     1       7.975  23.437  54.429  1.00  0.00     0.116 A 
HETATM   26  F   UNL     1       8.696  22.649  55.235  1.00  0.00    -0.206 F 
HETATM   27  C   UNL     1       6.865  24.100  54.925  1.00  0.00     0.043 A 
HETATM   28  C   UNL     1       6.123  24.925  54.074  1.00  0.00     0.017 A 
ENDBRANCH   2  22
TORSDOF 6
ENDMDL
MODEL 8
REMARK VINA RESULT:      -8.0      1.526      2.621
REMARK  6 active torsions:
REMARK  status: ('A' for Active; 'I' for Inactive)
REMARK    1  A    between atoms: C_2  and  N_3 
REMARK    2  A    between atoms: C_5  and  C_6 
REMARK    3  A    between atoms: C_6  and  N_7 
REMARK       I    between atoms: N_7  and  C_8 
REMARK    4  A    between atoms: C_8  and  C_9 
REMARK    5  A    between atoms: C_9  and  C_10 
REMARK    6  A    between atoms: C_11  and  C_12 
ROOT
HETATM    1  C   UNL     1       6.470  26.331  53.152  1.00  0.00     0.006 C 
HETATM    2  C   UNL     1       6.235  24.907  53.226  1.00  0.00     0.096 C 
HETATM    3  N   UNL     1       5.056  24.622  52.646  1.00  0.00    -0.173 NA
HETATM    4  N   UNL     1       4.645  25.751  52.076  1.00  0.00    -0.282 N 
HETATM    5  H   UNL     1       3.807  25.719  51.502  1.00  0.00     0.189 HD
HETATM    6  C   UNL     1       5.432  26.822  52.368  1.00  0.00     0.033 C 
HETATM    7  C   UNL     1       5.126  28.170  51.830  1.00  0.00     0.070 C 
ENDROOT
BRANCH   1   8
HETATM    8  C   UNL     1       7.572  27.161  53.728  1.00  0.00     0.146 C 
BRANCH   8   9
HETATM    9  C   UNL     1       7.182  27.682  55.107  1.00  0.00     0.222 C 
HETATM   10  N   UNL     1       7.437  29.013  55.348  1.00  0.00    -0.359 N 
HETATM   11  H   UNL     1       7.991  29.522  54.667  1.00  0.00     0.162 HD
HETATM   12  O   UNL     1       6.591  27.009  55.952  1.00  0.00    -0.273 OA
BRANCH  10  13
HETATM   13  C   UNL     1       7.180  29.644  56.638  1.00  0.00     0.155 C 
BRANCH  13  14
HETATM   14  C   UNL     1       6.038  30.696  56.673  1.00  0.00     0.206 C 
HETATM   15  N   UNL     1       5.374  30.773  58.046  1.00  0.00    -0.066 N 
HETATM   16  H   UNL     1       5.726  29.960  58.595  1.00  0.00     0.280 HD
HETATM   17  C   UNL     1       3.893  30.539  57.858  1.00  0.00     0.235 C 
HETATM   18  C   UNL     1       3.806  29.774  56.556  1.00  0.00     0.030 C 
HETATM   19  C   UNL     1       4.890  30.404  55.706  1.00  0.00     0.036 C 
BRANCH  15  20
HETATM   20  C   UNL     1       5.738  31.986  58.848  1.00  0.00     0.231 C 
HETATM   21  C   UNL     1       7.005  31.741  59.646  1.00  0.00     0.034 C 
ENDBRANCH  15  20
ENDBRANCH  13  14
ENDBRANCH  10  13
ENDBRANCH   8   9
ENDBRANCH   1   8
BRANCH   2  22
HETATM   22  C   UNL     1       7.017  23.787  53.800  1.00  0.00    -0.005 A 
HETATM   23  C   UNL     1       7.154  23.555  55.173  1.00  0.00     0.017 A 
HETATM   24  C   UNL     1       7.911  22.478  55.655  1.00  0.00     0.043 A 
HETATM   25  C   UNL     1       8.549  21.626  54.766  1.00  0.00     0.116 A 
HETATM   26  F   UNL     1       9.271  20.601  55.234  1.00  0.00    -0.206 F 
HETATM   27  C   UNL     1       8.445  21.829  53.401  1.00  0.00     0.043 A 
HETATM   28  C   UNL     1       7.684  22.901  52.924  1.00  0.00     0.017 A 
ENDBRANCH   2  22
TORSDOF 6
ENDMDL
MODEL 9
REMARK VINA RESULT:      -7.9      2.772      7.053
REMARK  6 active torsions:
REMARK  status: ('A' for Active; 'I' for Inactive)
REMARK    1  A    between atoms: C_2  and  N_3 
REMARK    2  A    between atoms: C_5  and  C_6 
REMARK    3  A    between atoms: C_6  and  N_7 
REMARK       I    between atoms: N_7  and  C_8 
REMARK    4  A    between atoms: C_8  and  C_9 
REMARK    5  A    between atoms: C_9  and  C_10 
REMARK    6  A    between atoms: C_11  and  C_12 
ROOT
HETATM    1  C   UNL     1       7.537  28.773  57.206  1.00  0.00     0.006 C 
HETATM    2  C   UNL     1       6.391  28.991  56.354  1.00  0.00     0.096 C 
HETATM    3  N   UNL     1       5.579  29.897  56.925  1.00  0.00    -0.173 NA
HETATM    4  N   UNL     1       6.240  30.369  57.979  1.00  0.00    -0.282 N 
HETATM    5  H   UNL     1       5.828  31.140  58.496  1.00  0.00     0.189 HD
HETATM    6  C   UNL     1       7.408  29.713  58.222  1.00  0.00     0.033 C 
HETATM    7  C   UNL     1       8.278  30.091  59.362  1.00  0.00     0.070 C 
ENDROOT
BRANCH   1   8
HETATM    8  C   UNL     1       8.667  27.803  57.078  1.00  0.00     0.146 C 
BRANCH   8   9
HETATM    9  C   UNL     1       8.205  26.394  57.431  1.00  0.00     0.222 C 
HETATM   10  N   UNL     1       8.631  25.387  56.596  1.00  0.00    -0.359 N 
HETATM   11  H   UNL     1       9.094  25.650  55.731  1.00  0.00     0.162 HD
HETATM   12  O   UNL     1       7.562  26.117  58.445  1.00  0.00    -0.273 OA
BRANCH  10  13
HETATM   13  C   UNL     1       8.222  23.997  56.764  1.00  0.00     0.155 C 
BRANCH  13  14
HETATM   14  C   UNL     1       7.332  23.402  55.639  1.00  0.00     0.206 C 
HETATM   15  N   UNL     1       8.065  22.329  54.837  1.00  0.00    -0.066 N 
HETATM   16  H   UNL     1       9.067  22.376  55.119  1.00  0.00     0.280 HD
HETATM   17  C   UNL     1       8.023  22.729  53.380  1.00  0.00     0.235 C 
HETATM   18  C   UNL     1       7.817  24.226  53.419  1.00  0.00     0.030 C 
HETATM   19  C   UNL     1       6.881  24.423  54.593  1.00  0.00     0.036 C 
BRANCH  15  20
HETATM   20  C   UNL     1       7.632  20.924  55.133  1.00  0.00     0.231 C 
HETATM   21  C   UNL     1       8.682  20.201  55.956  1.00  0.00     0.034 C 
ENDBRANCH  15  20
ENDBRANCH  13  14
ENDBRANCH  10  13
ENDBRANCH   8   9
ENDBRANCH   1   8
BRANCH   2  22
HETATM   22  C   UNL     1       5.984  28.417  55.049  1.00  0.00    -0.005 A 
HETATM   23  C   UNL     1       6.865  28.206  53.982  1.00  0.00     0.017 A 
HETATM   24  C   UNL     1       6.418  27.662  52.769  1.00  0.00     0.043 A 
HETATM   25  C   UNL     1       5.080  27.333  52.608  1.00  0.00     0.116 A 
HETATM   26  F   UNL     1       4.661  26.816  51.447  1.00  0.00    -0.206 F 
HETATM   27  C   UNL     1       4.178  27.537  53.638  1.00  0.00     0.043 A 
HETATM   28  C   UNL     1       4.629  28.074  54.848  1.00  0.00     0.017 A 
ENDBRANCH   2  22
TORSDOF 6
ENDMDL
MODEL 10
REMARK VINA RESULT:      -7.8      3.678      7.549
REMARK  6 active torsions:
REMARK  status: ('A' for Active; 'I' for Inactive)
REMARK    1  A    between atoms: C_2  and  N_3 
REMARK    2  A    between atoms: C_5  and  C_6 
REMARK    3  A    between atoms: C_6  and  N_7 
REMARK       I    between atoms: N_7  and  C_8 
REMARK    4  A    between atoms: C_8  and  C_9 
REMARK    5  A    between atoms: C_9  and  C_10 
REMARK    6  A    between atoms: C_11  and  C_12 
ROOT
HETATM    1  C   UNL     1       7.472  23.696  53.821  1.00  0.00     0.006 C 
HETATM    2  C   UNL     1       7.246  24.052  55.203  1.00  0.00     0.096 C 
HETATM    3  N   UNL     1       7.246  22.936  55.954  1.00  0.00    -0.173 NA
HETATM    4  N   UNL     1       7.627  21.951  55.146  1.00  0.00    -0.282 N 
HETATM    5  H   UNL     1       7.779  21.031  55.551  1.00  0.00     0.189 HD
HETATM    6  C   UNL     1       7.748  22.334  53.845  1.00  0.00     0.033 C 
HETATM    7  C   UNL     1       8.154  21.369  52.795  1.00  0.00     0.070 C 
ENDROOT
BRANCH   1   8
HETATM    8  C   UNL     1       7.463  24.544  52.590  1.00  0.00     0.146 C 
BRANCH   8   9
HETATM    9  C   UNL     1       6.066  25.095  52.331  1.00  0.00     0.222 C 
HETATM   10  N   UNL     1       6.001  26.300  51.667  1.00  0.00    -0.359 N 
HETATM   11  H   UNL     1       6.866  26.812  51.524  1.00  0.00     0.162 HD
HETATM   12  O   UNL     1       5.029  24.489  52.602  1.00  0.00    -0.273 OA
BRANCH  10  13
HETATM   13  C   UNL     1       4.741  26.986  51.401  1.00  0.00     0.155 C 
BRANCH  13  14
HETATM   14  C   UNL     1       4.539  27.513  49.955  1.00  0.00     0.206 C 
HETATM   15  N   UNL     1       3.094  27.935  49.697  1.00  0.00    -0.066 N 
HETATM   16  H   UNL     1       2.533  27.595  50.507  1.00  0.00     0.280 HD
HETATM   17  C   UNL     1       2.595  27.170  48.493  1.00  0.00     0.235 C 
HETATM   18  C   UNL     1       3.485  25.949  48.442  1.00  0.00     0.030 C 
HETATM   19  C   UNL     1       4.838  26.482  48.866  1.00  0.00     0.036 C 
BRANCH  15  20
HETATM   20  C   UNL     1       2.875  29.418  49.654  1.00  0.00     0.231 C 
HETATM   21  C   UNL     1       1.940  29.791  48.519  1.00  0.00     0.034 C 
ENDBRANCH  15  20
ENDBRANCH  13  14
ENDBRANCH  10  13
ENDBRANCH   8   9
ENDBRANCH   1   8
BRANCH   2  22
HETATM   22  C   UNL     1       7.023  25.348  55.884  1.00  0.00    -0.005 A 
HETATM   23  C   UNL     1       5.880  26.137  55.705  1.00  0.00     0.017 A 
HETATM   24  C   UNL     1       5.728  27.358  56.378  1.00  0.00     0.043 A 
HETATM   25  C   UNL     1       6.725  27.809  57.230  1.00  0.00     0.116 A 
HETATM   26  F   UNL     1       6.574  28.976  57.867  1.00  0.00    -0.206 F 
HETATM   27  C   UNL     1       7.874  27.061  57.425  1.00  0.00     0.043 A 
HETATM   28  C   UNL     1       8.019  25.841  56.757  1.00  0.00     0.017 A 
ENDBRANCH   2  22
TORSDOF 6
ENDMDL
