MODEL 1
REMARK VINA RESULT:      -9.0      0.000      0.000
REMARK  9 active torsions:
REMARK  status: ('A' for Active; 'I' for Inactive)
REMARK    1  A    between atoms: C_4  and  C_5 
REMARK    2  A    between atoms: C_8  and  C_9 
REMARK       I    between atoms: C_9  and  N_10 
REMARK    3  A    between atoms: N_10  and  C_11 
REMARK    4  A    between atoms: N_10  and  C_26 
REMARK    5  A    between atoms: C_11  and  C_12 
REMARK    6  A    between atoms: C_11  and  C_21 
REMARK       I    between atoms: C_12  and  N_13 
REMARK    7  A    between atoms: N_13  and  C_14 
REMARK    8  A    between atoms: C_14  and  C_15 
REMARK    9  A    between atoms: C_26  and  C_27 
ROOT
HETATM    1  C   UNL     1       5.440  27.543  55.238  1.00  0.00     0.271 C 
HETATM    2  N   UNL     1       6.193  28.711  55.398  1.00  0.00    -0.324 N 
HETATM    3  O   UNL     1       4.323  27.577  54.719  1.00  0.00    -0.266 OA
ENDROOT
BRANCH   2   4
HETATM    4  C   UNL     1       5.550  30.032  55.187  1.00  0.00     0.220 C 
BRANCH   4   5
HETATM    5  C   UNL     1       4.613  30.119  53.942  1.00  0.00     0.245 C 
HETATM    6  N   UNL     1       5.155  29.726  52.739  1.00  0.00    -0.357 N 
HETATM    7  H   UNL     1       5.989  29.141  52.795  1.00  0.00     0.162 HD
HETATM    8  O   UNL     1       3.424  30.424  54.048  1.00  0.00    -0.271 OA
BRANCH   6   9
HETATM    9  C   UNL     1       4.384  29.638  51.512  1.00  0.00     0.154 C 
BRANCH   9  10
HETATM   10  C   UNL     1       4.102  28.205  51.055  1.00  0.00     0.139 C 
HETATM   11  O   UNL     1       3.916  28.136  49.626  1.00  0.00    -0.384 OA
HETATM   12  C   UNL     1       4.407  26.865  49.173  1.00  0.00     0.168 C 
HETATM   13  C   UNL     1       4.979  26.140  50.377  1.00  0.00     0.029 C 
HETATM   14  C   UNL     1       5.262  27.266  51.338  1.00  0.00     0.035 C 
ENDBRANCH   9  10
ENDBRANCH   6   9
ENDBRANCH   4   5
BRANCH   4  15
HETATM   15  C   UNL     1       4.868  30.607  56.425  1.00  0.00     0.014 A 
HETATM   16  S   UNL     1       4.887  32.300  56.758  1.00  0.00    -0.104 SA
HETATM   17  C   UNL     1       3.934  32.120  58.161  1.00  0.00     0.050 A 
HETATM   18  C   UNL     1       3.564  30.813  58.367  1.00  0.00     0.008 A 
HETATM   19  C   UNL     1       4.095  29.947  57.369  1.00  0.00     0.017 A 
ENDBRANCH   4  15
ENDBRANCH   2   4
BRANCH   2  20
HETATM   20  C   UNL     1       7.635  28.678  55.135  1.00  0.00     0.173 C 
BRANCH  20  21
HETATM   21  C   UNL     1       8.437  29.207  56.295  1.00  0.00     0.000 A 
HETATM   22  S   UNL     1      10.068  29.676  56.009  1.00  0.00    -0.105 SA
HETATM   23  C   UNL     1      10.303  30.126  57.640  1.00  0.00     0.050 A 
HETATM   24  C   UNL     1       9.168  29.937  58.394  1.00  0.00     0.008 A 
HETATM   25  C   UNL     1       8.092  29.418  57.617  1.00  0.00     0.017 A 
ENDBRANCH  20  21
ENDBRANCH   2  20
BRANCH   1  26
HETATM   26  C   UNL     1       6.024  26.288  55.664  1.00  0.00     0.101 A 
HETATM   27  N   UNL     1       6.354  25.229  54.847  1.00  0.00    -0.351 N 
HETATM   28  C   UNL     1       6.917  24.198  55.568  1.00  0.00     0.043 A 
HETATM   29  H   UNL     1       6.234  25.225  53.843  1.00  0.00     0.166 HD
HETATM   30  C   UNL     1       6.982  24.636  56.880  1.00  0.00     0.033 A 
HETATM   31  C   UNL     1       6.445  25.942  56.936  1.00  0.00     0.037 A 
BRANCH  28  32
HETATM   32  C   UNL     1       7.370  22.941  54.961  1.00  0.00    -0.009 A 
HETATM   33  C   UNL     1       7.536  22.848  53.572  1.00  0.00     0.013 A 
HETATM   34  C   UNL     1       7.971  21.659  52.980  1.00  0.00     0.001 A 
HETATM   35  C   UNL     1       8.248  20.547  53.771  1.00  0.00     0.000 A 
HETATM   36  C   UNL     1       8.090  20.624  55.152  1.00  0.00     0.001 A 
HETATM   37  C   UNL     1       7.654  21.814  55.743  1.00  0.00     0.013 A 
ENDBRANCH  28  32
ENDBRANCH   1  26
TORSDOF 9
ENDMDL
MODEL 2
REMARK VINA RESULT:      -8.7      3.057      7.988
REMARK  9 active torsions:
REMARK  status: ('A' for Active; 'I' for Inactive)
REMARK    1  A    between atoms: C_4  and  C_5 
REMARK    2  A    between atoms: C_8  and  C_9 
REMARK       I    between atoms: C_9  and  N_10 
REMARK    3  A    between atoms: N_10  and  C_11 
REMARK    4  A    between atoms: N_10  and  C_26 
REMARK    5  A    between atoms: C_11  and  C_12 
REMARK    6  A    between atoms: C_11  and  C_21 
REMARK       I    between atoms: C_12  and  N_13 
REMARK    7  A    between atoms: N_13  and  C_14 
REMARK    8  A    between atoms: C_14  and  C_15 
REMARK    9  A    between atoms: C_26  and  C_27 
ROOT
HETATM    1  C   UNL     1       8.590  28.882  57.211  1.00  0.00     0.271 C 
HETATM    2  N   UNL     1       7.423  28.842  56.439  1.00  0.00    -0.324 N 
HETATM    3  O   UNL     1       9.468  28.028  57.075  1.00  0.00    -0.266 OA
ENDROOT
BRANCH   2   4
HETATM    4  C   UNL     1       7.114  27.629  55.641  1.00  0.00     0.220 C 
BRANCH   4   5
HETATM    5  C   UNL     1       6.895  26.328  56.474  1.00  0.00     0.245 C 
HETATM    6  N   UNL     1       7.805  25.314  56.277  1.00  0.00    -0.357 N 
HETATM    7  H   UNL     1       8.692  25.587  55.853  1.00  0.00     0.162 HD
HETATM    8  O   UNL     1       6.017  26.253  57.336  1.00  0.00    -0.271 OA
BRANCH   6   9
HETATM    9  C   UNL     1       7.808  24.088  57.055  1.00  0.00     0.154 C 
BRANCH   9  10
HETATM   10  C   UNL     1       8.362  22.875  56.303  1.00  0.00     0.139 C 
HETATM   11  O   UNL     1       8.313  21.685  57.117  1.00  0.00    -0.384 OA
HETATM   12  C   UNL     1       8.089  20.561  56.251  1.00  0.00     0.168 C 
HETATM   13  C   UNL     1       7.933  21.095  54.840  1.00  0.00     0.029 C 
HETATM   14  C   UNL     1       7.543  22.533  55.070  1.00  0.00     0.035 C 
ENDBRANCH   9  10
ENDBRANCH   6   9
ENDBRANCH   4   5
BRANCH   4  15
HETATM   15  C   UNL     1       5.999  27.815  54.615  1.00  0.00     0.014 A 
HETATM   16  S   UNL     1       6.346  28.053  52.942  1.00  0.00    -0.104 SA
HETATM   17  C   UNL     1       4.694  28.104  52.521  1.00  0.00     0.050 A 
HETATM   18  C   UNL     1       3.879  27.906  53.609  1.00  0.00     0.008 A 
HETATM   19  C   UNL     1       4.627  27.734  54.809  1.00  0.00     0.017 A 
ENDBRANCH   4  15
ENDBRANCH   2   4
BRANCH   2  20
HETATM   20  C   UNL     1       6.874  30.090  55.902  1.00  0.00     0.173 C 
BRANCH  20  21
HETATM   21  C   UNL     1       5.631  30.525  56.633  1.00  0.00     0.000 A 
HETATM   22  S   UNL     1       4.873  31.992  56.147  1.00  0.00    -0.105 SA
HETATM   23  C   UNL     1       3.647  31.835  57.325  1.00  0.00     0.050 A 
HETATM   24  C   UNL     1       3.794  30.691  58.073  1.00  0.00     0.008 A 
HETATM   25  C   UNL     1       4.931  29.933  57.668  1.00  0.00     0.017 A 
ENDBRANCH  20  21
ENDBRANCH   2  20
BRANCH   1  26
HETATM   26  C   UNL     1       8.754  29.975  58.147  1.00  0.00     0.101 A 
HETATM   27  N   UNL     1       7.977  30.214  59.258  1.00  0.00    -0.351 N 
HETATM   28  C   UNL     1       8.421  31.321  59.950  1.00  0.00     0.043 A 
HETATM   29  H   UNL     1       7.203  29.631  59.549  1.00  0.00     0.166 HD
HETATM   30  C   UNL     1       9.543  31.772  59.275  1.00  0.00     0.033 A 
HETATM   31  C   UNL     1       9.761  30.924  58.166  1.00  0.00     0.037 A 
BRANCH  28  32
HETATM   32  C   UNL     1       7.787  31.813  61.178  1.00  0.00    -0.009 A 
HETATM   33  C   UNL     1       8.548  31.999  62.341  1.00  0.00     0.013 A 
HETATM   34  C   UNL     1       7.957  32.471  63.517  1.00  0.00     0.001 A 
HETATM   35  C   UNL     1       6.597  32.765  63.544  1.00  0.00     0.000 A 
HETATM   36  C   UNL     1       5.827  32.588  62.397  1.00  0.00     0.001 A 
HETATM   37  C   UNL     1       6.419  32.115  61.222  1.00  0.00     0.013 A 
ENDBRANCH  28  32
ENDBRANCH   1  26
TORSDOF 9
ENDMDL
MODEL 3
REMARK VINA RESULT:      -8.6      2.079      4.889
REMARK  9 active torsions:
REMARK  status: ('A' for Active; 'I' for Inactive)
REMARK    1  A    between atoms: C_4  and  C_5 
REMARK    2  A    between atoms: C_8  and  C_9 
REMARK       I    between atoms: C_9  and  N_10 
REMARK    3  A    between atoms: N_10  and  C_11 
REMARK    4  A    between atoms: N_10  and  C_26 
REMARK    5  A    between atoms: C_11  and  C_12 
REMARK    6  A    between atoms: C_11  and  C_21 
REMARK       I    between atoms: C_12  and  N_13 
REMARK    7  A    between atoms: N_13  and  C_14 
REMARK    8  A    between atoms: C_14  and  C_15 
REMARK    9  A    between atoms: C_26  and  C_27 
ROOT
HETATM    1  C   UNL     1       5.523  26.208  52.526  1.00  0.00     0.271 C 
HETATM    2  N   UNL     1       5.594  27.383  53.283  1.00  0.00    -0.324 N 
HETATM    3  O   UNL     1       4.647  26.058  51.672  1.00  0.00    -0.266 OA
ENDROOT
BRANCH   2   4
HETATM    4  C   UNL     1       4.463  28.344  53.252  1.00  0.00     0.220 C 
BRANCH   4   5
HETATM    5  C   UNL     1       4.258  29.165  54.564  1.00  0.00     0.245 C 
HETATM    6  N   UNL     1       4.617  30.493  54.516  1.00  0.00    -0.357 N 
HETATM    7  H   UNL     1       4.694  30.902  53.584  1.00  0.00     0.162 HD
HETATM    8  O   UNL     1       3.711  28.676  55.554  1.00  0.00    -0.271 OA
BRANCH   6   9
HETATM    9  C   UNL     1       4.383  31.418  55.611  1.00  0.00     0.154 C 
BRANCH   9  10
HETATM   10  C   UNL     1       5.564  31.550  56.577  1.00  0.00     0.139 C 
HETATM   11  O   UNL     1       5.514  32.799  57.299  1.00  0.00    -0.384 OA
HETATM   12  C   UNL     1       6.073  32.580  58.604  1.00  0.00     0.168 C 
HETATM   13  C   UNL     1       6.429  31.110  58.710  1.00  0.00     0.029 C 
HETATM   14  C   UNL     1       5.555  30.480  57.655  1.00  0.00     0.035 C 
ENDBRANCH   9  10
ENDBRANCH   6   9
ENDBRANCH   4   5
BRANCH   4  15
HETATM   15  C   UNL     1       4.442  29.256  52.029  1.00  0.00     0.014 A 
HETATM   16  S   UNL     1       2.968  29.921  51.427  1.00  0.00    -0.104 SA
HETATM   17  C   UNL     1       3.765  30.792  50.197  1.00  0.00     0.050 A 
HETATM   18  C   UNL     1       5.128  30.627  50.249  1.00  0.00     0.008 A 
HETATM   19  C   UNL     1       5.517  29.751  51.303  1.00  0.00     0.017 A 
ENDBRANCH   4  15
ENDBRANCH   2   4
BRANCH   2  20
HETATM   20  C   UNL     1       6.903  27.980  53.562  1.00  0.00     0.173 C 
BRANCH  20  21
HETATM   21  C   UNL     1       7.298  27.835  55.009  1.00  0.00     0.000 A 
HETATM   22  S   UNL     1       8.436  28.951  55.657  1.00  0.00    -0.105 SA
HETATM   23  C   UNL     1       8.388  28.218  57.199  1.00  0.00     0.050 A 
HETATM   24  C   UNL     1       7.521  27.152  57.235  1.00  0.00     0.008 A 
HETATM   25  C   UNL     1       6.887  26.938  55.977  1.00  0.00     0.017 A 
ENDBRANCH  20  21
ENDBRANCH   2  20
BRANCH   1  26
HETATM   26  C   UNL     1       6.530  25.191  52.745  1.00  0.00     0.101 A 
HETATM   27  N   UNL     1       6.557  24.289  53.785  1.00  0.00    -0.351 N 
HETATM   28  C   UNL     1       7.638  23.438  53.681  1.00  0.00     0.043 A 
HETATM   29  H   UNL     1       5.855  24.233  54.510  1.00  0.00     0.166 HD
HETATM   30  C   UNL     1       8.292  23.788  52.512  1.00  0.00     0.033 A 
HETATM   31  C   UNL     1       7.593  24.865  51.920  1.00  0.00     0.037 A 
BRANCH  28  32
HETATM   32  C   UNL     1       7.921  22.371  54.647  1.00  0.00    -0.009 A 
HETATM   33  C   UNL     1       8.044  22.668  56.012  1.00  0.00     0.013 A 
HETATM   34  C   UNL     1       8.310  21.661  56.944  1.00  0.00     0.001 A 
HETATM   35  C   UNL     1       8.454  20.342  56.523  1.00  0.00     0.000 A 
HETATM   36  C   UNL     1       8.331  20.030  55.171  1.00  0.00     0.001 A 
HETATM   37  C   UNL     1       8.067  21.038  54.240  1.00  0.00     0.013 A 
ENDBRANCH  28  32
ENDBRANCH   1  26
TORSDOF 9
ENDMDL
MODEL 4
REMARK VINA RESULT:      -8.6      2.264      6.809
REMARK  9 active torsions:
REMARK  status: ('A' for Active; 'I' for Inactive)
REMARK    1  A    between atoms: C_4  and  C_5 
REMARK    2  A    between atoms: C_8  and  C_9 
REMARK       I    between atoms: C_9  and  N_10 
REMARK    3  A    between atoms: N_10  and  C_11 
REMARK    4  A    between atoms: N_10  and  C_26 
REMARK    5  A    between atoms: C_11  and  C_12 
REMARK    6  A    between atoms: C_11  and  C_21 
REMARK       I    between atoms: C_12  and  N_13 
REMARK    7  A    between atoms: N_13  and  C_14 
REMARK    8  A    between atoms: C_14  and  C_15 
REMARK    9  A    between atoms: C_26  and  C_27 
ROOT
HETATM    1  C   UNL     1       5.899  27.197  53.293  1.00  0.00     0.271 C 
HETATM    2  N   UNL     1       5.456  27.790  54.481  1.00  0.00    -0.324 N 
HETATM    3  O   UNL     1       6.663  26.231  53.316  1.00  0.00    -0.266 OA
ENDROOT
BRANCH   2   4
HETATM    4  C   UNL     1       6.106  27.431  55.766  1.00  0.00     0.220 C 
BRANCH   4   5
HETATM    5  C   UNL     1       6.361  25.905  55.974  1.00  0.00     0.245 C 
HETATM    6  N   UNL     1       7.665  25.481  55.857  1.00  0.00    -0.357 N 
HETATM    7  H   UNL     1       8.380  26.204  55.948  1.00  0.00     0.162 HD
HETATM    8  O   UNL     1       5.459  25.142  56.324  1.00  0.00    -0.271 OA
BRANCH   6   9
HETATM    9  C   UNL     1       8.084  24.119  56.133  1.00  0.00     0.154 C 
BRANCH   9  10
HETATM   10  C   UNL     1       8.544  23.346  54.894  1.00  0.00     0.139 C 
HETATM   11  O   UNL     1       9.161  22.093  55.256  1.00  0.00    -0.384 OA
HETATM   12  C   UNL     1       8.878  21.140  54.219  1.00  0.00     0.168 C 
HETATM   13  C   UNL     1       7.991  21.827  53.198  1.00  0.00     0.029 C 
HETATM   14  C   UNL     1       7.387  22.959  53.989  1.00  0.00     0.035 C 
ENDBRANCH   9  10
ENDBRANCH   6   9
ENDBRANCH   4   5
BRANCH   4  15
HETATM   15  C   UNL     1       7.358  28.242  56.089  1.00  0.00     0.014 A 
HETATM   16  S   UNL     1       7.828  28.563  57.717  1.00  0.00    -0.104 SA
HETATM   17  C   UNL     1       9.237  29.395  57.236  1.00  0.00     0.050 A 
HETATM   18  C   UNL     1       9.387  29.405  55.871  1.00  0.00     0.008 A 
HETATM   19  C   UNL     1       8.313  28.740  55.213  1.00  0.00     0.017 A 
ENDBRANCH   4  15
ENDBRANCH   2   4
BRANCH   2  20
HETATM   20  C   UNL     1       4.057  28.213  54.594  1.00  0.00     0.173 C 
BRANCH  20  21
HETATM   21  C   UNL     1       3.931  29.674  54.938  1.00  0.00     0.000 A 
HETATM   22  S   UNL     1       3.694  30.104  56.587  1.00  0.00    -0.105 SA
HETATM   23  C   UNL     1       3.645  31.772  56.223  1.00  0.00     0.050 A 
HETATM   24  C   UNL     1       3.814  32.010  54.879  1.00  0.00     0.008 A 
HETATM   25  C   UNL     1       3.988  30.803  54.142  1.00  0.00     0.017 A 
ENDBRANCH  20  21
ENDBRANCH   2  20
BRANCH   1  26
HETATM   26  C   UNL     1       5.405  27.725  52.038  1.00  0.00     0.101 A 
HETATM   27  N   UNL     1       4.526  27.097  51.185  1.00  0.00    -0.351 N 
HETATM   28  C   UNL     1       4.239  27.887  50.092  1.00  0.00     0.043 A 
HETATM   29  H   UNL     1       4.113  26.190  51.358  1.00  0.00     0.166 HD
HETATM   30  C   UNL     1       4.930  29.072  50.281  1.00  0.00     0.033 A 
HETATM   31  C   UNL     1       5.639  28.979  51.500  1.00  0.00     0.037 A 
BRANCH  28  32
HETATM   32  C   UNL     1       3.328  27.478  49.017  1.00  0.00    -0.009 A 
HETATM   33  C   UNL     1       3.686  26.441  48.143  1.00  0.00     0.013 A 
HETATM   34  C   UNL     1       2.826  26.038  47.118  1.00  0.00     0.001 A 
HETATM   35  C   UNL     1       1.595  26.666  46.953  1.00  0.00     0.000 A 
HETATM   36  C   UNL     1       1.223  27.696  47.815  1.00  0.00     0.001 A 
HETATM   37  C   UNL     1       2.084  28.099  48.840  1.00  0.00     0.013 A 
ENDBRANCH  28  32
ENDBRANCH   1  26
TORSDOF 9
ENDMDL
MODEL 5
REMARK VINA RESULT:      -8.5      2.736      5.686
REMARK  9 active torsions:
REMARK  status: ('A' for Active; 'I' for Inactive)
REMARK    1  A    between atoms: C_4  and  C_5 
REMARK    2  A    between atoms: C_8  and  C_9 
REMARK       I    between atoms: C_9  and  N_10 
REMARK    3  A    between atoms: N_10  and  C_11 
REMARK    4  A    between atoms: N_10  and  C_26 
REMARK    5  A    between atoms: C_11  and  C_12 
REMARK    6  A    between atoms: C_11  and  C_21 
REMARK       I    between atoms: C_12  and  N_13 
REMARK    7  A    between atoms: N_13  and  C_14 
REMARK    8  A    between atoms: C_14  and  C_15 
REMARK    9  A    between atoms: C_26  and  C_27 
ROOT
HETATM    1  C   UNL     1       5.506  27.976  56.987  1.00  0.00     0.271 C 
HETATM    2  N   UNL     1       5.953  29.298  56.885  1.00  0.00    -0.324 N 
HETATM    3  O   UNL     1       4.306  27.721  57.101  1.00  0.00    -0.266 OA
ENDROOT
BRANCH   2   4
HETATM    4  C   UNL     1       5.017  30.412  57.180  1.00  0.00     0.220 C 
BRANCH   4   5
HETATM    5  C   UNL     1       5.594  31.535  58.097  1.00  0.00     0.245 C 
HETATM    6  N   UNL     1       5.143  31.556  59.397  1.00  0.00    -0.357 N 
HETATM    7  H   UNL     1       4.721  30.691  59.738  1.00  0.00     0.162 HD
HETATM    8  O   UNL     1       6.482  32.295  57.707  1.00  0.00    -0.271 OA
BRANCH   6   9
HETATM    9  C   UNL     1       5.665  32.461  60.404  1.00  0.00     0.154 C 
BRANCH   9  10
HETATM   10  C   UNL     1       6.552  31.782  61.452  1.00  0.00     0.139 C 
HETATM   11  O   UNL     1       7.728  31.203  60.849  1.00  0.00    -0.384 OA
HETATM   12  C   UNL     1       8.803  31.286  61.799  1.00  0.00     0.168 C 
HETATM   13  C   UNL     1       8.275  32.007  63.024  1.00  0.00     0.029 C 
HETATM   14  C   UNL     1       7.089  32.762  62.481  1.00  0.00     0.035 C 
ENDBRANCH   9  10
ENDBRANCH   6   9
ENDBRANCH   4   5
BRANCH   4  15
HETATM   15  C   UNL     1       4.337  31.007  55.950  1.00  0.00     0.014 A 
HETATM   16  S   UNL     1       4.603  32.646  55.480  1.00  0.00    -0.104 SA
HETATM   17  C   UNL     1       3.613  32.499  54.099  1.00  0.00     0.050 A 
HETATM   18  C   UNL     1       3.113  31.227  53.958  1.00  0.00     0.008 A 
HETATM   19  C   UNL     1       3.533  30.370  55.015  1.00  0.00     0.017 A 
ENDBRANCH   4  15
ENDBRANCH   2   4
BRANCH   2  20
HETATM   20  C   UNL     1       7.022  29.624  55.937  1.00  0.00     0.173 C 
BRANCH  20  21
HETATM   21  C   UNL     1       8.370  29.700  56.604  1.00  0.00     0.000 A 
HETATM   22  S   UNL     1       9.763  29.324  55.667  1.00  0.00    -0.105 SA
HETATM   23  C   UNL     1      10.815  29.603  56.983  1.00  0.00     0.050 A 
HETATM   24  C   UNL     1      10.134  29.984  58.115  1.00  0.00     0.008 A 
HETATM   25  C   UNL     1       8.728  30.049  57.894  1.00  0.00     0.017 A 
ENDBRANCH  20  21
ENDBRANCH   2  20
BRANCH   1  26
HETATM   26  C   UNL     1       6.488  26.914  56.915  1.00  0.00     0.101 A 
HETATM   27  N   UNL     1       6.597  25.978  55.910  1.00  0.00    -0.351 N 
HETATM   28  C   UNL     1       7.658  25.126  56.133  1.00  0.00     0.043 A 
HETATM   29  H   UNL     1       6.000  25.945  55.094  1.00  0.00     0.166 HD
HETATM   30  C   UNL     1       8.265  25.564  57.298  1.00  0.00     0.033 A 
HETATM   31  C   UNL     1       7.549  26.686  57.773  1.00  0.00     0.037 A 
BRANCH  28  32
HETATM   32  C   UNL     1       8.019  24.031  55.225  1.00  0.00    -0.009 A 
HETATM   33  C   UNL     1       8.759  22.937  55.696  1.00  0.00     0.013 A 
HETATM   34  C   UNL     1       9.105  21.886  54.844  1.00  0.00     0.001 A 
HETATM   35  C   UNL     1       8.715  21.913  53.508  1.00  0.00     0.000 A 
HETATM   36  C   UNL     1       7.977  22.992  53.025  1.00  0.00     0.001 A 
HETATM   37  C   UNL     1       7.631  24.043  53.879  1.00  0.00     0.013 A 
ENDBRANCH  28  32
ENDBRANCH   1  26
TORSDOF 9
ENDMDL
MODEL 6
REMARK VINA RESULT:      -8.4      2.340      6.423
REMARK  9 active torsions:
REMARK  status: ('A' for Active; 'I' for Inactive)
REMARK    1  A    between atoms: C_4  and  C_5 
REMARK    2  A    between atoms: C_8  and  C_9 
REMARK       I    between atoms: C_9  and  N_10 
REMARK    3  A    between atoms: N_10  and  C_11 
REMARK    4  A    between atoms: N_10  and  C_26 
REMARK    5  A    between atoms: C_11  and  C_12 
REMARK    6  A    between atoms: C_11  and  C_21 
REMARK       I    between atoms: C_12  and  N_13 
REMARK    7  A    between atoms: N_13  and  C_14 
REMARK    8  A    between atoms: C_14  and  C_15 
REMARK    9  A    between atoms: C_26  and  C_27 
ROOT
HETATM    1  C   UNL     1       5.773  26.198  55.148  1.00  0.00     0.271 C 
HETATM    2  N   UNL     1       6.621  27.248  55.516  1.00  0.00    -0.324 N 
HETATM    3  O   UNL     1       5.315  25.430  55.996  1.00  0.00    -0.266 OA
ENDROOT
BRANCH   2   4
HETATM    4  C   UNL     1       7.187  27.288  56.888  1.00  0.00     0.220 C 
BRANCH   4   5
HETATM    5  C   UNL     1       7.772  25.934  57.400  1.00  0.00     0.245 C 
HETATM    6  N   UNL     1       8.159  25.031  56.436  1.00  0.00    -0.357 N 
HETATM    7  H   UNL     1       8.319  25.414  55.503  1.00  0.00     0.162 HD
HETATM    8  O   UNL     1       7.971  25.728  58.598  1.00  0.00    -0.271 OA
BRANCH   6   9
HETATM    9  C   UNL     1       8.826  23.779  56.743  1.00  0.00     0.154 C 
BRANCH   9  10
HETATM   10  C   UNL     1       8.953  22.831  55.548  1.00  0.00     0.139 C 
HETATM   11  O   UNL     1       8.558  21.488  55.898  1.00  0.00    -0.384 OA
HETATM   12  C   UNL     1       7.972  20.879  54.737  1.00  0.00     0.168 C 
HETATM   13  C   UNL     1       7.951  21.920  53.635  1.00  0.00     0.029 C 
HETATM   14  C   UNL     1       8.034  23.216  54.401  1.00  0.00     0.035 C 
ENDBRANCH   9  10
ENDBRANCH   6   9
ENDBRANCH   4   5
BRANCH   4  15
HETATM   15  C   UNL     1       8.165  28.433  57.135  1.00  0.00     0.014 A 
HETATM   16  S   UNL     1       7.880  29.610  58.364  1.00  0.00    -0.104 SA
HETATM   17  C   UNL     1       9.346  30.421  58.046  1.00  0.00     0.050 A 
HETATM   18  C   UNL     1      10.071  29.802  57.056  1.00  0.00     0.008 A 
HETATM   19  C   UNL     1       9.398  28.660  56.538  1.00  0.00     0.017 A 
ENDBRANCH   4  15
ENDBRANCH   2   4
BRANCH   2  20
HETATM   20  C   UNL     1       6.462  28.558  54.877  1.00  0.00     0.173 C 
BRANCH  20  21
HETATM   21  C   UNL     1       5.226  29.276  55.352  1.00  0.00     0.000 A 
HETATM   22  S   UNL     1       4.354  30.232  54.217  1.00  0.00    -0.105 SA
HETATM   23  C   UNL     1       3.193  30.690  55.384  1.00  0.00     0.050 A 
HETATM   24  C   UNL     1       3.448  30.127  56.612  1.00  0.00     0.008 A 
HETATM   25  C   UNL     1       4.612  29.306  56.590  1.00  0.00     0.017 A 
ENDBRANCH  20  21
ENDBRANCH   2  20
BRANCH   1  26
HETATM   26  C   UNL     1       5.417  26.062  53.751  1.00  0.00     0.101 A 
HETATM   27  N   UNL     1       5.507  27.046  52.793  1.00  0.00    -0.351 N 
HETATM   28  C   UNL     1       5.115  26.577  51.556  1.00  0.00     0.043 A 
HETATM   29  H   UNL     1       5.853  27.981  52.966  1.00  0.00     0.166 HD
HETATM   30  C   UNL     1       4.805  25.239  51.733  1.00  0.00     0.033 A 
HETATM   31  C   UNL     1       5.012  24.914  53.092  1.00  0.00     0.037 A 
BRANCH  28  32
HETATM   32  C   UNL     1       5.111  27.404  50.344  1.00  0.00    -0.009 A 
HETATM   33  C   UNL     1       4.753  26.845  49.109  1.00  0.00     0.013 A 
HETATM   34  C   UNL     1       4.740  27.622  47.947  1.00  0.00     0.001 A 
HETATM   35  C   UNL     1       5.084  28.970  48.006  1.00  0.00     0.000 A 
HETATM   36  C   UNL     1       5.440  29.541  49.226  1.00  0.00     0.001 A 
HETATM   37  C   UNL     1       5.453  28.763  50.387  1.00  0.00     0.013 A 
ENDBRANCH  28  32
ENDBRANCH   1  26
TORSDOF 9
ENDMDL
MODEL 7
REMARK VINA RESULT:      -8.4      2.855      6.497
REMARK  9 active torsions:
REMARK  status: ('A' for Active; 'I' for Inactive)
REMARK    1  A    between atoms: C_4  and  C_5 
REMARK    2  A    between atoms: C_8  and  C_9 
REMARK       I    between atoms: C_9  and  N_10 
REMARK    3  A    between atoms: N_10  and  C_11 
REMARK    4  A    between atoms: N_10  and  C_26 
REMARK    5  A    between atoms: C_11  and  C_12 
REMARK    6  A    between atoms: C_11  and  C_21 
REMARK       I    between atoms: C_12  and  N_13 
REMARK    7  A    between atoms: N_13  and  C_14 
REMARK    8  A    between atoms: C_14  and  C_15 
REMARK    9  A    between atoms: C_26  and  C_27 
ROOT
HETATM    1  C   UNL     1       7.025  27.845  57.300  1.00  0.00     0.271 C 
HETATM    2  N   UNL     1       6.717  28.907  56.443  1.00  0.00    -0.324 N 
HETATM    3  O   UNL     1       7.582  28.045  58.380  1.00  0.00    -0.266 OA
ENDROOT
BRANCH   2   4
HETATM    4  C   UNL     1       7.292  30.250  56.704  1.00  0.00     0.220 C 
BRANCH   4   5
HETATM    5  C   UNL     1       6.462  31.147  57.675  1.00  0.00     0.245 C 
HETATM    6  N   UNL     1       6.763  31.042  59.014  1.00  0.00    -0.357 N 
HETATM    7  H   UNL     1       7.674  30.639  59.236  1.00  0.00     0.162 HD
HETATM    8  O   UNL     1       5.653  31.977  57.255  1.00  0.00    -0.271 OA
BRANCH   6   9
HETATM    9  C   UNL     1       6.164  31.888  60.030  1.00  0.00     0.154 C 
BRANCH   9  10
HETATM   10  C   UNL     1       6.757  31.696  61.429  1.00  0.00     0.139 C 
HETATM   11  O   UNL     1       7.999  30.963  61.377  1.00  0.00    -0.384 OA
HETATM   12  C   UNL     1       8.842  31.441  62.437  1.00  0.00     0.168 C 
HETATM   13  C   UNL     1       8.104  32.565  63.138  1.00  0.00     0.029 C 
HETATM   14  C   UNL     1       7.114  33.014  62.094  1.00  0.00     0.035 C 
ENDBRANCH   9  10
ENDBRANCH   6   9
ENDBRANCH   4   5
BRANCH   4  15
HETATM   15  C   UNL     1       8.767  30.240  57.098  1.00  0.00     0.014 A 
HETATM   16  S   UNL     1       9.961  29.501  56.097  1.00  0.00    -0.104 SA
HETATM   17  C   UNL     1      11.234  29.949  57.139  1.00  0.00     0.050 A 
HETATM   18  C   UNL     1      10.787  30.682  58.212  1.00  0.00     0.008 A 
HETATM   19  C   UNL     1       9.373  30.853  58.186  1.00  0.00     0.017 A 
ENDBRANCH   4  15
ENDBRANCH   2   4
BRANCH   2  20
HETATM   20  C   UNL     1       5.430  28.914  55.740  1.00  0.00     0.173 C 
BRANCH  20  21
HETATM   21  C   UNL     1       5.462  28.079  54.487  1.00  0.00     0.000 A 
HETATM   22  S   UNL     1       6.871  28.147  53.501  1.00  0.00    -0.105 SA
HETATM   23  C   UNL     1       6.223  27.044  52.370  1.00  0.00     0.050 A 
HETATM   24  C   UNL     1       4.966  26.618  52.728  1.00  0.00     0.008 A 
HETATM   25  C   UNL     1       4.533  27.207  53.951  1.00  0.00     0.017 A 
ENDBRANCH  20  21
ENDBRANCH   2  20
BRANCH   1  26
HETATM   26  C   UNL     1       6.636  26.508  56.900  1.00  0.00     0.101 A 
HETATM   27  N   UNL     1       7.335  25.682  56.048  1.00  0.00    -0.351 N 
HETATM   28  C   UNL     1       6.702  24.465  55.902  1.00  0.00     0.043 A 
HETATM   29  H   UNL     1       8.217  25.922  55.616  1.00  0.00     0.166 HD
HETATM   30  C   UNL     1       5.588  24.509  56.722  1.00  0.00     0.033 A 
HETATM   31  C   UNL     1       5.557  25.772  57.357  1.00  0.00     0.037 A 
BRANCH  28  32
HETATM   32  C   UNL     1       7.219  23.383  55.056  1.00  0.00    -0.009 A 
HETATM   33  C   UNL     1       7.544  22.140  55.617  1.00  0.00     0.013 A 
HETATM   34  C   UNL     1       8.033  21.100  54.823  1.00  0.00     0.001 A 
HETATM   35  C   UNL     1       8.204  21.289  53.454  1.00  0.00     0.000 A 
HETATM   36  C   UNL     1       7.884  22.518  52.881  1.00  0.00     0.001 A 
HETATM   37  C   UNL     1       7.395  23.558  53.676  1.00  0.00     0.013 A 
ENDBRANCH  28  32
ENDBRANCH   1  26
TORSDOF 9
ENDMDL
MODEL 8
REMARK VINA RESULT:      -8.3      2.962      6.247
REMARK  9 active torsions:
REMARK  status: ('A' for Active; 'I' for Inactive)
REMARK    1  A    between atoms: C_4  and  C_5 
REMARK    2  A    between atoms: C_8  and  C_9 
REMARK       I    between atoms: C_9  and  N_10 
REMARK    3  A    between atoms: N_10  and  C_11 
REMARK    4  A    between atoms: N_10  and  C_26 
REMARK    5  A    between atoms: C_11  and  C_12 
REMARK    6  A    between atoms: C_11  and  C_21 
REMARK       I    between atoms: C_12  and  N_13 
REMARK    7  A    between atoms: N_13  and  C_14 
REMARK    8  A    between atoms: C_14  and  C_15 
REMARK    9  A    between atoms: C_26  and  C_27 
ROOT
HETATM    1  C   UNL     1       7.294  27.204  56.685  1.00  0.00     0.271 C 
HETATM    2  N   UNL     1       6.253  28.111  56.456  1.00  0.00    -0.324 N 
HETATM    3  O   UNL     1       7.925  27.221  57.743  1.00  0.00    -0.266 OA
ENDROOT
BRANCH   2   4
HETATM    4  C   UNL     1       6.074  29.267  57.370  1.00  0.00     0.220 C 
BRANCH   4   5
HETATM    5  C   UNL     1       7.398  29.922  57.874  1.00  0.00     0.245 C 
HETATM    6  N   UNL     1       7.561  30.000  59.239  1.00  0.00    -0.357 N 
HETATM    7  H   UNL     1       6.977  29.375  59.795  1.00  0.00     0.162 HD
HETATM    8  O   UNL     1       8.292  30.255  57.094  1.00  0.00    -0.271 OA
BRANCH   6   9
HETATM    9  C   UNL     1       8.781  30.475  59.866  1.00  0.00     0.154 C 
BRANCH   9  10
HETATM   10  C   UNL     1       8.569  31.636  60.841  1.00  0.00     0.139 C 
HETATM   11  O   UNL     1       7.224  32.153  60.758  1.00  0.00    -0.384 OA
HETATM   12  C   UNL     1       6.844  32.616  62.064  1.00  0.00     0.168 C 
HETATM   13  C   UNL     1       7.991  32.313  63.009  1.00  0.00     0.029 C 
HETATM   14  C   UNL     1       8.731  31.213  62.291  1.00  0.00     0.035 C 
ENDBRANCH   9  10
ENDBRANCH   6   9
ENDBRANCH   4   5
BRANCH   4  15
HETATM   15  C   UNL     1       5.099  30.327  56.864  1.00  0.00     0.014 A 
HETATM   16  S   UNL     1       3.460  30.370  57.398  1.00  0.00    -0.104 SA
HETATM   17  C   UNL     1       3.111  31.768  56.486  1.00  0.00     0.050 A 
HETATM   18  C   UNL     1       4.216  32.233  55.815  1.00  0.00     0.008 A 
HETATM   19  C   UNL     1       5.357  31.411  56.035  1.00  0.00     0.017 A 
ENDBRANCH   4  15
ENDBRANCH   2   4
BRANCH   2  20
HETATM   20  C   UNL     1       5.027  27.647  55.801  1.00  0.00     0.173 C 
BRANCH  20  21
HETATM   21  C   UNL     1       5.051  27.883  54.314  1.00  0.00     0.000 A 
HETATM   22  S   UNL     1       4.588  26.590  53.277  1.00  0.00    -0.105 SA
HETATM   23  C   UNL     1       4.849  27.525  51.872  1.00  0.00     0.050 A 
HETATM   24  C   UNL     1       5.270  28.799  52.172  1.00  0.00     0.008 A 
HETATM   25  C   UNL     1       5.377  29.007  53.578  1.00  0.00     0.017 A 
ENDBRANCH  20  21
ENDBRANCH   2  20
BRANCH   1  26
HETATM   26  C   UNL     1       7.583  26.221  55.662  1.00  0.00     0.101 A 
HETATM   27  N   UNL     1       7.660  24.859  55.846  1.00  0.00    -0.351 N 
HETATM   28  C   UNL     1       7.925  24.208  54.659  1.00  0.00     0.043 A 
HETATM   29  H   UNL     1       7.503  24.393  56.730  1.00  0.00     0.166 HD
HETATM   30  C   UNL     1       7.978  25.190  53.685  1.00  0.00     0.033 A 
HETATM   31  C   UNL     1       7.746  26.439  54.305  1.00  0.00     0.037 A 
BRANCH  28  32
HETATM   32  C   UNL     1       8.058  22.751  54.550  1.00  0.00    -0.009 A 
HETATM   33  C   UNL     1       8.000  21.948  55.698  1.00  0.00     0.013 A 
HETATM   34  C   UNL     1       8.121  20.559  55.608  1.00  0.00     0.001 A 
HETATM   35  C   UNL     1       8.300  19.953  54.367  1.00  0.00     0.000 A 
HETATM   36  C   UNL     1       8.357  20.737  53.217  1.00  0.00     0.001 A 
HETATM   37  C   UNL     1       8.236  22.126  53.308  1.00  0.00     0.013 A 
ENDBRANCH  28  32
ENDBRANCH   1  26
TORSDOF 9
ENDMDL
MODEL 9
REMARK VINA RESULT:      -8.2      1.751      2.479
REMARK  9 active torsions:
REMARK  status: ('A' for Active; 'I' for Inactive)
REMARK    1  A    between atoms: C_4  and  C_5 
REMARK    2  A    between atoms: C_8  and  C_9 
REMARK       I    between atoms: C_9  and  N_10 
REMARK    3  A    between atoms: N_10  and  C_11 
REMARK    4  A    between atoms: N_10  and  C_26 
REMARK    5  A    between atoms: C_11  and  C_12 
REMARK    6  A    between atoms: C_11  and  C_21 
REMARK       I    between atoms: C_12  and  N_13 
REMARK    7  A    between atoms: N_13  and  C_14 
REMARK    8  A    between atoms: C_14  and  C_15 
REMARK    9  A    between atoms: C_26  and  C_27 
ROOT
HETATM    1  C   UNL     1       6.105  27.753  53.646  1.00  0.00     0.271 C 
HETATM    2  N   UNL     1       5.213  28.301  54.574  1.00  0.00    -0.324 N 
HETATM    3  O   UNL     1       6.940  28.459  53.078  1.00  0.00    -0.266 OA
ENDROOT
BRANCH   2   4
HETATM    4  C   UNL     1       5.088  29.776  54.687  1.00  0.00     0.220 C 
BRANCH   4   5
HETATM    5  C   UNL     1       4.228  30.454  53.575  1.00  0.00     0.245 C 
HETATM    6  N   UNL     1       4.719  30.380  52.291  1.00  0.00    -0.357 N 
HETATM    7  H   UNL     1       5.417  29.655  52.121  1.00  0.00     0.162 HD
HETATM    8  O   UNL     1       3.121  30.937  53.819  1.00  0.00    -0.271 OA
BRANCH   6   9
HETATM    9  C   UNL     1       3.986  30.857  51.133  1.00  0.00     0.154 C 
BRANCH   9  10
HETATM   10  C   UNL     1       3.955  29.868  49.965  1.00  0.00     0.139 C 
HETATM   11  O   UNL     1       5.147  29.968  49.159  1.00  0.00    -0.384 OA
HETATM   12  C   UNL     1       5.444  28.663  48.637  1.00  0.00     0.168 C 
HETATM   13  C   UNL     1       4.416  27.701  49.200  1.00  0.00     0.029 C 
HETATM   14  C   UNL     1       3.924  28.422  50.429  1.00  0.00     0.035 C 
ENDBRANCH   9  10
ENDBRANCH   6   9
ENDBRANCH   4   5
BRANCH   4  15
HETATM   15  C   UNL     1       4.678  30.271  56.072  1.00  0.00     0.014 A 
HETATM   16  S   UNL     1       5.784  31.119  57.088  1.00  0.00    -0.104 SA
HETATM   17  C   UNL     1       4.617  31.348  58.310  1.00  0.00     0.050 A 
HETATM   18  C   UNL     1       3.393  30.833  57.955  1.00  0.00     0.008 A 
HETATM   19  C   UNL     1       3.426  30.221  56.670  1.00  0.00     0.017 A 
ENDBRANCH   4  15
ENDBRANCH   2   4
BRANCH   2  20
HETATM   20  C   UNL     1       4.907  27.560  55.801  1.00  0.00     0.173 C 
BRANCH  20  21
HETATM   21  C   UNL     1       6.152  27.080  56.501  1.00  0.00     0.000 A 
HETATM   22  S   UNL     1       6.143  25.500  57.182  1.00  0.00    -0.105 SA
HETATM   23  C   UNL     1       7.746  25.656  57.750  1.00  0.00     0.050 A 
HETATM   24  C   UNL     1       8.291  26.876  57.426  1.00  0.00     0.008 A 
HETATM   25  C   UNL     1       7.376  27.691  56.699  1.00  0.00     0.017 A 
ENDBRANCH  20  21
ENDBRANCH   2  20
BRANCH   1  26
HETATM   26  C   UNL     1       6.045  26.327  53.399  1.00  0.00     0.101 A 
HETATM   27  N   UNL     1       6.931  25.385  53.873  1.00  0.00    -0.351 N 
HETATM   28  C   UNL     1       6.570  24.115  53.476  1.00  0.00     0.043 A 
HETATM   29  H   UNL     1       7.721  25.594  54.468  1.00  0.00     0.166 HD
HETATM   30  C   UNL     1       5.393  24.255  52.760  1.00  0.00     0.033 A 
HETATM   31  C   UNL     1       5.057  25.628  52.728  1.00  0.00     0.037 A 
BRANCH  28  32
HETATM   32  C   UNL     1       7.327  22.911  53.837  1.00  0.00    -0.009 A 
HETATM   33  C   UNL     1       7.570  22.606  55.184  1.00  0.00     0.013 A 
HETATM   34  C   UNL     1       8.286  21.461  55.543  1.00  0.00     0.001 A 
HETATM   35  C   UNL     1       8.767  20.603  54.557  1.00  0.00     0.000 A 
HETATM   36  C   UNL     1       8.531  20.890  53.215  1.00  0.00     0.001 A 
HETATM   37  C   UNL     1       7.816  22.036  52.858  1.00  0.00     0.013 A 
ENDBRANCH  28  32
ENDBRANCH   1  26
TORSDOF 9
ENDMDL
MODEL 10
REMARK VINA RESULT:      -8.2      2.421      7.809
REMARK  9 active torsions:
REMARK  status: ('A' for Active; 'I' for Inactive)
REMARK    1  A    between atoms: C_4  and  C_5 
REMARK    2  A    between atoms: C_8  and  C_9 
REMARK       I    between atoms: C_9  and  N_10 
REMARK    3  A    between atoms: N_10  and  C_11 
REMARK    4  A    between atoms: N_10  and  C_26 
REMARK    5  A    between atoms: C_11  and  C_12 
REMARK    6  A    between atoms: C_11  and  C_21 
REMARK       I    between atoms: C_12  and  N_13 
REMARK    7  A    between atoms: N_13  and  C_14 
REMARK    8  A    between atoms: C_14  and  C_15 
REMARK    9  A    between atoms: C_26  and  C_27 
ROOT
HETATM    1  C   UNL     1       5.572  28.458  56.267  1.00  0.00     0.271 C 
HETATM    2  N   UNL     1       6.844  27.884  56.379  1.00  0.00    -0.324 N 
HETATM    3  O   UNL     1       4.644  27.840  55.744  1.00  0.00    -0.266 OA
ENDROOT
BRANCH   2   4
HETATM    4  C   UNL     1       7.152  26.637  55.636  1.00  0.00     0.220 C 
BRANCH   4   5
HETATM    5  C   UNL     1       7.058  25.326  56.478  1.00  0.00     0.245 C 
HETATM    6  N   UNL     1       8.052  24.395  56.274  1.00  0.00    -0.357 N 
HETATM    7  H   UNL     1       8.907  24.743  55.839  1.00  0.00     0.162 HD
HETATM    8  O   UNL     1       6.200  25.178  57.350  1.00  0.00    -0.271 OA
BRANCH   6   9
HETATM    9  C   UNL     1       8.173  23.179  57.057  1.00  0.00     0.154 C 
BRANCH   9  10
HETATM   10  C   UNL     1       7.833  21.903  56.283  1.00  0.00     0.139 C 
HETATM   11  O   UNL     1       7.515  22.193  54.905  1.00  0.00    -0.384 OA
HETATM   12  C   UNL     1       7.947  21.082  54.105  1.00  0.00     0.168 C 
HETATM   13  C   UNL     1       8.618  20.085  55.030  1.00  0.00     0.029 C 
HETATM   14  C   UNL     1       9.002  20.936  56.214  1.00  0.00     0.035 C 
ENDBRANCH   9  10
ENDBRANCH   6   9
ENDBRANCH   4   5
BRANCH   4  15
HETATM   15  C   UNL     1       6.408  26.489  54.312  1.00  0.00     0.014 A 
HETATM   16  S   UNL     1       6.643  27.605  53.018  1.00  0.00    -0.104 SA
HETATM   17  C   UNL     1       5.584  26.760  51.983  1.00  0.00     0.050 A 
HETATM   18  C   UNL     1       5.082  25.626  52.576  1.00  0.00     0.008 A 
HETATM   19  C   UNL     1       5.559  25.468  53.909  1.00  0.00     0.017 A 
ENDBRANCH   4  15
ENDBRANCH   2   4
BRANCH   2  20
HETATM   20  C   UNL     1       7.611  28.072  57.614  1.00  0.00     0.173 C 
BRANCH  20  21
HETATM   21  C   UNL     1       8.770  29.016  57.425  1.00  0.00     0.000 A 
HETATM   22  S   UNL     1       8.963  30.302  58.552  1.00  0.00    -0.105 SA
HETATM   23  C   UNL     1      10.356  30.888  57.758  1.00  0.00     0.050 A 
HETATM   24  C   UNL     1      10.684  30.123  56.663  1.00  0.00     0.008 A 
HETATM   25  C   UNL     1       9.776  29.041  56.478  1.00  0.00     0.017 A 
ENDBRANCH  20  21
ENDBRANCH   2  20
BRANCH   1  26
HETATM   26  C   UNL     1       5.368  29.782  56.818  1.00  0.00     0.101 A 
HETATM   27  N   UNL     1       5.220  30.090  58.151  1.00  0.00    -0.351 N 
HETATM   28  C   UNL     1       5.071  31.449  58.336  1.00  0.00     0.043 A 
HETATM   29  H   UNL     1       5.255  29.413  58.901  1.00  0.00     0.166 HD
HETATM   30  C   UNL     1       5.169  32.022  57.080  1.00  0.00     0.033 A 
HETATM   31  C   UNL     1       5.372  30.987  56.138  1.00  0.00     0.037 A 
BRANCH  28  32
HETATM   32  C   UNL     1       4.898  32.070  59.655  1.00  0.00    -0.009 A 
HETATM   33  C   UNL     1       6.016  32.453  60.408  1.00  0.00     0.013 A 
HETATM   34  C   UNL     1       5.865  33.049  61.663  1.00  0.00     0.001 A 
HETATM   35  C   UNL     1       4.592  33.271  62.181  1.00  0.00     0.000 A 
HETATM   36  C   UNL     1       3.471  32.898  61.444  1.00  0.00     0.001 A 
HETATM   37  C   UNL     1       3.623  32.302  60.189  1.00  0.00     0.013 A 
ENDBRANCH  28  32
ENDBRANCH   1  26
TORSDOF 9
ENDMDL
