MODEL 1
REMARK VINA RESULT:     -10.4      0.000      0.000
REMARK  8 active torsions:
REMARK  status: ('A' for Active; 'I' for Inactive)
REMARK    1  A    between atoms: C_4  and  S_5 
REMARK    2  A    between atoms: S_5  and  C_6 
REMARK    3  A    between atoms: C_6  and  C_7 
REMARK       I    between atoms: C_7  and  N_8 
REMARK    4  A    between atoms: N_8  and  C_9 
REMARK    5  A    between atoms: C_10  and  O_11 
REMARK    6  A    between atoms: C_22  and  C_23 
REMARK    7  A    between atoms: C_29  and  C_30 
REMARK       I    between atoms: C_30  and  N_31 
REMARK    8  A    between atoms: N_31  and  C_32 
ROOT
HETATM    1  C   UNL     1       9.878  30.550  58.462  1.00  0.00     0.069 C 
HETATM    2  C   UNL     1       8.459  30.377  57.971  1.00  0.00     0.019 A 
HETATM    3  N   UNL     1       8.316  29.567  56.858  1.00  0.00    -0.353 N 
HETATM    4  C   UNL     1       7.115  29.191  56.286  1.00  0.00     0.088 A 
HETATM    5  C   UNL     1       5.958  29.675  56.798  1.00  0.00     0.069 A 
HETATM    6  C   UNL     1       4.675  29.261  56.323  1.00  0.00     0.099 C 
HETATM    7  N   UNL     1       3.611  28.937  55.988  1.00  0.00    -0.192 NA
HETATM    8  C   UNL     1       5.974  30.639  57.991  1.00  0.00     0.106 A 
HETATM    9  C   UNL     1       7.367  30.927  58.557  1.00  0.00     0.046 A 
HETATM   10  H   UNL     1       9.098  28.945  56.642  1.00  0.00     0.166 HD
ENDROOT
BRANCH   4  11
HETATM   11  S   UNL     1       7.089  28.039  54.960  1.00  0.00    -0.102 SA
BRANCH  11  12
HETATM   12  C   UNL     1       7.573  26.503  55.810  1.00  0.00     0.184 C 
BRANCH  12  13
HETATM   13  C   UNL     1       6.371  25.633  56.150  1.00  0.00     0.231 C 
HETATM   14  N   UNL     1       6.189  24.422  55.550  1.00  0.00    -0.324 N 
HETATM   15  H   UNL     1       5.215  24.127  55.553  1.00  0.00     0.169 HD
HETATM   16  O   UNL     1       5.466  26.032  56.891  1.00  0.00    -0.272 OA
BRANCH  14  17
HETATM   17  C   UNL     1       7.065  23.489  54.967  1.00  0.00     0.070 A 
HETATM   18  C   UNL     1       7.149  23.491  53.556  1.00  0.00     0.095 A 
HETATM   19  C   UNL     1       7.961  22.559  52.904  1.00  0.00     0.041 A 
HETATM   20  C   UNL     1       8.671  21.614  53.646  1.00  0.00     0.026 A 
HETATM   21  C   UNL     1       8.555  21.591  55.034  1.00  0.00     0.036 A 
HETATM   22 CL   UNL     1       9.394  20.391  55.936  1.00  0.00    -0.084 Cl
HETATM   23  C   UNL     1       7.748  22.516  55.698  1.00  0.00     0.056 A 
BRANCH  18  24
HETATM   24  O   UNL     1       6.393  24.451  52.923  1.00  0.00    -0.354 OA
HETATM   25  C   UNL     1       7.071  25.339  52.041  1.00  0.00     0.210 C 
ENDBRANCH  18  24
ENDBRANCH  14  17
ENDBRANCH  12  13
ENDBRANCH  11  12
ENDBRANCH   4  11
BRANCH   8  26
HETATM   26  C   UNL     1       5.191  31.915  57.676  1.00  0.00    -0.044 A 
HETATM   27  C   UNL     1       4.217  32.377  58.580  1.00  0.00     0.008 A 
HETATM   28  C   UNL     1       3.474  33.525  58.299  1.00  0.00     0.001 A 
HETATM   29  C   UNL     1       3.691  34.222  57.115  1.00  0.00     0.000 A 
HETATM   30  C   UNL     1       4.645  33.772  56.206  1.00  0.00     0.001 A 
HETATM   31  C   UNL     1       5.389  32.622  56.481  1.00  0.00     0.008 A 
ENDBRANCH   8  26
BRANCH   9  32
HETATM   32  C   UNL     1       7.527  31.846  59.742  1.00  0.00     0.255 C 
HETATM   33  N   UNL     1       6.788  31.498  60.854  1.00  0.00    -0.323 N 
HETATM   34  H   UNL     1       6.117  30.752  60.773  1.00  0.00     0.169 HD
HETATM   35  O   UNL     1       8.256  32.830  59.659  1.00  0.00    -0.268 OA
BRANCH  33  36
HETATM   36  C   UNL     1       6.818  32.110  62.128  1.00  0.00     0.035 A 
HETATM   37  C   UNL     1       7.989  32.412  62.825  1.00  0.00     0.029 A 
HETATM   38  C   UNL     1       7.928  32.985  64.100  1.00  0.00     0.002 A 
HETATM   39  C   UNL     1       6.696  33.266  64.686  1.00  0.00     0.000 A 
HETATM   40  C   UNL     1       5.523  32.972  63.999  1.00  0.00     0.002 A 
HETATM   41  C   UNL     1       5.583  32.393  62.730  1.00  0.00     0.029 A 
ENDBRANCH  33  36
ENDBRANCH   9  32
TORSDOF 8
ENDMDL
MODEL 2
REMARK VINA RESULT:     -10.3      4.931      9.078
REMARK  8 active torsions:
REMARK  status: ('A' for Active; 'I' for Inactive)
REMARK    1  A    between atoms: C_4  and  S_5 
REMARK    2  A    between atoms: S_5  and  C_6 
REMARK    3  A    between atoms: C_6  and  C_7 
REMARK       I    between atoms: C_7  and  N_8 
REMARK    4  A    between atoms: N_8  and  C_9 
REMARK    5  A    between atoms: C_10  and  O_11 
REMARK    6  A    between atoms: C_22  and  C_23 
REMARK    7  A    between atoms: C_29  and  C_30 
REMARK       I    between atoms: C_30  and  N_31 
REMARK    8  A    between atoms: N_31  and  C_32 
ROOT
HETATM    1  C   UNL     1       5.923  25.974  50.901  1.00  0.00     0.069 C 
HETATM    2  C   UNL     1       5.648  26.703  52.197  1.00  0.00     0.019 A 
HETATM    3  N   UNL     1       4.789  27.783  52.094  1.00  0.00    -0.353 N 
HETATM    4  C   UNL     1       4.321  28.542  53.151  1.00  0.00     0.088 A 
HETATM    5  C   UNL     1       4.754  28.269  54.405  1.00  0.00     0.069 A 
HETATM    6  C   UNL     1       4.247  28.945  55.558  1.00  0.00     0.099 C 
HETATM    7  N   UNL     1       3.848  29.448  56.525  1.00  0.00    -0.192 NA
HETATM    8  C   UNL     1       5.762  27.139  54.654  1.00  0.00     0.106 A 
HETATM    9  C   UNL     1       6.153  26.348  53.403  1.00  0.00     0.046 A 
HETATM   10  H   UNL     1       4.207  27.826  51.255  1.00  0.00     0.166 HD
ENDROOT
BRANCH   4  11
HETATM   11  S   UNL     1       3.120  29.794  52.877  1.00  0.00    -0.102 SA
BRANCH  11  12
HETATM   12  C   UNL     1       3.592  30.389  51.222  1.00  0.00     0.184 C 
BRANCH  12  13
HETATM   13  C   UNL     1       2.414  30.392  50.257  1.00  0.00     0.231 C 
HETATM   14  N   UNL     1       2.488  29.751  49.056  1.00  0.00    -0.324 N 
HETATM   15  H   UNL     1       1.838  30.129  48.370  1.00  0.00     0.169 HD
HETATM   16  O   UNL     1       1.397  31.062  50.472  1.00  0.00    -0.272 OA
BRANCH  14  17
HETATM   17  C   UNL     1       3.242  28.661  48.587  1.00  0.00     0.070 A 
HETATM   18  C   UNL     1       4.450  28.964  47.917  1.00  0.00     0.095 A 
HETATM   19  C   UNL     1       5.227  27.935  47.379  1.00  0.00     0.041 A 
HETATM   20  C   UNL     1       4.799  26.610  47.485  1.00  0.00     0.026 A 
HETATM   21  C   UNL     1       3.590  26.319  48.111  1.00  0.00     0.036 A 
HETATM   22 CL   UNL     1       3.046  24.689  48.193  1.00  0.00    -0.084 Cl
HETATM   23  C   UNL     1       2.803  27.337  48.653  1.00  0.00     0.056 A 
BRANCH  18  24
HETATM   24  O   UNL     1       4.766  30.301  47.852  1.00  0.00    -0.354 OA
HETATM   25  C   UNL     1       4.688  30.929  46.577  1.00  0.00     0.210 C 
ENDBRANCH  18  24
ENDBRANCH  14  17
ENDBRANCH  12  13
ENDBRANCH  11  12
ENDBRANCH   4  11
BRANCH   8  26
HETATM   26  C   UNL     1       6.976  27.650  55.433  1.00  0.00    -0.044 A 
HETATM   27  C   UNL     1       7.235  27.156  56.724  1.00  0.00     0.008 A 
HETATM   28  C   UNL     1       8.323  27.628  57.461  1.00  0.00     0.001 A 
HETATM   29  C   UNL     1       9.162  28.597  56.920  1.00  0.00     0.000 A 
HETATM   30  C   UNL     1       8.913  29.102  55.646  1.00  0.00     0.001 A 
HETATM   31  C   UNL     1       7.824  28.635  54.907  1.00  0.00     0.008 A 
ENDBRANCH   8  26
BRANCH   9  32
HETATM   32  C   UNL     1       7.124  25.199  53.509  1.00  0.00     0.255 C 
HETATM   33  N   UNL     1       6.619  24.060  54.101  1.00  0.00    -0.323 N 
HETATM   34  H   UNL     1       5.706  24.101  54.524  1.00  0.00     0.169 HD
HETATM   35  O   UNL     1       8.275  25.331  53.103  1.00  0.00    -0.268 OA
BRANCH  33  36
HETATM   36  C   UNL     1       7.262  22.809  54.240  1.00  0.00     0.035 A 
HETATM   37  C   UNL     1       7.644  22.002  53.167  1.00  0.00     0.029 A 
HETATM   38  C   UNL     1       8.243  20.758  53.392  1.00  0.00     0.002 A 
HETATM   39  C   UNL     1       8.470  20.313  54.693  1.00  0.00     0.000 A 
HETATM   40  C   UNL     1       8.095  21.110  55.770  1.00  0.00     0.002 A 
HETATM   41  C   UNL     1       7.490  22.349  55.544  1.00  0.00     0.029 A 
ENDBRANCH  33  36
ENDBRANCH   9  32
TORSDOF 8
ENDMDL
MODEL 3
REMARK VINA RESULT:     -10.1      1.745      3.468
REMARK  8 active torsions:
REMARK  status: ('A' for Active; 'I' for Inactive)
REMARK    1  A    between atoms: C_4  and  S_5 
REMARK    2  A    between atoms: S_5  and  C_6 
REMARK    3  A    between atoms: C_6  and  C_7 
REMARK       I    between atoms: C_7  and  N_8 
REMARK    4  A    between atoms: N_8  and  C_9 
REMARK    5  A    between atoms: C_10  and  O_11 
REMARK    6  A    between atoms: C_22  and  C_23 
REMARK    7  A    between atoms: C_29  and  C_30 
REMARK       I    between atoms: C_30  and  N_31 
REMARK    8  A    between atoms: N_31  and  C_32 
ROOT
HETATM    1  C   UNL     1       3.984  30.138  57.637  1.00  0.00     0.069 C 
HETATM    2  C   UNL     1       5.496  30.123  57.623  1.00  0.00     0.019 A 
HETATM    3  N   UNL     1       6.069  29.031  56.993  1.00  0.00    -0.353 N 
HETATM    4  C   UNL     1       7.421  28.845  56.778  1.00  0.00     0.088 A 
HETATM    5  C   UNL     1       8.299  29.763  57.251  1.00  0.00     0.069 A 
HETATM    6  C   UNL     1       9.702  29.690  56.988  1.00  0.00     0.099 C 
HETATM    7  N   UNL     1      10.845  29.688  56.781  1.00  0.00    -0.192 NA
HETATM    8  C   UNL     1       7.804  30.989  58.028  1.00  0.00     0.106 A 
HETATM    9  C   UNL     1       6.281  31.096  58.146  1.00  0.00     0.046 A 
HETATM   10  H   UNL     1       5.465  28.499  56.364  1.00  0.00     0.166 HD
ENDROOT
BRANCH   4  11
HETATM   11  S   UNL     1       7.987  27.476  55.835  1.00  0.00    -0.102 SA
BRANCH  11  12
HETATM   12  C   UNL     1       7.572  26.086  56.936  1.00  0.00     0.184 C 
BRANCH  12  13
HETATM   13  C   UNL     1       6.222  25.469  56.596  1.00  0.00     0.231 C 
HETATM   14  N   UNL     1       6.101  24.554  55.593  1.00  0.00    -0.324 N 
HETATM   15  H   UNL     1       5.157  24.511  55.214  1.00  0.00     0.169 HD
HETATM   16  O   UNL     1       5.177  25.851  57.135  1.00  0.00    -0.272 OA
BRANCH  14  17
HETATM   17  C   UNL     1       6.992  23.638  55.006  1.00  0.00     0.070 A 
HETATM   18  C   UNL     1       7.157  23.721  53.604  1.00  0.00     0.095 A 
HETATM   19  C   UNL     1       7.988  22.812  52.944  1.00  0.00     0.041 A 
HETATM   20  C   UNL     1       8.637  21.810  53.667  1.00  0.00     0.026 A 
HETATM   21  C   UNL     1       8.441  21.707  55.042  1.00  0.00     0.036 A 
HETATM   22 CL   UNL     1       9.205  20.438  55.917  1.00  0.00    -0.084 Cl
HETATM   23  C   UNL     1       7.614  22.608  55.714  1.00  0.00     0.056 A 
BRANCH  18  24
HETATM   24  O   UNL     1       6.457  24.732  52.989  1.00  0.00    -0.354 OA
HETATM   25  C   UNL     1       6.993  25.254  51.778  1.00  0.00     0.210 C 
ENDBRANCH  18  24
ENDBRANCH  14  17
ENDBRANCH  12  13
ENDBRANCH  11  12
ENDBRANCH   4  11
BRANCH   8  26
HETATM   26  C   UNL     1       8.510  31.103  59.381  1.00  0.00    -0.044 A 
HETATM   27  C   UNL     1       8.370  30.074  60.329  1.00  0.00     0.008 A 
HETATM   28  C   UNL     1       8.984  30.171  61.579  1.00  0.00     0.001 A 
HETATM   29  C   UNL     1       9.743  31.293  61.897  1.00  0.00     0.000 A 
HETATM   30  C   UNL     1       9.883  32.324  60.971  1.00  0.00     0.001 A 
HETATM   31  C   UNL     1       9.267  32.233  59.721  1.00  0.00     0.008 A 
ENDBRANCH   8  26
BRANCH   9  32
HETATM   32  C   UNL     1       5.659  32.263  58.871  1.00  0.00     0.255 C 
HETATM   33  N   UNL     1       5.364  32.035  60.199  1.00  0.00    -0.323 N 
HETATM   34  H   UNL     1       5.464  31.101  60.562  1.00  0.00     0.169 HD
HETATM   35  O   UNL     1       5.429  33.306  58.267  1.00  0.00    -0.268 OA
BRANCH  33  36
HETATM   36  C   UNL     1       4.876  32.969  61.141  1.00  0.00     0.035 A 
HETATM   37  C   UNL     1       5.670  33.915  61.791  1.00  0.00     0.029 A 
HETATM   38  C   UNL     1       5.113  34.780  62.739  1.00  0.00     0.002 A 
HETATM   39  C   UNL     1       3.755  34.710  63.040  1.00  0.00     0.000 A 
HETATM   40  C   UNL     1       2.953  33.772  62.397  1.00  0.00     0.002 A 
HETATM   41  C   UNL     1       3.511  32.904  61.456  1.00  0.00     0.029 A 
ENDBRANCH  33  36
ENDBRANCH   9  32
TORSDOF 8
ENDMDL
MODEL 4
REMARK VINA RESULT:      -9.9      5.451      9.659
REMARK  8 active torsions:
REMARK  status: ('A' for Active; 'I' for Inactive)
REMARK    1  A    between atoms: C_4  and  S_5 
REMARK    2  A    between atoms: S_5  and  C_6 
REMARK    3  A    between atoms: C_6  and  C_7 
REMARK       I    between atoms: C_7  and  N_8 
REMARK    4  A    between atoms: N_8  and  C_9 
REMARK    5  A    between atoms: C_10  and  O_11 
REMARK    6  A    between atoms: C_22  and  C_23 
REMARK    7  A    between atoms: C_29  and  C_30 
REMARK       I    between atoms: C_30  and  N_31 
REMARK    8  A    between atoms: N_31  and  C_32 
ROOT
HETATM    1  C   UNL     1       5.071  26.310  50.391  1.00  0.00     0.069 C 
HETATM    2  C   UNL     1       4.890  27.234  51.574  1.00  0.00     0.019 A 
HETATM    3  N   UNL     1       4.675  28.564  51.256  1.00  0.00    -0.353 N 
HETATM    4  C   UNL     1       4.396  29.572  52.160  1.00  0.00     0.088 A 
HETATM    5  C   UNL     1       4.367  29.285  53.483  1.00  0.00     0.069 A 
HETATM    6  C   UNL     1       3.994  30.249  54.470  1.00  0.00     0.099 C 
HETATM    7  N   UNL     1       3.674  30.990  55.306  1.00  0.00    -0.192 NA
HETATM    8  C   UNL     1       4.655  27.863  53.981  1.00  0.00     0.106 A 
HETATM    9  C   UNL     1       4.897  26.837  52.870  1.00  0.00     0.046 A 
HETATM   10  H   UNL     1       4.378  28.762  50.298  1.00  0.00     0.166 HD
ENDROOT
BRANCH   4  11
HETATM   11  S   UNL     1       4.004  31.186  51.590  1.00  0.00    -0.102 SA
BRANCH  11  12
HETATM   12  C   UNL     1       2.643  30.839  50.431  1.00  0.00     0.184 C 
BRANCH  12  13
HETATM   13  C   UNL     1       2.881  31.463  49.063  1.00  0.00     0.231 C 
HETATM   14  N   UNL     1       2.909  30.696  47.937  1.00  0.00    -0.324 N 
HETATM   15  H   UNL     1       3.437  31.130  47.182  1.00  0.00     0.169 HD
HETATM   16  O   UNL     1       3.165  32.659  48.934  1.00  0.00    -0.272 OA
BRANCH  14  17
HETATM   17  C   UNL     1       2.333  29.461  47.593  1.00  0.00     0.070 A 
HETATM   18  C   UNL     1       3.177  28.328  47.649  1.00  0.00     0.095 A 
HETATM   19  C   UNL     1       2.689  27.074  47.274  1.00  0.00     0.041 A 
HETATM   20  C   UNL     1       1.374  26.945  46.824  1.00  0.00     0.026 A 
HETATM   21  C   UNL     1       0.558  28.069  46.732  1.00  0.00     0.036 A 
HETATM   22 CL   UNL     1      -1.045  27.908  46.128  1.00  0.00    -0.084 Cl
HETATM   23  C   UNL     1       1.032  29.328  47.104  1.00  0.00     0.056 A 
BRANCH  18  24
HETATM   24  O   UNL     1       4.458  28.571  48.088  1.00  0.00    -0.354 OA
HETATM   25  C   UNL     1       5.527  28.117  47.264  1.00  0.00     0.210 C 
ENDBRANCH  18  24
ENDBRANCH  14  17
ENDBRANCH  12  13
ENDBRANCH  11  12
ENDBRANCH   4  11
BRANCH   8  26
HETATM   26  C   UNL     1       5.764  27.864  55.034  1.00  0.00    -0.044 A 
HETATM   27  C   UNL     1       7.035  28.373  54.709  1.00  0.00     0.008 A 
HETATM   28  C   UNL     1       8.068  28.360  55.648  1.00  0.00     0.001 A 
HETATM   29  C   UNL     1       7.846  27.838  56.919  1.00  0.00     0.000 A 
HETATM   30  C   UNL     1       6.596  27.322  57.253  1.00  0.00     0.001 A 
HETATM   31  C   UNL     1       5.561  27.330  56.315  1.00  0.00     0.008 A 
ENDBRANCH   8  26
BRANCH   9  32
HETATM   32  C   UNL     1       5.175  25.396  53.219  1.00  0.00     0.255 C 
HETATM   33  N   UNL     1       6.505  25.092  53.425  1.00  0.00    -0.323 N 
HETATM   34  H   UNL     1       7.198  25.792  53.218  1.00  0.00     0.169 HD
HETATM   35  O   UNL     1       4.250  24.592  53.277  1.00  0.00    -0.268 OA
BRANCH  33  36
HETATM   36  C   UNL     1       7.044  23.859  53.859  1.00  0.00     0.035 A 
HETATM   37  C   UNL     1       7.129  23.470  55.197  1.00  0.00     0.029 A 
HETATM   38  C   UNL     1       7.712  22.246  55.544  1.00  0.00     0.002 A 
HETATM   39  C   UNL     1       8.210  21.400  54.556  1.00  0.00     0.000 A 
HETATM   40  C   UNL     1       8.128  21.777  53.220  1.00  0.00     0.002 A 
HETATM   41  C   UNL     1       7.553  23.002  52.874  1.00  0.00     0.029 A 
ENDBRANCH  33  36
ENDBRANCH   9  32
TORSDOF 8
ENDMDL
MODEL 5
REMARK VINA RESULT:      -9.9      2.274      4.050
REMARK  8 active torsions:
REMARK  status: ('A' for Active; 'I' for Inactive)
REMARK    1  A    between atoms: C_4  and  S_5 
REMARK    2  A    between atoms: S_5  and  C_6 
REMARK    3  A    between atoms: C_6  and  C_7 
REMARK       I    between atoms: C_7  and  N_8 
REMARK    4  A    between atoms: N_8  and  C_9 
REMARK    5  A    between atoms: C_10  and  O_11 
REMARK    6  A    between atoms: C_22  and  C_23 
REMARK    7  A    between atoms: C_29  and  C_30 
REMARK       I    between atoms: C_30  and  N_31 
REMARK    8  A    between atoms: N_31  and  C_32 
ROOT
HETATM    1  C   UNL     1       3.841  30.536  57.802  1.00  0.00     0.069 C 
HETATM    2  C   UNL     1       5.347  30.430  57.741  1.00  0.00     0.019 A 
HETATM    3  N   UNL     1       5.834  29.315  57.082  1.00  0.00    -0.353 N 
HETATM    4  C   UNL     1       7.166  29.051  56.823  1.00  0.00     0.088 A 
HETATM    5  C   UNL     1       8.111  29.908  57.277  1.00  0.00     0.069 A 
HETATM    6  C   UNL     1       9.499  29.755  56.970  1.00  0.00     0.099 C 
HETATM    7  N   UNL     1      10.632  29.687  56.728  1.00  0.00    -0.192 NA
HETATM    8  C   UNL     1       7.715  31.153  58.082  1.00  0.00     0.106 A 
HETATM    9  C   UNL     1       6.206  31.348  58.249  1.00  0.00     0.046 A 
HETATM   10  H   UNL     1       5.181  28.827  56.466  1.00  0.00     0.166 HD
ENDROOT
BRANCH   4  11
HETATM   11  S   UNL     1       7.619  27.662  55.848  1.00  0.00    -0.102 SA
BRANCH  11  12
HETATM   12  C   UNL     1       6.775  26.312  56.732  1.00  0.00     0.184 C 
BRANCH  12  13
HETATM   13  C   UNL     1       7.760  25.337  57.365  1.00  0.00     0.231 C 
HETATM   14  N   UNL     1       7.996  24.117  56.805  1.00  0.00    -0.324 N 
HETATM   15  H   UNL     1       8.343  23.438  57.480  1.00  0.00     0.169 HD
HETATM   16  O   UNL     1       8.293  25.566  58.456  1.00  0.00    -0.272 OA
BRANCH  14  17
HETATM   17  C   UNL     1       7.899  23.618  55.494  1.00  0.00     0.070 A 
HETATM   18  C   UNL     1       8.023  22.218  55.336  1.00  0.00     0.095 A 
HETATM   19  C   UNL     1       7.987  21.655  54.058  1.00  0.00     0.041 A 
HETATM   20  C   UNL     1       7.848  22.477  52.938  1.00  0.00     0.026 A 
HETATM   21  C   UNL     1       7.766  23.858  53.096  1.00  0.00     0.036 A 
HETATM   22 CL   UNL     1       7.647  24.866  51.706  1.00  0.00    -0.084 Cl
HETATM   23  C   UNL     1       7.801  24.434  54.366  1.00  0.00     0.056 A 
BRANCH  18  24
HETATM   24  O   UNL     1       8.175  21.506  56.503  1.00  0.00    -0.354 OA
HETATM   25  C   UNL     1       8.786  20.224  56.410  1.00  0.00     0.210 C 
ENDBRANCH  18  24
ENDBRANCH  14  17
ENDBRANCH  12  13
ENDBRANCH  11  12
ENDBRANCH   4  11
BRANCH   8  26
HETATM   26  C   UNL     1       8.467  31.207  59.414  1.00  0.00    -0.044 A 
HETATM   27  C   UNL     1       8.316  30.163  60.344  1.00  0.00     0.008 A 
HETATM   28  C   UNL     1       8.973  30.206  61.575  1.00  0.00     0.001 A 
HETATM   29  C   UNL     1       9.786  31.290  61.892  1.00  0.00     0.000 A 
HETATM   30  C   UNL     1       9.939  32.336  60.984  1.00  0.00     0.001 A 
HETATM   31  C   UNL     1       9.280  32.298  59.754  1.00  0.00     0.008 A 
ENDBRANCH   8  26
BRANCH   9  32
HETATM   32  C   UNL     1       5.677  32.541  59.005  1.00  0.00     0.255 C 
HETATM   33  N   UNL     1       5.519  32.349  60.362  1.00  0.00    -0.323 N 
HETATM   34  H   UNL     1       5.643  31.422  60.736  1.00  0.00     0.169 HD
HETATM   35  O   UNL     1       5.401  33.574  58.403  1.00  0.00    -0.268 OA
BRANCH  33  36
HETATM   36  C   UNL     1       5.142  33.312  61.326  1.00  0.00     0.035 A 
HETATM   37  C   UNL     1       3.826  33.708  61.565  1.00  0.00     0.029 A 
HETATM   38  C   UNL     1       3.542  34.697  62.513  1.00  0.00     0.002 A 
HETATM   39  C   UNL     1       4.574  35.294  63.235  1.00  0.00     0.000 A 
HETATM   40  C   UNL     1       5.890  34.905  63.007  1.00  0.00     0.002 A 
HETATM   41  C   UNL     1       6.173  33.923  62.054  1.00  0.00     0.029 A 
ENDBRANCH  33  36
ENDBRANCH   9  32
TORSDOF 8
ENDMDL
MODEL 6
REMARK VINA RESULT:      -9.8      5.448      9.627
REMARK  8 active torsions:
REMARK  status: ('A' for Active; 'I' for Inactive)
REMARK    1  A    between atoms: C_4  and  S_5 
REMARK    2  A    between atoms: S_5  and  C_6 
REMARK    3  A    between atoms: C_6  and  C_7 
REMARK       I    between atoms: C_7  and  N_8 
REMARK    4  A    between atoms: N_8  and  C_9 
REMARK    5  A    between atoms: C_10  and  O_11 
REMARK    6  A    between atoms: C_22  and  C_23 
REMARK    7  A    between atoms: C_29  and  C_30 
REMARK       I    between atoms: C_30  and  N_31 
REMARK    8  A    between atoms: N_31  and  C_32 
ROOT
HETATM    1  C   UNL     1       5.296  26.300  50.289  1.00  0.00     0.069 C 
HETATM    2  C   UNL     1       5.026  27.238  51.443  1.00  0.00     0.019 A 
HETATM    3  N   UNL     1       4.825  28.562  51.092  1.00  0.00    -0.353 N 
HETATM    4  C   UNL     1       4.475  29.580  51.959  1.00  0.00     0.088 A 
HETATM    5  C   UNL     1       4.355  29.311  53.281  1.00  0.00     0.069 A 
HETATM    6  C   UNL     1       3.906  30.285  54.226  1.00  0.00     0.099 C 
HETATM    7  N   UNL     1       3.522  31.035  55.026  1.00  0.00    -0.192 NA
HETATM    8  C   UNL     1       4.616  27.898  53.818  1.00  0.00     0.106 A 
HETATM    9  C   UNL     1       4.943  26.859  52.742  1.00  0.00     0.046 A 
HETATM   10  H   UNL     1       4.595  28.744  50.113  1.00  0.00     0.166 HD
ENDROOT
BRANCH   4  11
HETATM   11  S   UNL     1       4.113  31.183  51.340  1.00  0.00    -0.102 SA
BRANCH  11  12
HETATM   12  C   UNL     1       2.985  30.792  49.965  1.00  0.00     0.184 C 
BRANCH  12  13
HETATM   13  C   UNL     1       3.581  31.159  48.613  1.00  0.00     0.231 C 
HETATM   14  N   UNL     1       3.639  30.247  47.601  1.00  0.00    -0.324 N 
HETATM   15  H   UNL     1       4.368  30.461  46.924  1.00  0.00     0.169 HD
HETATM   16  O   UNL     1       4.130  32.249  48.417  1.00  0.00    -0.272 OA
BRANCH  14  17
HETATM   17  C   UNL     1       2.882  29.106  47.282  1.00  0.00     0.070 A 
HETATM   18  C   UNL     1       1.565  29.325  46.817  1.00  0.00     0.095 A 
HETATM   19  C   UNL     1       0.737  28.238  46.528  1.00  0.00     0.041 A 
HETATM   20  C   UNL     1       1.204  26.937  46.718  1.00  0.00     0.026 A 
HETATM   21  C   UNL     1       2.488  26.725  47.214  1.00  0.00     0.036 A 
HETATM   22 CL   UNL     1       3.036  25.118  47.493  1.00  0.00    -0.084 Cl
HETATM   23  C   UNL     1       3.326  27.801  47.507  1.00  0.00     0.056 A 
BRANCH  18  24
HETATM   24  O   UNL     1       1.201  30.645  46.685  1.00  0.00    -0.354 OA
HETATM   25  C   UNL     1       0.023  31.068  47.362  1.00  0.00     0.210 C 
ENDBRANCH  18  24
ENDBRANCH  14  17
ENDBRANCH  12  13
ENDBRANCH  11  12
ENDBRANCH   4  11
BRANCH   8  26
HETATM   26  C   UNL     1       5.649  27.922  54.947  1.00  0.00    -0.044 A 
HETATM   27  C   UNL     1       6.961  28.355  54.684  1.00  0.00     0.008 A 
HETATM   28  C   UNL     1       7.924  28.361  55.694  1.00  0.00     0.001 A 
HETATM   29  C   UNL     1       7.591  27.934  56.976  1.00  0.00     0.000 A 
HETATM   30  C   UNL     1       6.298  27.494  57.249  1.00  0.00     0.001 A 
HETATM   31  C   UNL     1       5.333  27.483  56.241  1.00  0.00     0.008 A 
ENDBRANCH   8  26
BRANCH   9  32
HETATM   32  C   UNL     1       5.206  25.425  53.130  1.00  0.00     0.255 C 
HETATM   33  N   UNL     1       6.532  25.114  53.350  1.00  0.00    -0.323 N 
HETATM   34  H   UNL     1       7.233  25.803  53.128  1.00  0.00     0.169 HD
HETATM   35  O   UNL     1       4.274  24.631  53.204  1.00  0.00    -0.268 OA
BRANCH  33  36
HETATM   36  C   UNL     1       7.058  23.889  53.820  1.00  0.00     0.035 A 
HETATM   37  C   UNL     1       7.125  23.530  55.167  1.00  0.00     0.029 A 
HETATM   38  C   UNL     1       7.695  22.311  55.550  1.00  0.00     0.002 A 
HETATM   39  C   UNL     1       8.198  21.438  54.588  1.00  0.00     0.000 A 
HETATM   40  C   UNL     1       8.134  21.784  53.242  1.00  0.00     0.002 A 
HETATM   41  C   UNL     1       7.572  23.005  52.861  1.00  0.00     0.029 A 
ENDBRANCH  33  36
ENDBRANCH   9  32
TORSDOF 8
ENDMDL
MODEL 7
REMARK VINA RESULT:      -9.7      1.777      2.501
REMARK  8 active torsions:
REMARK  status: ('A' for Active; 'I' for Inactive)
REMARK    1  A    between atoms: C_4  and  S_5 
REMARK    2  A    between atoms: S_5  and  C_6 
REMARK    3  A    between atoms: C_6  and  C_7 
REMARK       I    between atoms: C_7  and  N_8 
REMARK    4  A    between atoms: N_8  and  C_9 
REMARK    5  A    between atoms: C_10  and  O_11 
REMARK    6  A    between atoms: C_22  and  C_23 
REMARK    7  A    between atoms: C_29  and  C_30 
REMARK       I    between atoms: C_30  and  N_31 
REMARK    8  A    between atoms: N_31  and  C_32 
ROOT
HETATM    1  C   UNL     1       8.093  29.574  58.098  1.00  0.00     0.069 C 
HETATM    2  C   UNL     1       6.782  30.154  57.619  1.00  0.00     0.019 A 
HETATM    3  N   UNL     1       6.203  29.496  56.547  1.00  0.00    -0.353 N 
HETATM    4  C   UNL     1       4.969  29.787  55.997  1.00  0.00     0.088 A 
HETATM    5  C   UNL     1       4.253  30.826  56.488  1.00  0.00     0.069 A 
HETATM    6  C   UNL     1       2.931  31.130  56.037  1.00  0.00     0.099 C 
HETATM    7  N   UNL     1       1.847  31.401  55.721  1.00  0.00    -0.192 NA
HETATM    8  C   UNL     1       4.806  31.684  57.633  1.00  0.00     0.106 A 
HETATM    9  C   UNL     1       6.158  31.218  58.181  1.00  0.00     0.046 A 
HETATM   10  H   UNL     1       6.536  28.548  56.360  1.00  0.00     0.166 HD
ENDROOT
BRANCH   4  11
HETATM   11  S   UNL     1       4.305  28.768  54.729  1.00  0.00    -0.102 SA
BRANCH  11  12
HETATM   12  C   UNL     1       5.368  27.296  54.857  1.00  0.00     0.184 C 
BRANCH  12  13
HETATM   13  C   UNL     1       6.562  27.367  53.915  1.00  0.00     0.231 C 
HETATM   14  N   UNL     1       7.565  26.446  53.983  1.00  0.00    -0.324 N 
HETATM   15  H   UNL     1       8.443  26.796  53.606  1.00  0.00     0.169 HD
HETATM   16  O   UNL     1       6.723  28.314  53.137  1.00  0.00    -0.272 OA
BRANCH  14  17
HETATM   17  C   UNL     1       7.627  25.113  54.426  1.00  0.00     0.070 A 
HETATM   18  C   UNL     1       7.887  24.912  55.802  1.00  0.00     0.095 A 
HETATM   19  C   UNL     1       8.013  23.615  56.305  1.00  0.00     0.041 A 
HETATM   20  C   UNL     1       7.901  22.520  55.446  1.00  0.00     0.026 A 
HETATM   21  C   UNL     1       7.683  22.724  54.086  1.00  0.00     0.036 A 
HETATM   22 CL   UNL     1       7.598  21.370  53.028  1.00  0.00    -0.084 Cl
HETATM   23  C   UNL     1       7.556  24.014  53.569  1.00  0.00     0.056 A 
BRANCH  18  24
HETATM   24  O   UNL     1       7.999  26.059  56.553  1.00  0.00    -0.354 OA
HETATM   25  C   UNL     1       7.308  26.093  57.797  1.00  0.00     0.210 C 
ENDBRANCH  18  24
ENDBRANCH  14  17
ENDBRANCH  12  13
ENDBRANCH  11  12
ENDBRANCH   4  11
BRANCH   8  26
HETATM   26  C   UNL     1       4.801  33.168  57.259  1.00  0.00    -0.044 A 
HETATM   27  C   UNL     1       4.382  34.124  58.202  1.00  0.00     0.008 A 
HETATM   28  C   UNL     1       4.346  35.479  57.872  1.00  0.00     0.001 A 
HETATM   29  C   UNL     1       4.725  35.896  56.599  1.00  0.00     0.000 A 
HETATM   30  C   UNL     1       5.133  34.960  55.652  1.00  0.00     0.001 A 
HETATM   31  C   UNL     1       5.168  33.603  55.977  1.00  0.00     0.008 A 
ENDBRANCH   8  26
BRANCH   9  32
HETATM   32  C   UNL     1       6.810  31.962  59.320  1.00  0.00     0.255 C 
HETATM   33  N   UNL     1       6.101  31.952  60.504  1.00  0.00    -0.323 N 
HETATM   34  H   UNL     1       5.170  31.570  60.506  1.00  0.00     0.169 HD
HETATM   35  O   UNL     1       7.879  32.537  59.143  1.00  0.00    -0.268 OA
BRANCH  33  36
HETATM   36  C   UNL     1       6.512  32.474  61.752  1.00  0.00     0.035 A 
HETATM   37  C   UNL     1       5.939  33.592  62.360  1.00  0.00     0.029 A 
HETATM   38  C   UNL     1       6.430  34.066  63.582  1.00  0.00     0.002 A 
HETATM   39  C   UNL     1       7.495  33.422  64.208  1.00  0.00     0.000 A 
HETATM   40  C   UNL     1       8.072  32.305  63.612  1.00  0.00     0.002 A 
HETATM   41  C   UNL     1       7.586  31.837  62.388  1.00  0.00     0.029 A 
ENDBRANCH  33  36
ENDBRANCH   9  32
TORSDOF 8
ENDMDL
MODEL 8
REMARK VINA RESULT:      -9.5      3.632     10.536
REMARK  8 active torsions:
REMARK  status: ('A' for Active; 'I' for Inactive)
REMARK    1  A    between atoms: C_4  and  S_5 
REMARK    2  A    between atoms: S_5  and  C_6 
REMARK    3  A    between atoms: C_6  and  C_7 
REMARK       I    between atoms: C_7  and  N_8 
REMARK    4  A    between atoms: N_8  and  C_9 
REMARK    5  A    between atoms: C_10  and  O_11 
REMARK    6  A    between atoms: C_22  and  C_23 
REMARK    7  A    between atoms: C_29  and  C_30 
REMARK       I    between atoms: C_30  and  N_31 
REMARK    8  A    between atoms: N_31  and  C_32 
ROOT
HETATM    1  C   UNL     1       4.242  31.153  53.378  1.00  0.00     0.069 C 
HETATM    2  C   UNL     1       4.727  29.913  54.092  1.00  0.00     0.019 A 
HETATM    3  N   UNL     1       5.426  30.143  55.265  1.00  0.00    -0.353 N 
HETATM    4  C   UNL     1       5.886  29.169  56.131  1.00  0.00     0.088 A 
HETATM    5  C   UNL     1       5.700  27.864  55.819  1.00  0.00     0.069 A 
HETATM    6  C   UNL     1       6.061  26.802  56.706  1.00  0.00     0.099 C 
HETATM    7  N   UNL     1       6.315  25.908  57.402  1.00  0.00    -0.192 NA
HETATM    8  C   UNL     1       4.999  27.465  54.514  1.00  0.00     0.106 A 
HETATM    9  C   UNL     1       4.495  28.643  53.677  1.00  0.00     0.046 A 
HETATM   10  H   UNL     1       5.313  31.065  55.690  1.00  0.00     0.166 HD
ENDROOT
BRANCH   4  11
HETATM   11  S   UNL     1       6.631  29.622  57.655  1.00  0.00    -0.102 SA
BRANCH  11  12
HETATM   12  C   UNL     1       5.348  30.691  58.380  1.00  0.00     0.184 C 
BRANCH  12  13
HETATM   13  C   UNL     1       5.699  32.168  58.263  1.00  0.00     0.231 C 
HETATM   14  N   UNL     1       6.096  32.883  59.353  1.00  0.00    -0.324 N 
HETATM   15  H   UNL     1       5.930  33.882  59.248  1.00  0.00     0.169 HD
HETATM   16  O   UNL     1       5.532  32.796  57.211  1.00  0.00    -0.272 OA
BRANCH  14  17
HETATM   17  C   UNL     1       6.718  32.535  60.566  1.00  0.00     0.070 A 
HETATM   18  C   UNL     1       6.353  33.287  61.706  1.00  0.00     0.095 A 
HETATM   19  C   UNL     1       6.966  33.031  62.936  1.00  0.00     0.041 A 
HETATM   20  C   UNL     1       7.951  32.047  63.032  1.00  0.00     0.026 A 
HETATM   21  C   UNL     1       8.335  31.335  61.898  1.00  0.00     0.036 A 
HETATM   22 CL   UNL     1       9.586  30.160  62.016  1.00  0.00    -0.084 Cl
HETATM   23  C   UNL     1       7.732  31.580  60.663  1.00  0.00     0.056 A 
BRANCH  18  24
HETATM   24  O   UNL     1       5.388  34.243  61.495  1.00  0.00    -0.354 OA
HETATM   25  C   UNL     1       5.488  35.448  62.247  1.00  0.00     0.210 C 
ENDBRANCH  18  24
ENDBRANCH  14  17
ENDBRANCH  12  13
ENDBRANCH  11  12
ENDBRANCH   4  11
BRANCH   8  26
HETATM   26  C   UNL     1       5.859  26.492  53.705  1.00  0.00    -0.044 A 
HETATM   27  C   UNL     1       5.349  25.226  53.365  1.00  0.00     0.008 A 
HETATM   28  C   UNL     1       6.127  24.314  52.649  1.00  0.00     0.001 A 
HETATM   29  C   UNL     1       7.421  24.653  52.268  1.00  0.00     0.000 A 
HETATM   30  C   UNL     1       7.944  25.899  52.606  1.00  0.00     0.001 A 
HETATM   31  C   UNL     1       7.170  26.813  53.324  1.00  0.00     0.008 A 
ENDBRANCH   8  26
BRANCH   9  32
HETATM   32  C   UNL     1       3.773  28.393  52.376  1.00  0.00     0.255 C 
HETATM   33  N   UNL     1       4.590  28.241  51.275  1.00  0.00    -0.323 N 
HETATM   34  H   UNL     1       5.575  28.421  51.377  1.00  0.00     0.169 HD
HETATM   35  O   UNL     1       2.546  28.363  52.354  1.00  0.00    -0.268 OA
BRANCH  33  36
HETATM   36  C   UNL     1       4.200  27.898  49.960  1.00  0.00     0.035 A 
HETATM   37  C   UNL     1       3.471  28.737  49.116  1.00  0.00     0.029 A 
HETATM   38  C   UNL     1       3.093  28.306  47.839  1.00  0.00     0.002 A 
HETATM   39  C   UNL     1       3.446  27.034  47.395  1.00  0.00     0.000 A 
HETATM   40  C   UNL     1       4.175  26.190  48.227  1.00  0.00     0.002 A 
HETATM   41  C   UNL     1       4.545  26.619  49.504  1.00  0.00     0.029 A 
ENDBRANCH  33  36
ENDBRANCH   9  32
TORSDOF 8
ENDMDL
MODEL 9
REMARK VINA RESULT:      -9.0      6.014      9.079
REMARK  8 active torsions:
REMARK  status: ('A' for Active; 'I' for Inactive)
REMARK    1  A    between atoms: C_4  and  S_5 
REMARK    2  A    between atoms: S_5  and  C_6 
REMARK    3  A    between atoms: C_6  and  C_7 
REMARK       I    between atoms: C_7  and  N_8 
REMARK    4  A    between atoms: N_8  and  C_9 
REMARK    5  A    between atoms: C_10  and  O_11 
REMARK    6  A    between atoms: C_22  and  C_23 
REMARK    7  A    between atoms: C_29  and  C_30 
REMARK       I    between atoms: C_30  and  N_31 
REMARK    8  A    between atoms: N_31  and  C_32 
ROOT
HETATM    1  C   UNL     1       3.689  29.730  55.526  1.00  0.00     0.069 C 
HETATM    2  C   UNL     1       4.140  29.083  54.237  1.00  0.00     0.019 A 
HETATM    3  N   UNL     1       3.222  29.130  53.201  1.00  0.00    -0.353 N 
HETATM    4  C   UNL     1       3.442  28.687  51.911  1.00  0.00     0.088 A 
HETATM    5  C   UNL     1       4.627  28.107  51.603  1.00  0.00     0.069 A 
HETATM    6  C   UNL     1       4.966  27.710  50.272  1.00  0.00     0.099 C 
HETATM    7  N   UNL     1       5.296  27.394  49.205  1.00  0.00    -0.192 NA
HETATM    8  C   UNL     1       5.711  27.929  52.674  1.00  0.00     0.106 A 
HETATM    9  C   UNL     1       5.354  28.512  54.044  1.00  0.00     0.046 A 
HETATM   10  H   UNL     1       2.470  29.817  53.289  1.00  0.00     0.166 HD
ENDROOT
BRANCH   4  11
HETATM   11  S   UNL     1       2.229  28.946  50.668  1.00  0.00    -0.102 SA
BRANCH  11  12
HETATM   12  C   UNL     1       2.763  30.540  49.969  1.00  0.00     0.184 C 
BRANCH  12  13
HETATM   13  C   UNL     1       3.627  30.361  48.728  1.00  0.00     0.231 C 
HETATM   14  N   UNL     1       3.183  29.636  47.663  1.00  0.00    -0.324 N 
HETATM   15  H   UNL     1       3.943  29.272  47.094  1.00  0.00     0.169 HD
HETATM   16  O   UNL     1       4.794  30.767  48.683  1.00  0.00    -0.272 OA
BRANCH  14  17
HETATM   17  C   UNL     1       1.903  29.324  47.171  1.00  0.00     0.070 A 
HETATM   18  C   UNL     1       1.541  27.957  47.163  1.00  0.00     0.095 A 
HETATM   19  C   UNL     1       0.305  27.566  46.642  1.00  0.00     0.041 A 
HETATM   20  C   UNL     1      -0.562  28.523  46.112  1.00  0.00     0.026 A 
HETATM   21  C   UNL     1      -0.185  29.863  46.086  1.00  0.00     0.036 A 
HETATM   22 CL   UNL     1      -1.239  31.028  45.384  1.00  0.00    -0.084 Cl
HETATM   23  C   UNL     1       1.046  30.268  46.603  1.00  0.00     0.056 A 
BRANCH  18  24
HETATM   24  O   UNL     1       2.477  27.099  47.691  1.00  0.00    -0.354 OA
HETATM   25  C   UNL     1       2.740  25.899  46.971  1.00  0.00     0.210 C 
ENDBRANCH  18  24
ENDBRANCH  14  17
ENDBRANCH  12  13
ENDBRANCH  11  12
ENDBRANCH   4  11
BRANCH   8  26
HETATM   26  C   UNL     1       6.169  26.471  52.754  1.00  0.00    -0.044 A 
HETATM   27  C   UNL     1       5.258  25.475  53.148  1.00  0.00     0.008 A 
HETATM   28  C   UNL     1       5.662  24.143  53.252  1.00  0.00     0.001 A 
HETATM   29  C   UNL     1       6.978  23.790  52.967  1.00  0.00     0.000 A 
HETATM   30  C   UNL     1       7.893  24.768  52.585  1.00  0.00     0.001 A 
HETATM   31  C   UNL     1       7.494  26.102  52.483  1.00  0.00     0.008 A 
ENDBRANCH   8  26
BRANCH   9  32
HETATM   32  C   UNL     1       6.337  28.421  55.184  1.00  0.00     0.255 C 
HETATM   33  N   UNL     1       7.344  29.364  55.163  1.00  0.00    -0.323 N 
HETATM   34  H   UNL     1       7.432  29.957  54.354  1.00  0.00     0.169 HD
HETATM   35  O   UNL     1       6.216  27.537  56.026  1.00  0.00    -0.268 OA
BRANCH  33  36
HETATM   36  C   UNL     1       8.335  29.581  56.148  1.00  0.00     0.035 A 
HETATM   37  C   UNL     1       8.061  29.937  57.470  1.00  0.00     0.029 A 
HETATM   38  C   UNL     1       9.104  30.170  58.373  1.00  0.00     0.002 A 
HETATM   39  C   UNL     1      10.429  30.042  57.963  1.00  0.00     0.000 A 
HETATM   40  C   UNL     1      10.714  29.686  56.649  1.00  0.00     0.002 A 
HETATM   41  C   UNL     1       9.672  29.461  55.745  1.00  0.00     0.029 A 
ENDBRANCH  33  36
ENDBRANCH   9  32
TORSDOF 8
ENDMDL
MODEL 10
REMARK VINA RESULT:      -8.7      3.722      9.308
REMARK  8 active torsions:
REMARK  status: ('A' for Active; 'I' for Inactive)
REMARK    1  A    between atoms: C_4  and  S_5 
REMARK    2  A    between atoms: S_5  and  C_6 
REMARK    3  A    between atoms: C_6  and  C_7 
REMARK       I    between atoms: C_7  and  N_8 
REMARK    4  A    between atoms: N_8  and  C_9 
REMARK    5  A    between atoms: C_10  and  O_11 
REMARK    6  A    between atoms: C_22  and  C_23 
REMARK    7  A    between atoms: C_29  and  C_30 
REMARK       I    between atoms: C_30  and  N_31 
REMARK    8  A    between atoms: N_31  and  C_32 
ROOT
HETATM    1  C   UNL     1       4.234  28.162  56.126  1.00  0.00     0.069 C 
HETATM    2  C   UNL     1       4.239  29.016  54.879  1.00  0.00     0.019 A 
HETATM    3  N   UNL     1       3.880  30.340  55.070  1.00  0.00    -0.353 N 
HETATM    4  C   UNL     1       3.897  31.325  54.101  1.00  0.00     0.088 A 
HETATM    5  C   UNL     1       4.243  31.001  52.833  1.00  0.00     0.069 A 
HETATM    6  C   UNL     1       4.377  31.979  51.798  1.00  0.00     0.099 C 
HETATM    7  N   UNL     1       4.521  32.738  50.932  1.00  0.00    -0.192 NA
HETATM    8  C   UNL     1       4.600  29.555  52.466  1.00  0.00     0.106 A 
HETATM    9  C   UNL     1       4.590  28.579  53.645  1.00  0.00     0.046 A 
HETATM   10  H   UNL     1       3.922  30.690  56.029  1.00  0.00     0.166 HD
ENDROOT
BRANCH   4  11
HETATM   11  S   UNL     1       3.551  32.993  54.531  1.00  0.00    -0.102 SA
BRANCH  11  12
HETATM   12  C   UNL     1       4.613  33.215  55.994  1.00  0.00     0.184 C 
BRANCH  12  13
HETATM   13  C   UNL     1       3.857  32.973  57.293  1.00  0.00     0.231 C 
HETATM   14  N   UNL     1       4.334  32.108  58.232  1.00  0.00    -0.324 N 
HETATM   15  H   UNL     1       3.601  31.745  58.837  1.00  0.00     0.169 HD
HETATM   16  O   UNL     1       2.739  33.460  57.496  1.00  0.00    -0.272 OA
BRANCH  14  17
HETATM   17  C   UNL     1       5.622  31.649  58.558  1.00  0.00     0.070 A 
HETATM   18  C   UNL     1       6.245  32.246  59.679  1.00  0.00     0.095 A 
HETATM   19  C   UNL     1       7.545  31.876  60.034  1.00  0.00     0.041 A 
HETATM   20  C   UNL     1       8.234  30.932  59.270  1.00  0.00     0.026 A 
HETATM   21  C   UNL     1       7.631  30.375  58.145  1.00  0.00     0.036 A 
HETATM   22 CL   UNL     1       8.507  29.251  57.181  1.00  0.00    -0.084 Cl
HETATM   23  C   UNL     1       6.334  30.735  57.778  1.00  0.00     0.056 A 
BRANCH  18  24
HETATM   24  O   UNL     1       5.485  33.176  60.347  1.00  0.00    -0.354 OA
HETATM   25  C   UNL     1       5.219  32.934  61.724  1.00  0.00     0.210 C 
ENDBRANCH  18  24
ENDBRANCH  14  17
ENDBRANCH  12  13
ENDBRANCH  11  12
ENDBRANCH   4  11
BRANCH   8  26
HETATM   26  C   UNL     1       3.756  29.064  51.287  1.00  0.00    -0.044 A 
HETATM   27  C   UNL     1       4.389  28.524  50.153  1.00  0.00     0.008 A 
HETATM   28  C   UNL     1       3.638  28.095  49.057  1.00  0.00     0.001 A 
HETATM   29  C   UNL     1       2.251  28.200  49.079  1.00  0.00     0.000 A 
HETATM   30  C   UNL     1       1.611  28.741  50.192  1.00  0.00     0.001 A 
HETATM   31  C   UNL     1       2.358  29.175  51.289  1.00  0.00     0.008 A 
ENDBRANCH   8  26
BRANCH   9  32
HETATM   32  C   UNL     1       4.938  27.127  53.428  1.00  0.00     0.255 C 
HETATM   33  N   UNL     1       6.265  26.808  53.634  1.00  0.00    -0.323 N 
HETATM   34  H   UNL     1       6.922  27.555  53.790  1.00  0.00     0.169 HD
HETATM   35  O   UNL     1       4.070  26.337  53.071  1.00  0.00    -0.268 OA
BRANCH  33  36
HETATM   36  C   UNL     1       6.851  25.522  53.604  1.00  0.00     0.035 A 
HETATM   37  C   UNL     1       7.464  24.967  52.480  1.00  0.00     0.029 A 
HETATM   38  C   UNL     1       7.988  23.670  52.524  1.00  0.00     0.002 A 
HETATM   39  C   UNL     1       7.909  22.921  53.696  1.00  0.00     0.000 A 
HETATM   40  C   UNL     1       7.303  23.466  54.823  1.00  0.00     0.002 A 
HETATM   41  C   UNL     1       6.773  24.757  54.776  1.00  0.00     0.029 A 
ENDBRANCH  33  36
ENDBRANCH   9  32
TORSDOF 8
ENDMDL
