MODEL 1
REMARK VINA RESULT:     -10.7      0.000      0.000
REMARK  9 active torsions:
REMARK  status: ('A' for Active; 'I' for Inactive)
REMARK    1  A    between atoms: C_2  and  O_3 
REMARK    2  A    between atoms: O_3  and  C_4 
REMARK    3  A    between atoms: C_7  and  C_8 
REMARK    4  A    between atoms: C_9  and  C_10 
REMARK       I    between atoms: C_10  and  N_11 
REMARK    5  A    between atoms: N_11  and  C_12 
REMARK    6  A    between atoms: C_22  and  S_23 
REMARK    7  A    between atoms: S_23  and  C_24 
REMARK    8  A    between atoms: C_24  and  C_25 
REMARK       I    between atoms: C_25  and  N_26 
REMARK    9  A    between atoms: N_26  and  C_27 
ROOT
HETATM    1  C   UNL     1       5.565  27.084  55.813  1.00  0.00     0.104 C 
HETATM    2  C   UNL     1       6.743  26.226  56.279  1.00  0.00     0.046 C 
HETATM    3  C   UNL     1       7.820  26.794  56.872  1.00  0.00     0.019 C 
HETATM    4  C   UNL     1       9.125  26.094  57.159  1.00  0.00     0.069 C 
HETATM    5  N   UNL     1       7.760  28.124  57.250  1.00  0.00    -0.353 N 
HETATM    6  C   UNL     1       6.625  28.915  57.184  1.00  0.00     0.087 C 
HETATM    7  C   UNL     1       5.549  28.456  56.485  1.00  0.00     0.055 C 
HETATM    8  C   UNL     1       4.358  29.377  56.279  1.00  0.00     0.019 C 
HETATM    9  N   UNL     1       3.369  30.141  56.109  1.00  0.00    -0.096 N 
HETATM   10  H   UNL     1       8.630  28.560  57.548  1.00  0.00     0.166 HD
ENDROOT
BRANCH   1  11
HETATM   11  C   UNL     1       5.546  27.250  54.292  1.00  0.00    -0.044 A 
HETATM   12  C   UNL     1       4.901  26.303  53.485  1.00  0.00     0.011 A 
HETATM   13  C   UNL     1       4.851  26.473  52.097  1.00  0.00     0.037 A 
HETATM   14  C   UNL     1       5.434  27.588  51.491  1.00  0.00     0.068 A 
HETATM   15  C   UNL     1       6.089  28.527  52.284  1.00  0.00     0.037 A 
HETATM   16  C   UNL     1       6.143  28.362  53.671  1.00  0.00     0.011 A 
BRANCH  14  17
HETATM   17  O   UNL     1       5.299  27.640  50.130  1.00  0.00    -0.352 OA
BRANCH  17  18
HETATM   18  C   UNL     1       4.709  26.505  49.499  1.00  0.00     0.171 C 
HETATM   19  C   UNL     1       4.561  26.815  48.019  1.00  0.00     0.034 C 
ENDBRANCH  17  18
ENDBRANCH  14  17
ENDBRANCH   1  11
BRANCH   6  20
HETATM   20  S   UNL     1       6.496  30.485  57.984  1.00  0.00    -0.102 SA
BRANCH  20  21
HETATM   21  C   UNL     1       8.165  30.853  58.561  1.00  0.00     0.184 C 
BRANCH  21  22
HETATM   22  C   UNL     1       8.103  31.821  59.730  1.00  0.00     0.231 C 
HETATM   23  N   UNL     1       7.210  31.409  60.705  1.00  0.00    -0.327 N 
HETATM   24  H   UNL     1       6.583  30.658  60.437  1.00  0.00     0.169 HD
HETATM   25  O   UNL     1       8.789  32.839  59.725  1.00  0.00    -0.272 OA
BRANCH  23  26
HETATM   26  C   UNL     1       6.967  31.988  61.962  1.00  0.00     0.034 A 
HETATM   27  C   UNL     1       5.697  32.283  62.451  1.00  0.00     0.030 A 
HETATM   28  C   UNL     1       5.548  32.897  63.701  1.00  0.00     0.009 A 
HETATM   29  C   UNL     1       6.666  33.226  64.475  1.00  0.00    -0.062 A 
HETATM   30  C   UNL     1       6.499  33.856  65.826  1.00  0.00     0.048 C 
HETATM   31  C   UNL     1       7.938  32.909  63.993  1.00  0.00     0.009 A 
HETATM   32  C   UNL     1       8.087  32.305  62.742  1.00  0.00     0.030 A 
ENDBRANCH  23  26
ENDBRANCH  21  22
ENDBRANCH  20  21
ENDBRANCH   6  20
BRANCH   2  33
HETATM   33  C   UNL     1       6.613  24.749  56.084  1.00  0.00     0.255 C 
HETATM   34  N   UNL     1       7.604  24.242  55.264  1.00  0.00    -0.323 N 
HETATM   35  H   UNL     1       8.292  24.899  54.920  1.00  0.00     0.169 HD
HETATM   36  O   UNL     1       5.752  24.116  56.678  1.00  0.00    -0.268 OA
BRANCH  34  37
HETATM   37  C   UNL     1       7.751  22.921  54.795  1.00  0.00     0.035 A 
HETATM   38  C   UNL     1       7.929  21.813  55.624  1.00  0.00     0.029 A 
HETATM   39  C   UNL     1       8.045  20.532  55.073  1.00  0.00     0.002 A 
HETATM   40  C   UNL     1       7.979  20.349  53.693  1.00  0.00     0.000 A 
HETATM   41  C   UNL     1       7.802  21.449  52.859  1.00  0.00     0.002 A 
HETATM   42  C   UNL     1       7.694  22.729  53.408  1.00  0.00     0.029 A 
ENDBRANCH  34  37
ENDBRANCH   2  33
TORSDOF 9
ENDMDL
MODEL 2
REMARK VINA RESULT:     -10.6      1.925      5.301
REMARK  9 active torsions:
REMARK  status: ('A' for Active; 'I' for Inactive)
REMARK    1  A    between atoms: C_2  and  O_3 
REMARK    2  A    between atoms: O_3  and  C_4 
REMARK    3  A    between atoms: C_7  and  C_8 
REMARK    4  A    between atoms: C_9  and  C_10 
REMARK       I    between atoms: C_10  and  N_11 
REMARK    5  A    between atoms: N_11  and  C_12 
REMARK    6  A    between atoms: C_22  and  S_23 
REMARK    7  A    between atoms: S_23  and  C_24 
REMARK    8  A    between atoms: C_24  and  C_25 
REMARK       I    between atoms: C_25  and  N_26 
REMARK    9  A    between atoms: N_26  and  C_27 
ROOT
HETATM    1  C   UNL     1       7.520  28.529  55.671  1.00  0.00     0.104 C 
HETATM    2  C   UNL     1       6.049  28.942  55.586  1.00  0.00     0.046 C 
HETATM    3  C   UNL     1       5.479  29.680  56.568  1.00  0.00     0.019 C 
HETATM    4  C   UNL     1       4.002  29.946  56.710  1.00  0.00     0.069 C 
HETATM    5  N   UNL     1       6.284  30.242  57.543  1.00  0.00    -0.353 N 
HETATM    6  C   UNL     1       7.669  30.218  57.537  1.00  0.00     0.087 C 
HETATM    7  C   UNL     1       8.304  29.391  56.659  1.00  0.00     0.055 C 
HETATM    8  C   UNL     1       9.814  29.243  56.748  1.00  0.00     0.019 C 
HETATM    9  N   UNL     1      11.067  29.122  56.820  1.00  0.00    -0.096 N 
HETATM   10  H   UNL     1       5.817  30.657  58.347  1.00  0.00     0.166 HD
ENDROOT
BRANCH   1  11
HETATM   11  C   UNL     1       7.679  27.051  56.032  1.00  0.00    -0.044 A 
HETATM   12  C   UNL     1       7.608  26.068  55.035  1.00  0.00     0.011 A 
HETATM   13  C   UNL     1       7.790  24.719  55.358  1.00  0.00     0.037 A 
HETATM   14  C   UNL     1       8.050  24.326  56.672  1.00  0.00     0.068 A 
HETATM   15  C   UNL     1       8.109  25.294  57.671  1.00  0.00     0.037 A 
HETATM   16  C   UNL     1       7.927  26.644  57.355  1.00  0.00     0.011 A 
BRANCH  14  17
HETATM   17  O   UNL     1       8.223  22.980  56.847  1.00  0.00    -0.352 OA
BRANCH  17  18
HETATM   18  C   UNL     1       7.936  22.143  55.729  1.00  0.00     0.171 C 
HETATM   19  C   UNL     1       8.093  20.698  56.168  1.00  0.00     0.034 C 
ENDBRANCH  17  18
ENDBRANCH  14  17
ENDBRANCH   1  11
BRANCH   6  20
HETATM   20  S   UNL     1       8.656  31.227  58.600  1.00  0.00    -0.102 SA
BRANCH  20  21
HETATM   21  C   UNL     1       8.268  30.666  60.269  1.00  0.00     0.184 C 
BRANCH  21  22
HETATM   22  C   UNL     1       7.469  31.732  60.998  1.00  0.00     0.231 C 
HETATM   23  N   UNL     1       7.369  31.477  62.355  1.00  0.00    -0.327 N 
HETATM   24  H   UNL     1       7.648  30.546  62.648  1.00  0.00     0.169 HD
HETATM   25  O   UNL     1       6.987  32.675  60.376  1.00  0.00    -0.272 OA
BRANCH  23  26
HETATM   26  C   UNL     1       6.802  32.287  63.353  1.00  0.00     0.034 A 
HETATM   27  C   UNL     1       5.431  32.430  63.554  1.00  0.00     0.030 A 
HETATM   28  C   UNL     1       4.951  33.290  64.550  1.00  0.00     0.009 A 
HETATM   29  C   UNL     1       5.834  34.019  65.354  1.00  0.00    -0.062 A 
HETATM   30  C   UNL     1       5.314  34.916  66.438  1.00  0.00     0.048 C 
HETATM   31  C   UNL     1       7.208  33.857  65.165  1.00  0.00     0.009 A 
HETATM   32  C   UNL     1       7.687  33.006  64.166  1.00  0.00     0.030 A 
ENDBRANCH  23  26
ENDBRANCH  21  22
ENDBRANCH  20  21
ENDBRANCH   6  20
BRANCH   2  33
HETATM   33  C   UNL     1       5.309  28.525  54.355  1.00  0.00     0.255 C 
HETATM   34  N   UNL     1       6.046  28.740  53.205  1.00  0.00    -0.323 N 
HETATM   35  H   UNL     1       6.976  29.120  53.324  1.00  0.00     0.169 HD
HETATM   36  O   UNL     1       4.214  27.988  54.439  1.00  0.00    -0.268 OA
BRANCH  34  37
HETATM   37  C   UNL     1       5.644  28.546  51.868  1.00  0.00     0.035 A 
HETATM   38  C   UNL     1       5.437  29.580  50.955  1.00  0.00     0.029 A 
HETATM   39  C   UNL     1       5.058  29.295  49.639  1.00  0.00     0.002 A 
HETATM   40  C   UNL     1       4.891  27.975  49.224  1.00  0.00     0.000 A 
HETATM   41  C   UNL     1       5.095  26.937  50.128  1.00  0.00     0.002 A 
HETATM   42  C   UNL     1       5.465  27.222  51.444  1.00  0.00     0.029 A 
ENDBRANCH  34  37
ENDBRANCH   2  33
TORSDOF 9
ENDMDL
MODEL 3
REMARK VINA RESULT:     -10.2      2.591      9.675
REMARK  9 active torsions:
REMARK  status: ('A' for Active; 'I' for Inactive)
REMARK    1  A    between atoms: C_2  and  O_3 
REMARK    2  A    between atoms: O_3  and  C_4 
REMARK    3  A    between atoms: C_7  and  C_8 
REMARK    4  A    between atoms: C_9  and  C_10 
REMARK       I    between atoms: C_10  and  N_11 
REMARK    5  A    between atoms: N_11  and  C_12 
REMARK    6  A    between atoms: C_22  and  S_23 
REMARK    7  A    between atoms: S_23  and  C_24 
REMARK    8  A    between atoms: C_24  and  C_25 
REMARK       I    between atoms: C_25  and  N_26 
REMARK    9  A    between atoms: N_26  and  C_27 
ROOT
HETATM    1  C   UNL     1       5.999  30.014  55.983  1.00  0.00     0.104 C 
HETATM    2  C   UNL     1       6.760  28.913  56.725  1.00  0.00     0.046 C 
HETATM    3  C   UNL     1       6.392  27.616  56.606  1.00  0.00     0.019 C 
HETATM    4  C   UNL     1       6.908  26.483  57.456  1.00  0.00     0.069 C 
HETATM    5  N   UNL     1       5.461  27.264  55.643  1.00  0.00    -0.353 N 
HETATM    6  C   UNL     1       4.949  28.124  54.686  1.00  0.00     0.087 C 
HETATM    7  C   UNL     1       5.172  29.462  54.824  1.00  0.00     0.055 C 
HETATM    8  C   UNL     1       4.488  30.424  53.866  1.00  0.00     0.019 C 
HETATM    9  N   UNL     1       3.922  31.222  53.071  1.00  0.00    -0.096 N 
HETATM   10  H   UNL     1       5.092  26.316  55.681  1.00  0.00     0.166 HD
ENDROOT
BRANCH   1  11
HETATM   11  C   UNL     1       5.100  30.820  56.924  1.00  0.00    -0.044 A 
HETATM   12  C   UNL     1       4.137  30.174  57.709  1.00  0.00     0.011 A 
HETATM   13  C   UNL     1       3.340  30.906  58.596  1.00  0.00     0.037 A 
HETATM   14  C   UNL     1       3.491  32.288  58.721  1.00  0.00     0.068 A 
HETATM   15  C   UNL     1       4.436  32.941  57.933  1.00  0.00     0.037 A 
HETATM   16  C   UNL     1       5.235  32.215  57.045  1.00  0.00     0.011 A 
BRANCH  14  17
HETATM   17  O   UNL     1       2.661  32.878  59.634  1.00  0.00    -0.352 OA
BRANCH  17  18
HETATM   18  C   UNL     1       3.265  33.766  60.573  1.00  0.00     0.171 C 
HETATM   19  C   UNL     1       3.409  33.028  61.892  1.00  0.00     0.034 C 
ENDBRANCH  17  18
ENDBRANCH  14  17
ENDBRANCH   1  11
BRANCH   6  20
HETATM   20  S   UNL     1       4.037  27.567  53.279  1.00  0.00    -0.102 SA
BRANCH  20  21
HETATM   21  C   UNL     1       5.277  26.899  52.153  1.00  0.00     0.184 C 
BRANCH  21  22
HETATM   22  C   UNL     1       5.481  25.420  52.433  1.00  0.00     0.231 C 
HETATM   23  N   UNL     1       6.676  25.170  53.086  1.00  0.00    -0.327 N 
HETATM   24  H   UNL     1       7.333  25.942  53.111  1.00  0.00     0.169 HD
HETATM   25  O   UNL     1       4.639  24.601  52.072  1.00  0.00    -0.272 OA
BRANCH  23  26
HETATM   26  C   UNL     1       7.150  23.949  53.595  1.00  0.00     0.034 A 
HETATM   27  C   UNL     1       7.674  22.927  52.806  1.00  0.00     0.030 A 
HETATM   28  C   UNL     1       8.088  21.725  53.394  1.00  0.00     0.009 A 
HETATM   29  C   UNL     1       7.981  21.529  54.775  1.00  0.00    -0.062 A 
HETATM   30  C   UNL     1       8.454  20.250  55.402  1.00  0.00     0.048 C 
HETATM   31  C   UNL     1       7.476  22.562  55.567  1.00  0.00     0.009 A 
HETATM   32  C   UNL     1       7.054  23.758  54.980  1.00  0.00     0.030 A 
ENDBRANCH  23  26
ENDBRANCH  21  22
ENDBRANCH  20  21
ENDBRANCH   6  20
BRANCH   2  33
HETATM   33  C   UNL     1       7.939  29.348  57.537  1.00  0.00     0.255 C 
HETATM   34  N   UNL     1       7.562  29.983  58.706  1.00  0.00    -0.323 N 
HETATM   35  H   UNL     1       6.569  30.060  58.883  1.00  0.00     0.169 HD
HETATM   36  O   UNL     1       9.075  29.066  57.184  1.00  0.00    -0.268 OA
BRANCH  34  37
HETATM   37  C   UNL     1       8.392  30.593  59.668  1.00  0.00     0.035 A 
HETATM   38  C   UNL     1       8.534  30.138  60.979  1.00  0.00     0.029 A 
HETATM   39  C   UNL     1       9.398  30.794  61.863  1.00  0.00     0.002 A 
HETATM   40  C   UNL     1      10.129  31.903  61.442  1.00  0.00     0.000 A 
HETATM   41  C   UNL     1       9.993  32.363  60.136  1.00  0.00     0.002 A 
HETATM   42  C   UNL     1       9.125  31.714  59.256  1.00  0.00     0.029 A 
ENDBRANCH  34  37
ENDBRANCH   2  33
TORSDOF 9
ENDMDL
MODEL 4
REMARK VINA RESULT:     -10.2      1.891      5.350
REMARK  9 active torsions:
REMARK  status: ('A' for Active; 'I' for Inactive)
REMARK    1  A    between atoms: C_2  and  O_3 
REMARK    2  A    between atoms: O_3  and  C_4 
REMARK    3  A    between atoms: C_7  and  C_8 
REMARK    4  A    between atoms: C_9  and  C_10 
REMARK       I    between atoms: C_10  and  N_11 
REMARK    5  A    between atoms: N_11  and  C_12 
REMARK    6  A    between atoms: C_22  and  S_23 
REMARK    7  A    between atoms: S_23  and  C_24 
REMARK    8  A    between atoms: C_24  and  C_25 
REMARK       I    between atoms: C_25  and  N_26 
REMARK    9  A    between atoms: N_26  and  C_27 
ROOT
HETATM    1  C   UNL     1       6.854  28.029  53.869  1.00  0.00     0.104 C 
HETATM    2  C   UNL     1       5.512  28.481  53.292  1.00  0.00     0.046 C 
HETATM    3  C   UNL     1       4.482  28.807  54.109  1.00  0.00     0.019 C 
HETATM    4  C   UNL     1       3.060  29.039  53.665  1.00  0.00     0.069 C 
HETATM    5  N   UNL     1       4.713  28.938  55.467  1.00  0.00    -0.353 N 
HETATM    6  C   UNL     1       5.961  28.882  56.067  1.00  0.00     0.087 C 
HETATM    7  C   UNL     1       7.018  28.432  55.333  1.00  0.00     0.055 C 
HETATM    8  C   UNL     1       8.356  28.222  56.024  1.00  0.00     0.019 C 
HETATM    9  N   UNL     1       9.466  28.049  56.595  1.00  0.00    -0.096 N 
HETATM   10  H   UNL     1       3.898  29.030  56.069  1.00  0.00     0.166 HD
ENDROOT
BRANCH   1  11
HETATM   11  C   UNL     1       7.062  26.520  53.720  1.00  0.00    -0.044 A 
HETATM   12  C   UNL     1       6.418  25.628  54.588  1.00  0.00     0.011 A 
HETATM   13  C   UNL     1       6.577  24.247  54.429  1.00  0.00     0.037 A 
HETATM   14  C   UNL     1       7.372  23.731  53.405  1.00  0.00     0.068 A 
HETATM   15  C   UNL     1       8.027  24.610  52.545  1.00  0.00     0.037 A 
HETATM   16  C   UNL     1       7.872  25.991  52.700  1.00  0.00     0.011 A 
BRANCH  14  17
HETATM   17  O   UNL     1       7.430  22.365  53.352  1.00  0.00    -0.352 OA
BRANCH  17  18
HETATM   18  C   UNL     1       8.466  21.736  54.105  1.00  0.00     0.171 C 
HETATM   19  C   UNL     1       7.816  20.926  55.213  1.00  0.00     0.034 C 
ENDBRANCH  17  18
ENDBRANCH  14  17
ENDBRANCH   1  11
BRANCH   6  20
HETATM   20  S   UNL     1       6.253  29.388  57.734  1.00  0.00    -0.102 SA
BRANCH  20  21
HETATM   21  C   UNL     1       6.088  31.184  57.712  1.00  0.00     0.184 C 
BRANCH  21  22
HETATM   22  C   UNL     1       6.851  31.785  58.880  1.00  0.00     0.231 C 
HETATM   23  N   UNL     1       6.056  31.941  60.002  1.00  0.00    -0.327 N 
HETATM   24  H   UNL     1       5.058  31.835  59.851  1.00  0.00     0.169 HD
HETATM   25  O   UNL     1       8.036  32.084  58.754  1.00  0.00    -0.272 OA
BRANCH  23  26
HETATM   26  C   UNL     1       6.437  32.362  61.287  1.00  0.00     0.034 A 
HETATM   27  C   UNL     1       7.503  31.818  62.000  1.00  0.00     0.030 A 
HETATM   28  C   UNL     1       7.790  32.274  63.294  1.00  0.00     0.009 A 
HETATM   29  C   UNL     1       7.013  33.272  63.891  1.00  0.00    -0.062 A 
HETATM   30  C   UNL     1       7.343  33.775  65.265  1.00  0.00     0.048 C 
HETATM   31  C   UNL     1       5.958  33.831  63.165  1.00  0.00     0.009 A 
HETATM   32  C   UNL     1       5.667  33.372  61.879  1.00  0.00     0.030 A 
ENDBRANCH  23  26
ENDBRANCH  21  22
ENDBRANCH  20  21
ENDBRANCH   6  20
BRANCH   2  33
HETATM   33  C   UNL     1       5.425  28.581  51.802  1.00  0.00     0.255 C 
HETATM   34  N   UNL     1       4.480  27.719  51.276  1.00  0.00    -0.323 N 
HETATM   35  H   UNL     1       3.959  27.156  51.936  1.00  0.00     0.169 HD
HETATM   36  O   UNL     1       6.086  29.410  51.194  1.00  0.00    -0.268 OA
BRANCH  34  37
HETATM   37  C   UNL     1       4.182  27.481  49.919  1.00  0.00     0.035 A 
HETATM   38  C   UNL     1       4.635  26.375  49.201  1.00  0.00     0.029 A 
HETATM   39  C   UNL     1       4.273  26.208  47.860  1.00  0.00     0.002 A 
HETATM   40  C   UNL     1       3.451  27.140  47.230  1.00  0.00     0.000 A 
HETATM   41  C   UNL     1       2.994  28.247  47.938  1.00  0.00     0.002 A 
HETATM   42  C   UNL     1       3.363  28.419  49.275  1.00  0.00     0.029 A 
ENDBRANCH  34  37
ENDBRANCH   2  33
TORSDOF 9
ENDMDL
MODEL 5
REMARK VINA RESULT:      -9.9      2.466      6.035
REMARK  9 active torsions:
REMARK  status: ('A' for Active; 'I' for Inactive)
REMARK    1  A    between atoms: C_2  and  O_3 
REMARK    2  A    between atoms: O_3  and  C_4 
REMARK    3  A    between atoms: C_7  and  C_8 
REMARK    4  A    between atoms: C_9  and  C_10 
REMARK       I    between atoms: C_10  and  N_11 
REMARK    5  A    between atoms: N_11  and  C_12 
REMARK    6  A    between atoms: C_22  and  S_23 
REMARK    7  A    between atoms: S_23  and  C_24 
REMARK    8  A    between atoms: C_24  and  C_25 
REMARK       I    between atoms: C_25  and  N_26 
REMARK    9  A    between atoms: N_26  and  C_27 
ROOT
HETATM    1  C   UNL     1       7.077  29.122  55.950  1.00  0.00     0.104 C 
HETATM    2  C   UNL     1       5.650  29.620  56.187  1.00  0.00     0.046 C 
HETATM    3  C   UNL     1       5.238  29.973  57.428  1.00  0.00     0.019 C 
HETATM    4  C   UNL     1       3.810  30.251  57.824  1.00  0.00     0.069 C 
HETATM    5  N   UNL     1       6.172  30.088  58.443  1.00  0.00    -0.353 N 
HETATM    6  C   UNL     1       7.543  29.989  58.271  1.00  0.00     0.087 C 
HETATM    7  C   UNL     1       8.020  29.511  57.087  1.00  0.00     0.055 C 
HETATM    8  C   UNL     1       9.512  29.256  56.944  1.00  0.00     0.019 C 
HETATM    9  N   UNL     1      10.749  29.045  56.825  1.00  0.00    -0.096 N 
HETATM   10  H   UNL     1       5.816  30.201  59.390  1.00  0.00     0.166 HD
ENDROOT
BRANCH   1  11
HETATM   11  C   UNL     1       7.126  27.609  55.729  1.00  0.00    -0.044 A 
HETATM   12  C   UNL     1       6.820  26.731  56.778  1.00  0.00     0.011 A 
HETATM   13  C   UNL     1       6.828  25.348  56.568  1.00  0.00     0.037 A 
HETATM   14  C   UNL     1       7.134  24.816  55.314  1.00  0.00     0.068 A 
HETATM   15  C   UNL     1       7.453  25.681  54.269  1.00  0.00     0.037 A 
HETATM   16  C   UNL     1       7.447  27.064  54.474  1.00  0.00     0.011 A 
BRANCH  14  17
HETATM   17  O   UNL     1       7.091  23.450  55.240  1.00  0.00    -0.352 OA
BRANCH  17  18
HETATM   18  C   UNL     1       8.327  22.780  55.003  1.00  0.00     0.171 C 
HETATM   19  C   UNL     1       8.238  22.094  53.651  1.00  0.00     0.034 C 
ENDBRANCH  17  18
ENDBRANCH  14  17
ENDBRANCH   1  11
BRANCH   6  20
HETATM   20  S   UNL     1       8.707  30.475  59.508  1.00  0.00    -0.102 SA
BRANCH  20  21
HETATM   21  C   UNL     1       8.476  32.254  59.693  1.00  0.00     0.184 C 
BRANCH  21  22
HETATM   22  C   UNL     1       7.331  32.527  60.654  1.00  0.00     0.231 C 
HETATM   23  N   UNL     1       7.752  32.570  61.972  1.00  0.00    -0.327 N 
HETATM   24  H   UNL     1       8.690  32.224  62.145  1.00  0.00     0.169 HD
HETATM   25  O   UNL     1       6.188  32.666  60.228  1.00  0.00    -0.272 OA
BRANCH  23  26
HETATM   26  C   UNL     1       7.003  32.899  63.114  1.00  0.00     0.034 A 
HETATM   27  C   UNL     1       5.612  32.849  63.174  1.00  0.00     0.030 A 
HETATM   28  C   UNL     1       4.943  33.232  64.344  1.00  0.00     0.009 A 
HETATM   29  C   UNL     1       5.655  33.672  65.465  1.00  0.00    -0.062 A 
HETATM   30  C   UNL     1       4.934  34.053  66.724  1.00  0.00     0.048 C 
HETATM   31  C   UNL     1       7.050  33.701  65.410  1.00  0.00     0.009 A 
HETATM   32  C   UNL     1       7.717  33.327  64.241  1.00  0.00     0.030 A 
ENDBRANCH  23  26
ENDBRANCH  21  22
ENDBRANCH  20  21
ENDBRANCH   6  20
BRANCH   2  33
HETATM   33  C   UNL     1       4.772  29.732  54.982  1.00  0.00     0.255 C 
HETATM   34  N   UNL     1       4.815  30.995  54.421  1.00  0.00    -0.323 N 
HETATM   35  H   UNL     1       5.429  31.668  54.860  1.00  0.00     0.169 HD
HETATM   36  O   UNL     1       4.177  28.754  54.552  1.00  0.00    -0.268 OA
BRANCH  34  37
HETATM   37  C   UNL     1       4.063  31.487  53.334  1.00  0.00     0.035 A 
HETATM   38  C   UNL     1       4.161  31.001  52.031  1.00  0.00     0.029 A 
HETATM   39  C   UNL     1       3.360  31.536  51.017  1.00  0.00     0.002 A 
HETATM   40  C   UNL     1       2.452  32.555  51.298  1.00  0.00     0.000 A 
HETATM   41  C   UNL     1       2.348  33.047  52.596  1.00  0.00     0.002 A 
HETATM   42  C   UNL     1       3.154  32.519  53.607  1.00  0.00     0.029 A 
ENDBRANCH  34  37
ENDBRANCH   2  33
TORSDOF 9
ENDMDL
MODEL 6
REMARK VINA RESULT:      -9.8      5.077      9.744
REMARK  9 active torsions:
REMARK  status: ('A' for Active; 'I' for Inactive)
REMARK    1  A    between atoms: C_2  and  O_3 
REMARK    2  A    between atoms: O_3  and  C_4 
REMARK    3  A    between atoms: C_7  and  C_8 
REMARK    4  A    between atoms: C_9  and  C_10 
REMARK       I    between atoms: C_10  and  N_11 
REMARK    5  A    between atoms: N_11  and  C_12 
REMARK    6  A    between atoms: C_22  and  S_23 
REMARK    7  A    between atoms: S_23  and  C_24 
REMARK    8  A    between atoms: C_24  and  C_25 
REMARK       I    between atoms: C_25  and  N_26 
REMARK    9  A    between atoms: N_26  and  C_27 
ROOT
HETATM    1  C   UNL     1       4.896  28.616  50.592  1.00  0.00     0.104 C 
HETATM    2  C   UNL     1       5.024  30.139  50.658  1.00  0.00     0.046 C 
HETATM    3  C   UNL     1       4.690  30.813  51.785  1.00  0.00     0.019 C 
HETATM    4  C   UNL     1       4.552  32.311  51.894  1.00  0.00     0.069 C 
HETATM    5  N   UNL     1       4.439  30.104  52.946  1.00  0.00    -0.353 N 
HETATM    6  C   UNL     1       4.621  28.739  53.095  1.00  0.00     0.087 C 
HETATM    7  C   UNL     1       4.827  27.982  51.980  1.00  0.00     0.055 C 
HETATM    8  C   UNL     1       4.875  26.469  52.116  1.00  0.00     0.019 C 
HETATM    9  N   UNL     1       4.917  25.214  52.229  1.00  0.00    -0.096 N 
HETATM   10  H   UNL     1       4.043  30.621  53.729  1.00  0.00     0.166 HD
ENDROOT
BRANCH   1  11
HETATM   11  C   UNL     1       3.688  28.179  49.761  1.00  0.00    -0.044 A 
HETATM   12  C   UNL     1       2.436  28.774  49.965  1.00  0.00     0.011 A 
HETATM   13  C   UNL     1       1.339  28.402  49.180  1.00  0.00     0.037 A 
HETATM   14  C   UNL     1       1.469  27.437  48.180  1.00  0.00     0.068 A 
HETATM   15  C   UNL     1       2.707  26.830  47.979  1.00  0.00     0.037 A 
HETATM   16  C   UNL     1       3.806  27.198  48.761  1.00  0.00     0.011 A 
BRANCH  14  17
HETATM   17  O   UNL     1       0.325  27.178  47.477  1.00  0.00    -0.352 OA
BRANCH  17  18
HETATM   18  C   UNL     1       0.233  27.736  46.167  1.00  0.00     0.171 C 
HETATM   19  C   UNL     1      -1.163  28.308  45.996  1.00  0.00     0.034 C 
ENDBRANCH  17  18
ENDBRANCH  14  17
ENDBRANCH   1  11
BRANCH   6  20
HETATM   20  S   UNL     1       4.620  27.931  54.667  1.00  0.00    -0.102 SA
BRANCH  20  21
HETATM   21  C   UNL     1       6.331  28.009  55.232  1.00  0.00     0.184 C 
BRANCH  21  22
HETATM   22  C   UNL     1       7.145  26.916  54.562  1.00  0.00     0.231 C 
HETATM   23  N   UNL     1       6.869  25.663  55.082  1.00  0.00    -0.327 N 
HETATM   24  H   UNL     1       6.338  25.654  55.947  1.00  0.00     0.169 HD
HETATM   25  O   UNL     1       7.946  27.199  53.676  1.00  0.00    -0.272 OA
BRANCH  23  26
HETATM   26  C   UNL     1       7.346  24.416  54.645  1.00  0.00     0.034 A 
HETATM   27  C   UNL     1       7.852  24.179  53.369  1.00  0.00     0.030 A 
HETATM   28  C   UNL     1       8.271  22.892  53.006  1.00  0.00     0.009 A 
HETATM   29  C   UNL     1       8.185  21.828  53.910  1.00  0.00    -0.062 A 
HETATM   30  C   UNL     1       8.662  20.460  53.523  1.00  0.00     0.048 C 
HETATM   31  C   UNL     1       7.697  22.073  55.195  1.00  0.00     0.009 A 
HETATM   32  C   UNL     1       7.272  23.354  55.556  1.00  0.00     0.030 A 
ENDBRANCH  23  26
ENDBRANCH  21  22
ENDBRANCH  20  21
ENDBRANCH   6  20
BRANCH   2  33
HETATM   33  C   UNL     1       5.570  30.818  49.442  1.00  0.00     0.255 C 
HETATM   34  N   UNL     1       4.573  31.175  48.553  1.00  0.00    -0.323 N 
HETATM   35  H   UNL     1       3.622  30.964  48.825  1.00  0.00     0.169 HD
HETATM   36  O   UNL     1       6.763  31.067  49.352  1.00  0.00    -0.268 OA
BRANCH  34  37
HETATM   37  C   UNL     1       4.717  31.753  47.275  1.00  0.00     0.035 A 
HETATM   38  C   UNL     1       5.300  32.998  47.041  1.00  0.00     0.029 A 
HETATM   39  C   UNL     1       5.421  33.487  45.736  1.00  0.00     0.002 A 
HETATM   40  C   UNL     1       4.967  32.732  44.656  1.00  0.00     0.000 A 
HETATM   41  C   UNL     1       4.385  31.488  44.880  1.00  0.00     0.002 A 
HETATM   42  C   UNL     1       4.256  31.004  46.183  1.00  0.00     0.029 A 
ENDBRANCH  34  37
ENDBRANCH   2  33
TORSDOF 9
ENDMDL
MODEL 7
REMARK VINA RESULT:      -9.7      3.290     10.224
REMARK  9 active torsions:
REMARK  status: ('A' for Active; 'I' for Inactive)
REMARK    1  A    between atoms: C_2  and  O_3 
REMARK    2  A    between atoms: O_3  and  C_4 
REMARK    3  A    between atoms: C_7  and  C_8 
REMARK    4  A    between atoms: C_9  and  C_10 
REMARK       I    between atoms: C_10  and  N_11 
REMARK    5  A    between atoms: N_11  and  C_12 
REMARK    6  A    between atoms: C_22  and  S_23 
REMARK    7  A    between atoms: S_23  and  C_24 
REMARK    8  A    between atoms: C_24  and  C_25 
REMARK       I    between atoms: C_25  and  N_26 
REMARK    9  A    between atoms: N_26  and  C_27 
ROOT
HETATM    1  C   UNL     1       4.714  29.058  55.839  1.00  0.00     0.104 C 
HETATM    2  C   UNL     1       4.206  30.204  54.962  1.00  0.00     0.046 C 
HETATM    3  C   UNL     1       4.237  30.106  53.611  1.00  0.00     0.019 C 
HETATM    4  C   UNL     1       3.986  31.242  52.652  1.00  0.00     0.069 C 
HETATM    5  N   UNL     1       4.528  28.885  53.029  1.00  0.00    -0.353 N 
HETATM    6  C   UNL     1       4.676  27.694  53.720  1.00  0.00     0.087 C 
HETATM    7  C   UNL     1       4.787  27.736  55.078  1.00  0.00     0.055 C 
HETATM    8  C   UNL     1       5.102  26.454  55.830  1.00  0.00     0.019 C 
HETATM    9  N   UNL     1       5.362  25.390  56.455  1.00  0.00    -0.096 N 
HETATM   10  H   UNL     1       4.695  28.879  52.025  1.00  0.00     0.166 HD
ENDROOT
BRANCH   1  11
HETATM   11  C   UNL     1       6.076  29.375  56.461  1.00  0.00    -0.044 A 
HETATM   12  C   UNL     1       6.164  29.804  57.792  1.00  0.00     0.011 A 
HETATM   13  C   UNL     1       7.411  30.058  58.373  1.00  0.00     0.037 A 
HETATM   14  C   UNL     1       8.589  29.886  57.643  1.00  0.00     0.068 A 
HETATM   15  C   UNL     1       8.510  29.474  56.315  1.00  0.00     0.037 A 
HETATM   16  C   UNL     1       7.267  29.218  55.729  1.00  0.00     0.011 A 
BRANCH  14  17
HETATM   17  O   UNL     1       9.739  30.154  58.334  1.00  0.00    -0.352 OA
BRANCH  17  18
HETATM   18  C   UNL     1      10.090  31.528  58.491  1.00  0.00     0.171 C 
HETATM   19  C   UNL     1       9.814  31.923  59.931  1.00  0.00     0.034 C 
ENDBRANCH  17  18
ENDBRANCH  14  17
ENDBRANCH   1  11
BRANCH   6  20
HETATM   20  S   UNL     1       4.706  26.116  52.926  1.00  0.00    -0.102 SA
BRANCH  20  21
HETATM   21  C   UNL     1       6.154  26.163  51.850  1.00  0.00     0.184 C 
BRANCH  21  22
HETATM   22  C   UNL     1       7.242  25.265  52.413  1.00  0.00     0.231 C 
HETATM   23  N   UNL     1       6.734  24.289  53.253  1.00  0.00    -0.327 N 
HETATM   24  H   UNL     1       5.769  24.416  53.542  1.00  0.00     0.169 HD
HETATM   25  O   UNL     1       8.418  25.460  52.118  1.00  0.00    -0.272 OA
BRANCH  23  26
HETATM   26  C   UNL     1       7.419  23.227  53.867  1.00  0.00     0.034 A 
HETATM   27  C   UNL     1       7.666  22.001  53.253  1.00  0.00     0.030 A 
HETATM   28  C   UNL     1       8.324  20.982  53.954  1.00  0.00     0.009 A 
HETATM   29  C   UNL     1       8.739  21.174  55.276  1.00  0.00    -0.062 A 
HETATM   30  C   UNL     1       9.469  20.089  56.011  1.00  0.00     0.048 C 
HETATM   31  C   UNL     1       8.509  22.411  55.882  1.00  0.00     0.009 A 
HETATM   32  C   UNL     1       7.846  23.425  55.187  1.00  0.00     0.030 A 
ENDBRANCH  23  26
ENDBRANCH  21  22
ENDBRANCH  20  21
ENDBRANCH   6  20
BRANCH   2  33
HETATM   33  C   UNL     1       3.644  31.393  55.674  1.00  0.00     0.255 C 
HETATM   34  N   UNL     1       4.602  32.363  55.904  1.00  0.00    -0.323 N 
HETATM   35  H   UNL     1       5.534  32.176  55.558  1.00  0.00     0.169 HD
HETATM   36  O   UNL     1       2.449  31.463  55.920  1.00  0.00    -0.268 OA
BRANCH  34  37
HETATM   37  C   UNL     1       4.458  33.572  56.614  1.00  0.00     0.035 A 
HETATM   38  C   UNL     1       4.178  33.650  57.978  1.00  0.00     0.029 A 
HETATM   39  C   UNL     1       4.074  34.895  58.607  1.00  0.00     0.002 A 
HETATM   40  C   UNL     1       4.254  36.070  57.881  1.00  0.00     0.000 A 
HETATM   41  C   UNL     1       4.534  36.002  56.519  1.00  0.00     0.002 A 
HETATM   42  C   UNL     1       4.630  34.760  55.889  1.00  0.00     0.029 A 
ENDBRANCH  34  37
ENDBRANCH   2  33
TORSDOF 9
ENDMDL
MODEL 8
REMARK VINA RESULT:      -9.5      5.809     10.204
REMARK  9 active torsions:
REMARK  status: ('A' for Active; 'I' for Inactive)
REMARK    1  A    between atoms: C_2  and  O_3 
REMARK    2  A    between atoms: O_3  and  C_4 
REMARK    3  A    between atoms: C_7  and  C_8 
REMARK    4  A    between atoms: C_9  and  C_10 
REMARK       I    between atoms: C_10  and  N_11 
REMARK    5  A    between atoms: N_11  and  C_12 
REMARK    6  A    between atoms: C_22  and  S_23 
REMARK    7  A    between atoms: S_23  and  C_24 
REMARK    8  A    between atoms: C_24  and  C_25 
REMARK       I    between atoms: C_25  and  N_26 
REMARK    9  A    between atoms: N_26  and  C_27 
ROOT
HETATM    1  C   UNL     1       3.236  30.083  50.151  1.00  0.00     0.104 C 
HETATM    2  C   UNL     1       3.352  28.865  49.232  1.00  0.00     0.046 C 
HETATM    3  C   UNL     1       3.956  27.731  49.660  1.00  0.00     0.019 C 
HETATM    4  C   UNL     1       4.334  26.564  48.784  1.00  0.00     0.069 C 
HETATM    5  N   UNL     1       4.277  27.601  51.000  1.00  0.00    -0.353 N 
HETATM    6  C   UNL     1       3.917  28.500  51.991  1.00  0.00     0.087 C 
HETATM    7  C   UNL     1       3.426  29.717  51.622  1.00  0.00     0.055 C 
HETATM    8  C   UNL     1       3.173  30.764  52.694  1.00  0.00     0.019 C 
HETATM    9  N   UNL     1       2.961  31.632  53.583  1.00  0.00    -0.096 N 
HETATM   10  H   UNL     1       4.865  26.812  51.261  1.00  0.00     0.166 HD
ENDROOT
BRANCH   1  11
HETATM   11  C   UNL     1       4.218  31.190  49.760  1.00  0.00    -0.044 A 
HETATM   12  C   UNL     1       3.747  32.461  49.404  1.00  0.00     0.011 A 
HETATM   13  C   UNL     1       4.646  33.484  49.082  1.00  0.00     0.037 A 
HETATM   14  C   UNL     1       6.024  33.262  49.114  1.00  0.00     0.068 A 
HETATM   15  C   UNL     1       6.501  31.998  49.454  1.00  0.00     0.037 A 
HETATM   16  C   UNL     1       5.607  30.972  49.776  1.00  0.00     0.011 A 
BRANCH  14  17
HETATM   17  O   UNL     1       6.790  34.350  48.794  1.00  0.00    -0.352 OA
BRANCH  17  18
HETATM   18  C   UNL     1       7.808  34.153  47.814  1.00  0.00     0.171 C 
HETATM   19  C   UNL     1       7.132  33.863  46.485  1.00  0.00     0.034 C 
ENDBRANCH  17  18
ENDBRANCH  14  17
ENDBRANCH   1  11
BRANCH   6  20
HETATM   20  S   UNL     1       4.044  28.136  53.715  1.00  0.00    -0.102 SA
BRANCH  20  21
HETATM   21  C   UNL     1       5.745  27.584  53.951  1.00  0.00     0.184 C 
BRANCH  21  22
HETATM   22  C   UNL     1       5.829  26.079  53.760  1.00  0.00     0.231 C 
HETATM   23  N   UNL     1       7.054  25.568  54.154  1.00  0.00    -0.327 N 
HETATM   24  H   UNL     1       7.784  26.254  54.317  1.00  0.00     0.169 HD
HETATM   25  O   UNL     1       4.877  25.463  53.289  1.00  0.00    -0.272 OA
BRANCH  23  26
HETATM   26  C   UNL     1       7.454  24.223  54.221  1.00  0.00     0.034 A 
HETATM   27  C   UNL     1       7.887  23.484  53.122  1.00  0.00     0.030 A 
HETATM   28  C   UNL     1       8.232  22.135  53.273  1.00  0.00     0.009 A 
HETATM   29  C   UNL     1       8.144  21.508  54.520  1.00  0.00    -0.062 A 
HETATM   30  C   UNL     1       8.542  20.070  54.680  1.00  0.00     0.048 C 
HETATM   31  C   UNL     1       7.730  22.256  55.624  1.00  0.00     0.009 A 
HETATM   32  C   UNL     1       7.379  23.600  55.473  1.00  0.00     0.030 A 
ENDBRANCH  23  26
ENDBRANCH  21  22
ENDBRANCH  20  21
ENDBRANCH   6  20
BRANCH   2  33
HETATM   33  C   UNL     1       2.730  28.988  47.878  1.00  0.00     0.255 C 
HETATM   34  N   UNL     1       1.354  28.850  47.921  1.00  0.00    -0.323 N 
HETATM   35  H   UNL     1       0.939  28.708  48.832  1.00  0.00     0.169 HD
HETATM   36  O   UNL     1       3.413  29.262  46.902  1.00  0.00    -0.268 OA
BRANCH  34  37
HETATM   37  C   UNL     1       0.450  28.827  46.840  1.00  0.00     0.035 A 
HETATM   38  C   UNL     1      -0.250  29.942  46.381  1.00  0.00     0.029 A 
HETATM   39  C   UNL     1      -1.113  29.832  45.286  1.00  0.00     0.002 A 
HETATM   40  C   UNL     1      -1.277  28.610  44.637  1.00  0.00     0.000 A 
HETATM   41  C   UNL     1      -0.582  27.492  45.088  1.00  0.00     0.002 A 
HETATM   42  C   UNL     1       0.273  27.599  46.187  1.00  0.00     0.029 A 
ENDBRANCH  34  37
ENDBRANCH   2  33
TORSDOF 9
ENDMDL
MODEL 9
REMARK VINA RESULT:      -9.4      5.265      9.970
REMARK  9 active torsions:
REMARK  status: ('A' for Active; 'I' for Inactive)
REMARK    1  A    between atoms: C_2  and  O_3 
REMARK    2  A    between atoms: O_3  and  C_4 
REMARK    3  A    between atoms: C_7  and  C_8 
REMARK    4  A    between atoms: C_9  and  C_10 
REMARK       I    between atoms: C_10  and  N_11 
REMARK    5  A    between atoms: N_11  and  C_12 
REMARK    6  A    between atoms: C_22  and  S_23 
REMARK    7  A    between atoms: S_23  and  C_24 
REMARK    8  A    between atoms: C_24  and  C_25 
REMARK       I    between atoms: C_25  and  N_26 
REMARK    9  A    between atoms: N_26  and  C_27 
ROOT
HETATM    1  C   UNL     1       4.577  29.435  50.405  1.00  0.00     0.104 C 
HETATM    2  C   UNL     1       4.182  30.828  50.899  1.00  0.00     0.046 C 
HETATM    3  C   UNL     1       3.651  30.999  52.133  1.00  0.00     0.019 C 
HETATM    4  C   UNL     1       3.015  32.270  52.638  1.00  0.00     0.069 C 
HETATM    5  N   UNL     1       3.666  29.943  53.027  1.00  0.00    -0.353 N 
HETATM    6  C   UNL     1       4.300  28.731  52.810  1.00  0.00     0.087 C 
HETATM    7  C   UNL     1       4.740  28.441  51.552  1.00  0.00     0.055 C 
HETATM    8  C   UNL     1       5.298  27.055  51.270  1.00  0.00     0.019 C 
HETATM    9  N   UNL     1       5.763  25.907  51.036  1.00  0.00    -0.096 N 
HETATM   10  H   UNL     1       3.126  30.052  53.883  1.00  0.00     0.166 HD
ENDROOT
BRANCH   1  11
HETATM   11  C   UNL     1       3.580  28.888  49.381  1.00  0.00    -0.044 A 
HETATM   12  C   UNL     1       4.001  28.575  48.081  1.00  0.00     0.011 A 
HETATM   13  C   UNL     1       3.099  28.040  47.155  1.00  0.00     0.037 A 
HETATM   14  C   UNL     1       1.769  27.803  47.506  1.00  0.00     0.068 A 
HETATM   15  C   UNL     1       1.338  28.124  48.791  1.00  0.00     0.037 A 
HETATM   16  C   UNL     1       2.235  28.660  49.721  1.00  0.00     0.011 A 
BRANCH  14  17
HETATM   17  O   UNL     1       0.998  27.263  46.513  1.00  0.00    -0.352 OA
BRANCH  17  18
HETATM   18  C   UNL     1      -0.347  27.728  46.418  1.00  0.00     0.171 C 
HETATM   19  C   UNL     1      -0.654  27.985  44.954  1.00  0.00     0.034 C 
ENDBRANCH  17  18
ENDBRANCH  14  17
ENDBRANCH   1  11
BRANCH   6  20
HETATM   20  S   UNL     1       4.588  27.549  54.091  1.00  0.00    -0.102 SA
BRANCH  20  21
HETATM   21  C   UNL     1       6.207  27.973  54.763  1.00  0.00     0.184 C 
BRANCH  21  22
HETATM   22  C   UNL     1       6.981  26.705  55.079  1.00  0.00     0.231 C 
HETATM   23  N   UNL     1       6.538  25.623  54.338  1.00  0.00    -0.327 N 
HETATM   24  H   UNL     1       5.657  25.754  53.852  1.00  0.00     0.169 HD
HETATM   25  O   UNL     1       7.874  26.721  55.922  1.00  0.00    -0.272 OA
BRANCH  23  26
HETATM   26  C   UNL     1       7.078  24.326  54.285  1.00  0.00     0.034 A 
HETATM   27  C   UNL     1       7.601  23.747  53.132  1.00  0.00     0.030 A 
HETATM   28  C   UNL     1       8.084  22.432  53.161  1.00  0.00     0.009 A 
HETATM   29  C   UNL     1       8.046  21.681  54.340  1.00  0.00    -0.062 A 
HETATM   30  C   UNL     1       8.590  20.283  54.371  1.00  0.00     0.048 C 
HETATM   31  C   UNL     1       7.540  22.271  55.500  1.00  0.00     0.009 A 
HETATM   32  C   UNL     1       7.051  23.579  55.470  1.00  0.00     0.030 A 
ENDBRANCH  23  26
ENDBRANCH  21  22
ENDBRANCH  20  21
ENDBRANCH   6  20
BRANCH   2  33
HETATM   33  C   UNL     1       4.454  31.969  49.971  1.00  0.00     0.255 C 
HETATM   34  N   UNL     1       5.771  32.387  50.031  1.00  0.00    -0.323 N 
HETATM   35  H   UNL     1       6.383  31.878  50.656  1.00  0.00     0.169 HD
HETATM   36  O   UNL     1       3.584  32.379  49.217  1.00  0.00    -0.268 OA
BRANCH  34  37
HETATM   37  C   UNL     1       6.366  33.477  49.365  1.00  0.00     0.035 A 
HETATM   38  C   UNL     1       7.013  33.384  48.133  1.00  0.00     0.029 A 
HETATM   39  C   UNL     1       7.558  34.524  47.534  1.00  0.00     0.002 A 
HETATM   40  C   UNL     1       7.455  35.766  48.158  1.00  0.00     0.000 A 
HETATM   41  C   UNL     1       6.812  35.869  49.387  1.00  0.00     0.002 A 
HETATM   42  C   UNL     1       6.275  34.729  49.990  1.00  0.00     0.029 A 
ENDBRANCH  34  37
ENDBRANCH   2  33
TORSDOF 9
ENDMDL
MODEL 10
REMARK VINA RESULT:      -9.0      6.081     10.861
REMARK  9 active torsions:
REMARK  status: ('A' for Active; 'I' for Inactive)
REMARK    1  A    between atoms: C_2  and  O_3 
REMARK    2  A    between atoms: O_3  and  C_4 
REMARK    3  A    between atoms: C_7  and  C_8 
REMARK    4  A    between atoms: C_9  and  C_10 
REMARK       I    between atoms: C_10  and  N_11 
REMARK    5  A    between atoms: N_11  and  C_12 
REMARK    6  A    between atoms: C_22  and  S_23 
REMARK    7  A    between atoms: S_23  and  C_24 
REMARK    8  A    between atoms: C_24  and  C_25 
REMARK       I    between atoms: C_25  and  N_26 
REMARK    9  A    between atoms: N_26  and  C_27 
ROOT
HETATM    1  C   UNL     1       4.682  30.303  48.430  1.00  0.00     0.104 C 
HETATM    2  C   UNL     1       5.025  31.590  49.183  1.00  0.00     0.046 C 
HETATM    3  C   UNL     1       5.112  31.599  50.534  1.00  0.00     0.019 C 
HETATM    4  C   UNL     1       5.212  32.836  51.391  1.00  0.00     0.069 C 
HETATM    5  N   UNL     1       5.103  30.397  51.219  1.00  0.00    -0.353 N 
HETATM    6  C   UNL     1       5.134  29.146  50.624  1.00  0.00     0.087 C 
HETATM    7  C   UNL     1       4.918  29.057  49.281  1.00  0.00     0.055 C 
HETATM    8  C   UNL     1       4.799  27.681  48.645  1.00  0.00     0.019 C 
HETATM    9  N   UNL     1       4.702  26.541  48.118  1.00  0.00    -0.096 N 
HETATM   10  H   UNL     1       5.013  30.442  52.233  1.00  0.00     0.166 HD
ENDROOT
BRANCH   1  11
HETATM   11  C   UNL     1       3.243  30.312  47.910  1.00  0.00    -0.044 A 
HETATM   12  C   UNL     1       2.166  30.264  48.806  1.00  0.00     0.011 A 
HETATM   13  C   UNL     1       0.850  30.309  48.334  1.00  0.00     0.037 A 
HETATM   14  C   UNL     1       0.583  30.407  46.968  1.00  0.00     0.068 A 
HETATM   15  C   UNL     1       1.646  30.440  46.069  1.00  0.00     0.037 A 
HETATM   16  C   UNL     1       2.964  30.395  46.535  1.00  0.00     0.011 A 
BRANCH  14  17
HETATM   17  O   UNL     1      -0.745  30.458  46.643  1.00  0.00    -0.352 OA
BRANCH  17  18
HETATM   18  C   UNL     1      -1.195  29.555  45.633  1.00  0.00     0.171 C 
HETATM   19  C   UNL     1      -1.050  28.141  46.168  1.00  0.00     0.034 C 
ENDBRANCH  17  18
ENDBRANCH  14  17
ENDBRANCH   1  11
BRANCH   6  20
HETATM   20  S   UNL     1       5.463  27.660  51.521  1.00  0.00    -0.102 SA
BRANCH  20  21
HETATM   21  C   UNL     1       6.226  28.203  53.062  1.00  0.00     0.184 C 
BRANCH  21  22
HETATM   22  C   UNL     1       7.022  27.063  53.672  1.00  0.00     0.231 C 
HETATM   23  N   UNL     1       6.463  25.827  53.395  1.00  0.00    -0.327 N 
HETATM   24  H   UNL     1       5.522  25.845  53.016  1.00  0.00     0.169 HD
HETATM   25  O   UNL     1       8.028  27.298  54.335  1.00  0.00    -0.272 OA
BRANCH  23  26
HETATM   26  C   UNL     1       6.972  24.554  53.701  1.00  0.00     0.034 A 
HETATM   27  C   UNL     1       7.562  23.706  52.767  1.00  0.00     0.030 A 
HETATM   28  C   UNL     1       8.010  22.435  53.153  1.00  0.00     0.009 A 
HETATM   29  C   UNL     1       7.869  21.996  54.473  1.00  0.00    -0.062 A 
HETATM   30  C   UNL     1       8.376  20.646  54.886  1.00  0.00     0.048 C 
HETATM   31  C   UNL     1       7.297  22.856  55.413  1.00  0.00     0.009 A 
HETATM   32  C   UNL     1       6.843  24.120  55.027  1.00  0.00     0.030 A 
ENDBRANCH  23  26
ENDBRANCH  21  22
ENDBRANCH  20  21
ENDBRANCH   6  20
BRANCH   2  33
HETATM   33  C   UNL     1       5.297  32.801  48.347  1.00  0.00     0.255 C 
HETATM   34  N   UNL     1       6.556  32.769  47.777  1.00  0.00    -0.323 N 
HETATM   35  H   UNL     1       7.121  31.951  47.964  1.00  0.00     0.169 HD
HETATM   36  O   UNL     1       4.427  33.641  48.169  1.00  0.00    -0.268 OA
BRANCH  34  37
HETATM   37  C   UNL     1       7.182  33.766  47.001  1.00  0.00     0.035 A 
HETATM   38  C   UNL     1       7.076  33.860  45.614  1.00  0.00     0.029 A 
HETATM   39  C   UNL     1       7.716  34.896  44.926  1.00  0.00     0.002 A 
HETATM   40  C   UNL     1       8.460  35.849  45.619  1.00  0.00     0.000 A 
HETATM   41  C   UNL     1       8.571  35.764  47.004  1.00  0.00     0.002 A 
HETATM   42  C   UNL     1       7.939  34.724  47.690  1.00  0.00     0.029 A 
ENDBRANCH  34  37
ENDBRANCH   2  33
TORSDOF 9
ENDMDL
