MODEL 1
REMARK VINA RESULT:      -8.4      0.000      0.000
REMARK  5 active torsions:
REMARK  status: ('A' for Active; 'I' for Inactive)
REMARK    1  A    between atoms: C_2  and  C_3 
REMARK       I    between atoms: C_3  and  N_4 
REMARK    2  A    between atoms: N_4  and  C_5 
REMARK    3  A    between atoms: C_7  and  N_8 
REMARK       I    between atoms: N_8  and  C_9 
REMARK       I    between atoms: C_9  and  N_10 
REMARK    4  A    between atoms: N_10  and  C_11 
REMARK    5  A    between atoms: C_11  and  C_12 
ROOT
HETATM    1  N   UNL     1       5.000  26.850  56.027  1.00  0.00    -0.306 N 
HETATM    2  C   UNL     1       4.763  27.956  55.304  1.00  0.00     0.321 C 
HETATM    3  N   UNL     1       5.473  28.356  54.245  1.00  0.00    -0.338 N 
HETATM    4  O   UNL     1       3.768  28.626  55.599  1.00  0.00    -0.247 OA
HETATM    5  H   UNL     1       4.173  26.630  56.579  1.00  0.00     0.171 HD
HETATM    6  H   UNL     1       5.066  29.196  53.858  1.00  0.00     0.164 HD
ENDROOT
BRANCH   1   7
HETATM    7  C   UNL     1       6.091  26.006  56.292  1.00  0.00     0.077 C 
HETATM    8  C   UNL     1       6.345  24.790  55.660  1.00  0.00     0.062 C 
HETATM    9  C   UNL     1       7.418  23.981  56.063  1.00  0.00     0.037 C 
HETATM   10  C   UNL     1       8.325  24.466  57.014  1.00  0.00     0.032 C 
HETATM   11  C   UNL     1       8.141  25.725  57.583  1.00  0.00     0.047 C 
HETATM   12  C   UNL     1       7.026  26.472  57.226  1.00  0.00     0.143 C 
HETATM   13  F   UNL     1       6.845  27.672  57.803  1.00  0.00    -0.204 F 
BRANCH   9  14
HETATM   14  N   UNL     1       7.624  22.660  55.610  1.00  0.00    -0.327 N 
HETATM   15  C   UNL     1       8.009  22.258  54.343  1.00  0.00     0.221 C 
HETATM   16  O   UNL     1       8.422  22.978  53.440  1.00  0.00    -0.273 OA
HETATM   17  H   UNL     1       7.358  21.924  56.253  1.00  0.00     0.169 HD
BRANCH  15  18
HETATM   18  C   UNL     1       7.825  20.769  54.121  1.00  0.00     0.098 C 
HETATM   19  C   UNL     1       8.372  20.348  52.765  1.00  0.00     0.014 C 
ENDBRANCH  15  18
ENDBRANCH   9  14
ENDBRANCH   1   7
BRANCH   3  20
HETATM   20  C   UNL     1       6.380  27.655  53.363  1.00  0.00     0.167 C 
BRANCH  20  21
HETATM   21  C   UNL     1       5.675  27.277  52.103  1.00  0.00     0.009 A 
HETATM   22  C   UNL     1       5.310  28.135  51.028  1.00  0.00     0.060 A 
HETATM   23  C   UNL     1       5.558  29.593  50.898  1.00  0.00     0.073 C 
HETATM   24  N   UNL     1       4.641  27.482  50.070  1.00  0.00    -0.179 NA
HETATM   25  N   UNL     1       4.564  26.224  50.525  1.00  0.00    -0.282 N 
HETATM   26  H   UNL     1       4.078  25.539  49.955  1.00  0.00     0.189 HD
HETATM   27  C   UNL     1       5.149  26.044  51.745  1.00  0.00     0.034 A 
HETATM   28  C   UNL     1       5.130  24.733  52.439  1.00  0.00     0.070 C 
ENDBRANCH  20  21
ENDBRANCH   3  20
TORSDOF 5
ENDMDL
MODEL 2
REMARK VINA RESULT:      -8.2      3.790      6.800
REMARK  5 active torsions:
REMARK  status: ('A' for Active; 'I' for Inactive)
REMARK    1  A    between atoms: C_2  and  C_3 
REMARK       I    between atoms: C_3  and  N_4 
REMARK    2  A    between atoms: N_4  and  C_5 
REMARK    3  A    between atoms: C_7  and  N_8 
REMARK       I    between atoms: N_8  and  C_9 
REMARK       I    between atoms: C_9  and  N_10 
REMARK    4  A    between atoms: N_10  and  C_11 
REMARK    5  A    between atoms: C_11  and  C_12 
ROOT
HETATM    1  N   UNL     1       5.481  29.597  55.862  1.00  0.00    -0.306 N 
HETATM    2  C   UNL     1       4.696  28.762  55.162  1.00  0.00     0.321 C 
HETATM    3  N   UNL     1       4.683  27.431  55.278  1.00  0.00    -0.338 N 
HETATM    4  O   UNL     1       3.870  29.267  54.395  1.00  0.00    -0.247 OA
HETATM    5  H   UNL     1       5.105  30.541  55.795  1.00  0.00     0.171 HD
HETATM    6  H   UNL     1       3.976  27.041  54.669  1.00  0.00     0.164 HD
ENDROOT
BRANCH   1   7
HETATM    7  C   UNL     1       6.702  29.527  56.550  1.00  0.00     0.077 C 
HETATM    8  C   UNL     1       6.889  29.819  57.901  1.00  0.00     0.062 C 
HETATM    9  C   UNL     1       8.171  29.802  58.470  1.00  0.00     0.037 C 
HETATM   10  C   UNL     1       9.255  29.350  57.707  1.00  0.00     0.032 C 
HETATM   11  C   UNL     1       9.068  28.958  56.383  1.00  0.00     0.047 C 
HETATM   12  C   UNL     1       7.803  29.061  55.819  1.00  0.00     0.143 C 
HETATM   13  F   UNL     1       7.644  28.707  54.533  1.00  0.00    -0.204 F 
BRANCH   9  14
HETATM   14  N   UNL     1       8.463  30.271  59.769  1.00  0.00    -0.327 N 
HETATM   15  C   UNL     1       8.994  31.501  60.117  1.00  0.00     0.221 C 
HETATM   16  O   UNL     1       9.132  32.473  59.383  1.00  0.00    -0.273 OA
HETATM   17  H   UNL     1       8.373  29.593  60.516  1.00  0.00     0.169 HD
BRANCH  15  18
HETATM   18  C   UNL     1       9.472  31.545  61.556  1.00  0.00     0.098 C 
HETATM   19  C   UNL     1       8.393  32.104  62.472  1.00  0.00     0.014 C 
ENDBRANCH  15  18
ENDBRANCH   9  14
ENDBRANCH   1   7
BRANCH   3  20
HETATM   20  C   UNL     1       5.148  26.543  56.320  1.00  0.00     0.167 C 
BRANCH  20  21
HETATM   21  C   UNL     1       6.158  25.593  55.767  1.00  0.00     0.009 A 
HETATM   22  C   UNL     1       7.411  25.235  56.340  1.00  0.00     0.060 A 
HETATM   23  C   UNL     1       7.996  25.703  57.621  1.00  0.00     0.073 C 
HETATM   24  N   UNL     1       8.098  24.394  55.557  1.00  0.00    -0.179 NA
HETATM   25  N   UNL     1       7.307  24.222  54.490  1.00  0.00    -0.282 N 
HETATM   26  H   UNL     1       7.638  23.619  53.743  1.00  0.00     0.189 HD
HETATM   27  C   UNL     1       6.140  24.928  54.549  1.00  0.00     0.034 A 
HETATM   28  C   UNL     1       5.152  24.906  53.444  1.00  0.00     0.070 C 
ENDBRANCH  20  21
ENDBRANCH   3  20
TORSDOF 5
ENDMDL
MODEL 3
REMARK VINA RESULT:      -8.0      3.510      5.554
REMARK  5 active torsions:
REMARK  status: ('A' for Active; 'I' for Inactive)
REMARK    1  A    between atoms: C_2  and  C_3 
REMARK       I    between atoms: C_3  and  N_4 
REMARK    2  A    between atoms: N_4  and  C_5 
REMARK    3  A    between atoms: C_7  and  N_8 
REMARK       I    between atoms: N_8  and  C_9 
REMARK       I    between atoms: C_9  and  N_10 
REMARK    4  A    between atoms: N_10  and  C_11 
REMARK    5  A    between atoms: C_11  and  C_12 
ROOT
HETATM    1  N   UNL     1       5.706  28.246  55.842  1.00  0.00    -0.306 N 
HETATM    2  C   UNL     1       5.704  28.897  57.017  1.00  0.00     0.321 C 
HETATM    3  N   UNL     1       6.683  28.857  57.927  1.00  0.00    -0.338 N 
HETATM    4  O   UNL     1       4.752  29.649  57.249  1.00  0.00    -0.247 OA
HETATM    5  H   UNL     1       5.003  28.658  55.233  1.00  0.00     0.171 HD
HETATM    6  H   UNL     1       6.454  29.464  58.702  1.00  0.00     0.164 HD
ENDROOT
BRANCH   1   7
HETATM    7  C   UNL     1       6.331  27.115  55.293  1.00  0.00     0.077 C 
HETATM    8  C   UNL     1       6.316  25.834  55.844  1.00  0.00     0.062 C 
HETATM    9  C   UNL     1       7.049  24.791  55.259  1.00  0.00     0.037 C 
HETATM   10  C   UNL     1       7.689  25.006  54.032  1.00  0.00     0.032 C 
HETATM   11  C   UNL     1       7.630  26.255  53.417  1.00  0.00     0.047 C 
HETATM   12  C   UNL     1       6.965  27.293  54.056  1.00  0.00     0.143 C 
HETATM   13  F   UNL     1       6.941  28.500  53.466  1.00  0.00    -0.204 F 
BRANCH   9  14
HETATM   14  N   UNL     1       7.239  23.528  55.858  1.00  0.00    -0.327 N 
HETATM   15  C   UNL     1       8.203  23.176  56.787  1.00  0.00     0.221 C 
HETATM   16  O   UNL     1       8.946  23.939  57.395  1.00  0.00    -0.273 OA
HETATM   17  H   UNL     1       6.675  22.772  55.490  1.00  0.00     0.169 HD
BRANCH  15  18
HETATM   18  C   UNL     1       8.317  21.675  56.972  1.00  0.00     0.098 C 
HETATM   19  C   UNL     1       7.804  20.934  55.746  1.00  0.00     0.014 C 
ENDBRANCH  15  18
ENDBRANCH   9  14
ENDBRANCH   1   7
BRANCH   3  20
HETATM   20  C   UNL     1       8.075  28.477  57.839  1.00  0.00     0.167 C 
BRANCH  20  21
HETATM   21  C   UNL     1       8.942  29.684  57.983  1.00  0.00     0.009 A 
HETATM   22  C   UNL     1       9.895  30.178  57.049  1.00  0.00     0.060 A 
HETATM   23  C   UNL     1      10.236  29.627  55.714  1.00  0.00     0.073 C 
HETATM   24  N   UNL     1      10.540  31.255  57.514  1.00  0.00    -0.179 NA
HETATM   25  N   UNL     1      10.021  31.446  58.734  1.00  0.00    -0.282 N 
HETATM   26  H   UNL     1      10.377  32.217  59.289  1.00  0.00     0.189 HD
HETATM   27  C   UNL     1       9.073  30.526  59.078  1.00  0.00     0.034 A 
HETATM   28  C   UNL     1       8.413  30.538  60.406  1.00  0.00     0.070 C 
ENDBRANCH  20  21
ENDBRANCH   3  20
TORSDOF 5
ENDMDL
MODEL 4
REMARK VINA RESULT:      -7.8      2.435      5.864
REMARK  5 active torsions:
REMARK  status: ('A' for Active; 'I' for Inactive)
REMARK    1  A    between atoms: C_2  and  C_3 
REMARK       I    between atoms: C_3  and  N_4 
REMARK    2  A    between atoms: N_4  and  C_5 
REMARK    3  A    between atoms: C_7  and  N_8 
REMARK       I    between atoms: N_8  and  C_9 
REMARK       I    between atoms: C_9  and  N_10 
REMARK    4  A    between atoms: N_10  and  C_11 
REMARK    5  A    between atoms: C_11  and  C_12 
ROOT
HETATM    1  N   UNL     1       7.343  27.069  55.686  1.00  0.00    -0.306 N 
HETATM    2  C   UNL     1       7.764  26.171  56.591  1.00  0.00     0.321 C 
HETATM    3  N   UNL     1       7.378  24.892  56.652  1.00  0.00    -0.338 N 
HETATM    4  O   UNL     1       8.631  26.534  57.393  1.00  0.00    -0.247 OA
HETATM    5  H   UNL     1       7.983  27.861  55.681  1.00  0.00     0.171 HD
HETATM    6  H   UNL     1       7.870  24.421  57.398  1.00  0.00     0.164 HD
ENDROOT
BRANCH   1   7
HETATM    7  C   UNL     1       6.229  27.244  54.850  1.00  0.00     0.077 C 
HETATM    8  C   UNL     1       5.988  26.547  53.667  1.00  0.00     0.062 C 
HETATM    9  C   UNL     1       4.885  26.862  52.859  1.00  0.00     0.037 C 
HETATM   10  C   UNL     1       3.941  27.790  53.317  1.00  0.00     0.032 C 
HETATM   11  C   UNL     1       4.115  28.422  54.546  1.00  0.00     0.047 C 
HETATM   12  C   UNL     1       5.257  28.153  55.290  1.00  0.00     0.143 C 
HETATM   13  F   UNL     1       5.427  28.791  56.460  1.00  0.00    -0.204 F 
BRANCH   9  14
HETATM   14  N   UNL     1       4.682  26.341  51.563  1.00  0.00    -0.327 N 
HETATM   15  C   UNL     1       4.939  26.969  50.357  1.00  0.00     0.221 C 
HETATM   16  O   UNL     1       5.561  28.013  50.192  1.00  0.00    -0.273 OA
HETATM   17  H   UNL     1       4.198  25.454  51.512  1.00  0.00     0.169 HD
BRANCH  15  18
HETATM   18  C   UNL     1       4.311  26.251  49.178  1.00  0.00     0.098 C 
HETATM   19  C   UNL     1       4.776  26.852  47.861  1.00  0.00     0.014 C 
ENDBRANCH  15  18
ENDBRANCH   9  14
ENDBRANCH   1   7
BRANCH   3  20
HETATM   20  C   UNL     1       6.761  24.018  55.679  1.00  0.00     0.167 C 
BRANCH  20  21
HETATM   21  C   UNL     1       7.769  23.051  55.151  1.00  0.00     0.009 A 
HETATM   22  C   UNL     1       8.252  22.951  53.816  1.00  0.00     0.060 A 
HETATM   23  C   UNL     1       7.884  23.788  52.647  1.00  0.00     0.073 C 
HETATM   24  N   UNL     1       9.115  21.939  53.671  1.00  0.00    -0.179 NA
HETATM   25  N   UNL     1       9.180  21.386  54.889  1.00  0.00    -0.282 N 
HETATM   26  H   UNL     1       9.779  20.577  55.016  1.00  0.00     0.189 HD
HETATM   27  C   UNL     1       8.382  21.998  55.814  1.00  0.00     0.034 A 
HETATM   28  C   UNL     1       8.279  21.507  57.209  1.00  0.00     0.070 C 
ENDBRANCH  20  21
ENDBRANCH   3  20
TORSDOF 5
ENDMDL
MODEL 5
REMARK VINA RESULT:      -7.7      3.012      6.699
REMARK  5 active torsions:
REMARK  status: ('A' for Active; 'I' for Inactive)
REMARK    1  A    between atoms: C_2  and  C_3 
REMARK       I    between atoms: C_3  and  N_4 
REMARK    2  A    between atoms: N_4  and  C_5 
REMARK    3  A    between atoms: C_7  and  N_8 
REMARK       I    between atoms: N_8  and  C_9 
REMARK       I    between atoms: C_9  and  N_10 
REMARK    4  A    between atoms: N_10  and  C_11 
REMARK    5  A    between atoms: C_11  and  C_12 
ROOT
HETATM    1  N   UNL     1       6.834  26.529  52.718  1.00  0.00    -0.306 N 
HETATM    2  C   UNL     1       7.212  25.254  52.532  1.00  0.00     0.321 C 
HETATM    3  N   UNL     1       7.142  24.283  53.449  1.00  0.00    -0.338 N 
HETATM    4  O   UNL     1       7.595  24.933  51.402  1.00  0.00    -0.247 OA
HETATM    5  H   UNL     1       6.724  26.979  51.811  1.00  0.00     0.171 HD
HETATM    6  H   UNL     1       7.451  23.409  53.046  1.00  0.00     0.164 HD
ENDROOT
BRANCH   1   7
HETATM    7  C   UNL     1       6.659  27.403  53.802  1.00  0.00     0.077 C 
HETATM    8  C   UNL     1       7.684  28.007  54.529  1.00  0.00     0.062 C 
HETATM    9  C   UNL     1       7.401  28.796  55.653  1.00  0.00     0.037 C 
HETATM   10  C   UNL     1       6.068  29.094  55.965  1.00  0.00     0.032 C 
HETATM   11  C   UNL     1       5.033  28.579  55.188  1.00  0.00     0.047 C 
HETATM   12  C   UNL     1       5.337  27.735  54.128  1.00  0.00     0.143 C 
HETATM   13  F   UNL     1       4.327  27.223  53.405  1.00  0.00    -0.204 F 
BRANCH   9  14
HETATM   14  N   UNL     1       8.382  29.278  56.547  1.00  0.00    -0.327 N 
HETATM   15  C   UNL     1       9.677  29.662  56.244  1.00  0.00     0.221 C 
HETATM   16  O   UNL     1      10.147  29.831  55.124  1.00  0.00    -0.273 OA
HETATM   17  H   UNL     1       8.145  29.237  57.530  1.00  0.00     0.169 HD
BRANCH  15  18
HETATM   18  C   UNL     1      10.543  29.820  57.479  1.00  0.00     0.098 C 
HETATM   19  C   UNL     1      10.417  31.221  58.058  1.00  0.00     0.014 C 
ENDBRANCH  15  18
ENDBRANCH   9  14
ENDBRANCH   1   7
BRANCH   3  20
HETATM   20  C   UNL     1       6.380  24.157  54.671  1.00  0.00     0.167 C 
BRANCH  20  21
HETATM   21  C   UNL     1       7.259  23.655  55.769  1.00  0.00     0.009 A 
HETATM   22  C   UNL     1       7.828  22.356  55.893  1.00  0.00     0.060 A 
HETATM   23  C   UNL     1       7.699  21.209  54.961  1.00  0.00     0.073 C 
HETATM   24  N   UNL     1       8.526  22.222  57.027  1.00  0.00    -0.179 NA
HETATM   25  N   UNL     1       8.400  23.411  57.632  1.00  0.00    -0.282 N 
HETATM   26  H   UNL     1       8.848  23.538  58.534  1.00  0.00     0.189 HD
HETATM   27  C   UNL     1       7.638  24.304  56.935  1.00  0.00     0.034 A 
HETATM   28  C   UNL     1       7.341  25.659  57.459  1.00  0.00     0.070 C 
ENDBRANCH  20  21
ENDBRANCH   3  20
TORSDOF 5
ENDMDL
MODEL 6
REMARK VINA RESULT:      -7.7      2.469      4.901
REMARK  5 active torsions:
REMARK  status: ('A' for Active; 'I' for Inactive)
REMARK    1  A    between atoms: C_2  and  C_3 
REMARK       I    between atoms: C_3  and  N_4 
REMARK    2  A    between atoms: N_4  and  C_5 
REMARK    3  A    between atoms: C_7  and  N_8 
REMARK       I    between atoms: N_8  and  C_9 
REMARK       I    between atoms: C_9  and  N_10 
REMARK    4  A    between atoms: N_10  and  C_11 
REMARK    5  A    between atoms: C_11  and  C_12 
ROOT
HETATM    1  N   UNL     1       5.322  27.299  53.485  1.00  0.00    -0.306 N 
HETATM    2  C   UNL     1       4.445  27.878  54.320  1.00  0.00     0.321 C 
HETATM    3  N   UNL     1       4.273  27.558  55.607  1.00  0.00    -0.338 N 
HETATM    4  O   UNL     1       3.787  28.829  53.885  1.00  0.00    -0.247 OA
HETATM    5  H   UNL     1       5.452  27.898  52.672  1.00  0.00     0.171 HD
HETATM    6  H   UNL     1       3.581  28.167  56.021  1.00  0.00     0.164 HD
ENDROOT
BRANCH   1   7
HETATM    7  C   UNL     1       6.004  26.075  53.395  1.00  0.00     0.077 C 
HETATM    8  C   UNL     1       6.087  25.118  54.404  1.00  0.00     0.062 C 
HETATM    9  C   UNL     1       6.870  23.966  54.241  1.00  0.00     0.037 C 
HETATM   10  C   UNL     1       7.461  23.708  52.997  1.00  0.00     0.032 C 
HETATM   11  C   UNL     1       7.305  24.607  51.945  1.00  0.00     0.047 C 
HETATM   12  C   UNL     1       6.592  25.780  52.157  1.00  0.00     0.143 C 
HETATM   13  F   UNL     1       6.474  26.652  51.142  1.00  0.00    -0.204 F 
BRANCH   9  14
HETATM   14  N   UNL     1       7.158  23.053  55.279  1.00  0.00    -0.327 N 
HETATM   15  C   UNL     1       8.385  22.820  55.874  1.00  0.00     0.221 C 
HETATM   16  O   UNL     1       9.403  23.491  55.741  1.00  0.00    -0.273 OA
HETATM   17  H   UNL     1       6.406  22.428  55.542  1.00  0.00     0.169 HD
BRANCH  15  18
HETATM   18  C   UNL     1       8.394  21.561  56.721  1.00  0.00     0.098 C 
HETATM   19  C   UNL     1       7.666  20.426  56.018  1.00  0.00     0.014 C 
ENDBRANCH  15  18
ENDBRANCH   9  14
ENDBRANCH   1   7
BRANCH   3  20
HETATM   20  C   UNL     1       5.110  26.853  56.552  1.00  0.00     0.167 C 
BRANCH  20  21
HETATM   21  C   UNL     1       6.089  27.798  57.168  1.00  0.00     0.009 A 
HETATM   22  C   UNL     1       7.432  27.520  57.550  1.00  0.00     0.060 A 
HETATM   23  C   UNL     1       8.176  26.243  57.412  1.00  0.00     0.073 C 
HETATM   24  N   UNL     1       8.018  28.579  58.122  1.00  0.00    -0.179 NA
HETATM   25  N   UNL     1       7.066  29.521  58.120  1.00  0.00    -0.282 N 
HETATM   26  H   UNL     1       7.288  30.425  58.525  1.00  0.00     0.189 HD
HETATM   27  C   UNL     1       5.884  29.107  57.578  1.00  0.00     0.034 A 
HETATM   28  C   UNL     1       4.693  29.988  57.526  1.00  0.00     0.070 C 
ENDBRANCH  20  21
ENDBRANCH   3  20
TORSDOF 5
ENDMDL
MODEL 7
REMARK VINA RESULT:      -7.6      3.437      5.388
REMARK  5 active torsions:
REMARK  status: ('A' for Active; 'I' for Inactive)
REMARK    1  A    between atoms: C_2  and  C_3 
REMARK       I    between atoms: C_3  and  N_4 
REMARK    2  A    between atoms: N_4  and  C_5 
REMARK    3  A    between atoms: C_7  and  N_8 
REMARK       I    between atoms: N_8  and  C_9 
REMARK       I    between atoms: C_9  and  N_10 
REMARK    4  A    between atoms: N_10  and  C_11 
REMARK    5  A    between atoms: C_11  and  C_12 
ROOT
HETATM    1  N   UNL     1       6.066  28.506  55.324  1.00  0.00    -0.306 N 
HETATM    2  C   UNL     1       5.978  29.685  55.961  1.00  0.00     0.321 C 
HETATM    3  N   UNL     1       6.479  29.951  57.172  1.00  0.00    -0.338 N 
HETATM    4  O   UNL     1       5.449  30.622  55.354  1.00  0.00    -0.247 OA
HETATM    5  H   UNL     1       5.864  28.646  54.336  1.00  0.00     0.171 HD
HETATM    6  H   UNL     1       6.311  30.920  57.406  1.00  0.00     0.164 HD
ENDROOT
BRANCH   1   7
HETATM    7  C   UNL     1       6.254  27.159  55.672  1.00  0.00     0.077 C 
HETATM    8  C   UNL     1       7.280  26.338  55.208  1.00  0.00     0.062 C 
HETATM    9  C   UNL     1       7.325  24.979  55.550  1.00  0.00     0.037 C 
HETATM   10  C   UNL     1       6.407  24.475  56.481  1.00  0.00     0.032 C 
HETATM   11  C   UNL     1       5.436  25.307  57.032  1.00  0.00     0.047 C 
HETATM   12  C   UNL     1       5.362  26.630  56.616  1.00  0.00     0.143 C 
HETATM   13  F   UNL     1       4.402  27.414  57.134  1.00  0.00    -0.204 F 
BRANCH   9  14
HETATM   14  N   UNL     1       8.213  24.047  54.970  1.00  0.00    -0.327 N 
HETATM   15  C   UNL     1       8.018  23.310  53.815  1.00  0.00     0.221 C 
HETATM   16  O   UNL     1       7.126  23.467  52.988  1.00  0.00    -0.273 OA
HETATM   17  H   UNL     1       9.034  23.817  55.516  1.00  0.00     0.169 HD
BRANCH  15  18
HETATM   18  C   UNL     1       9.025  22.186  53.662  1.00  0.00     0.098 C 
HETATM   19  C   UNL     1       8.532  20.916  54.338  1.00  0.00     0.014 C 
ENDBRANCH  15  18
ENDBRANCH   9  14
ENDBRANCH   1   7
BRANCH   3  20
HETATM   20  C   UNL     1       7.494  29.297  57.967  1.00  0.00     0.167 C 
BRANCH  20  21
HETATM   21  C   UNL     1       8.694  30.178  58.084  1.00  0.00     0.009 A 
HETATM   22  C   UNL     1       8.881  31.267  58.982  1.00  0.00     0.060 A 
HETATM   23  C   UNL     1       7.943  31.769  60.017  1.00  0.00     0.073 C 
HETATM   24  N   UNL     1      10.055  31.880  58.788  1.00  0.00    -0.179 NA
HETATM   25  N   UNL     1      10.613  31.206  57.774  1.00  0.00    -0.282 N 
HETATM   26  H   UNL     1      11.522  31.509  57.442  1.00  0.00     0.189 HD
HETATM   27  C   UNL     1       9.838  30.187  57.298  1.00  0.00     0.034 A 
HETATM   28  C   UNL     1      10.258  29.352  56.148  1.00  0.00     0.070 C 
ENDBRANCH  20  21
ENDBRANCH   3  20
TORSDOF 5
ENDMDL
MODEL 8
REMARK VINA RESULT:      -7.6      2.763      5.725
REMARK  5 active torsions:
REMARK  status: ('A' for Active; 'I' for Inactive)
REMARK    1  A    between atoms: C_2  and  C_3 
REMARK       I    between atoms: C_3  and  N_4 
REMARK    2  A    between atoms: N_4  and  C_5 
REMARK    3  A    between atoms: C_7  and  N_8 
REMARK       I    between atoms: N_8  and  C_9 
REMARK       I    between atoms: C_9  and  N_10 
REMARK    4  A    between atoms: N_10  and  C_11 
REMARK    5  A    between atoms: C_11  and  C_12 
ROOT
HETATM    1  N   UNL     1       5.098  25.288  55.375  1.00  0.00    -0.306 N 
HETATM    2  C   UNL     1       5.361  25.634  56.645  1.00  0.00     0.321 C 
HETATM    3  N   UNL     1       6.324  26.475  57.036  1.00  0.00    -0.338 N 
HETATM    4  O   UNL     1       4.611  25.192  57.522  1.00  0.00    -0.247 OA
HETATM    5  H   UNL     1       4.169  24.877  55.328  1.00  0.00     0.171 HD
HETATM    6  H   UNL     1       6.286  26.596  58.039  1.00  0.00     0.164 HD
ENDROOT
BRANCH   1   7
HETATM    7  C   UNL     1       5.790  25.251  54.154  1.00  0.00     0.077 C 
HETATM    8  C   UNL     1       5.457  25.977  53.011  1.00  0.00     0.062 C 
HETATM    9  C   UNL     1       6.165  25.798  51.814  1.00  0.00     0.037 C 
HETATM   10  C   UNL     1       7.306  24.985  51.805  1.00  0.00     0.032 C 
HETATM   11  C   UNL     1       7.712  24.330  52.966  1.00  0.00     0.047 C 
HETATM   12  C   UNL     1       6.947  24.460  54.118  1.00  0.00     0.143 C 
HETATM   13  F   UNL     1       7.334  23.800  55.223  1.00  0.00    -0.204 F 
BRANCH   9  14
HETATM   14  N   UNL     1       5.770  26.346  50.574  1.00  0.00    -0.327 N 
HETATM   15  C   UNL     1       5.411  27.657  50.313  1.00  0.00     0.221 C 
HETATM   16  O   UNL     1       5.549  28.617  51.063  1.00  0.00    -0.273 OA
HETATM   17  H   UNL     1       5.633  25.684  49.820  1.00  0.00     0.169 HD
BRANCH  15  18
HETATM   18  C   UNL     1       4.743  27.821  48.961  1.00  0.00     0.098 C 
HETATM   19  C   UNL     1       4.548  26.475  48.282  1.00  0.00     0.014 C 
ENDBRANCH  15  18
ENDBRANCH   9  14
ENDBRANCH   1   7
BRANCH   3  20
HETATM   20  C   UNL     1       7.076  27.486  56.327  1.00  0.00     0.167 C 
BRANCH  20  21
HETATM   21  C   UNL     1       6.544  28.842  56.659  1.00  0.00     0.009 A 
HETATM   22  C   UNL     1       5.495  29.542  55.998  1.00  0.00     0.060 A 
HETATM   23  C   UNL     1       4.677  29.088  54.847  1.00  0.00     0.073 C 
HETATM   24  N   UNL     1       5.303  30.760  56.518  1.00  0.00    -0.179 NA
HETATM   25  N   UNL     1       6.220  30.851  57.490  1.00  0.00    -0.282 N 
HETATM   26  H   UNL     1       6.268  31.713  58.023  1.00  0.00     0.189 HD
HETATM   27  C   UNL     1       7.005  29.740  57.610  1.00  0.00     0.034 A 
HETATM   28  C   UNL     1       8.109  29.662  58.597  1.00  0.00     0.070 C 
ENDBRANCH  20  21
ENDBRANCH   3  20
TORSDOF 5
ENDMDL
MODEL 9
REMARK VINA RESULT:      -7.6      2.776      6.144
REMARK  5 active torsions:
REMARK  status: ('A' for Active; 'I' for Inactive)
REMARK    1  A    between atoms: C_2  and  C_3 
REMARK       I    between atoms: C_3  and  N_4 
REMARK    2  A    between atoms: N_4  and  C_5 
REMARK    3  A    between atoms: C_7  and  N_8 
REMARK       I    between atoms: N_8  and  C_9 
REMARK       I    between atoms: C_9  and  N_10 
REMARK    4  A    between atoms: N_10  and  C_11 
REMARK    5  A    between atoms: C_11  and  C_12 
ROOT
HETATM    1  N   UNL     1       5.775  27.194  52.657  1.00  0.00    -0.306 N 
HETATM    2  C   UNL     1       6.090  25.979  52.180  1.00  0.00     0.321 C 
HETATM    3  N   UNL     1       6.345  24.896  52.922  1.00  0.00    -0.338 N 
HETATM    4  O   UNL     1       6.080  25.829  50.954  1.00  0.00    -0.247 OA
HETATM    5  H   UNL     1       5.362  27.748  51.910  1.00  0.00     0.171 HD
HETATM    6  H   UNL     1       6.516  24.102  52.321  1.00  0.00     0.164 HD
ENDROOT
BRANCH   1   7
HETATM    7  C   UNL     1       5.957  27.910  53.851  1.00  0.00     0.077 C 
HETATM    8  C   UNL     1       7.180  28.363  54.345  1.00  0.00     0.062 C 
HETATM    9  C   UNL     1       7.261  28.993  55.595  1.00  0.00     0.037 C 
HETATM   10  C   UNL     1       6.083  29.294  56.291  1.00  0.00     0.032 C 
HETATM   11  C   UNL     1       4.845  28.937  55.763  1.00  0.00     0.047 C 
HETATM   12  C   UNL     1       4.796  28.242  54.561  1.00  0.00     0.143 C 
HETATM   13  F   UNL     1       3.596  27.879  54.079  1.00  0.00    -0.204 F 
BRANCH   9  14
HETATM   14  N   UNL     1       8.476  29.303  56.245  1.00  0.00    -0.327 N 
HETATM   15  C   UNL     1       8.739  29.245  57.602  1.00  0.00     0.221 C 
HETATM   16  O   UNL     1       8.031  28.739  58.465  1.00  0.00    -0.273 OA
HETATM   17  H   UNL     1       9.198  29.712  55.665  1.00  0.00     0.169 HD
BRANCH  15  18
HETATM   18  C   UNL     1      10.032  29.945  57.977  1.00  0.00     0.098 C 
HETATM   19  C   UNL     1      11.122  29.660  56.956  1.00  0.00     0.014 C 
ENDBRANCH  15  18
ENDBRANCH   9  14
ENDBRANCH   1   7
BRANCH   3  20
HETATM   20  C   UNL     1       6.036  24.567  54.296  1.00  0.00     0.167 C 
BRANCH  20  21
HETATM   21  C   UNL     1       7.227  23.948  54.951  1.00  0.00     0.009 A 
HETATM   22  C   UNL     1       7.912  24.411  56.110  1.00  0.00     0.060 A 
HETATM   23  C   UNL     1       7.597  25.597  56.944  1.00  0.00     0.073 C 
HETATM   24  N   UNL     1       8.973  23.650  56.401  1.00  0.00    -0.179 NA
HETATM   25  N   UNL     1       8.981  22.717  55.440  1.00  0.00    -0.282 N 
HETATM   26  H   UNL     1       9.721  22.023  55.454  1.00  0.00     0.189 HD
HETATM   27  C   UNL     1       7.970  22.855  54.532  1.00  0.00     0.034 A 
HETATM   28  C   UNL     1       7.833  21.949  53.366  1.00  0.00     0.070 C 
ENDBRANCH  20  21
ENDBRANCH   3  20
TORSDOF 5
ENDMDL
MODEL 10
REMARK VINA RESULT:      -7.6      2.829      4.163
REMARK  5 active torsions:
REMARK  status: ('A' for Active; 'I' for Inactive)
REMARK    1  A    between atoms: C_2  and  C_3 
REMARK       I    between atoms: C_3  and  N_4 
REMARK    2  A    between atoms: N_4  and  C_5 
REMARK    3  A    between atoms: C_7  and  N_8 
REMARK       I    between atoms: N_8  and  C_9 
REMARK       I    between atoms: C_9  and  N_10 
REMARK    4  A    between atoms: N_10  and  C_11 
REMARK    5  A    between atoms: C_11  and  C_12 
ROOT
HETATM    1  N   UNL     1       7.954  27.280  57.267  1.00  0.00    -0.306 N 
HETATM    2  C   UNL     1       7.472  28.397  57.836  1.00  0.00     0.321 C 
HETATM    3  N   UNL     1       6.260  28.917  57.618  1.00  0.00    -0.338 N 
HETATM    4  O   UNL     1       8.180  28.956  58.680  1.00  0.00    -0.247 OA
HETATM    5  H   UNL     1       8.758  26.956  57.800  1.00  0.00     0.171 HD
HETATM    6  H   UNL     1       6.130  29.736  58.197  1.00  0.00     0.164 HD
ENDROOT
BRANCH   1   7
HETATM    7  C   UNL     1       7.709  26.528  56.107  1.00  0.00     0.077 C 
HETATM    8  C   UNL     1       7.425  25.163  56.071  1.00  0.00     0.062 C 
HETATM    9  C   UNL     1       7.285  24.490  54.849  1.00  0.00     0.037 C 
HETATM   10  C   UNL     1       7.291  25.224  53.656  1.00  0.00     0.032 C 
HETATM   11  C   UNL     1       7.473  26.605  53.681  1.00  0.00     0.047 C 
HETATM   12  C   UNL     1       7.691  27.237  54.898  1.00  0.00     0.143 C 
HETATM   13  F   UNL     1       7.895  28.565  54.904  1.00  0.00    -0.204 F 
BRANCH   9  14
HETATM   14  N   UNL     1       7.191  23.087  54.728  1.00  0.00    -0.327 N 
HETATM   15  C   UNL     1       8.233  22.177  54.680  1.00  0.00     0.221 C 
HETATM   16  O   UNL     1       9.414  22.403  54.921  1.00  0.00    -0.273 OA
HETATM   17  H   UNL     1       6.265  22.717  54.550  1.00  0.00     0.169 HD
BRANCH  15  18
HETATM   18  C   UNL     1       7.786  20.800  54.228  1.00  0.00     0.098 C 
HETATM   19  C   UNL     1       8.351  20.465  52.857  1.00  0.00     0.014 C 
ENDBRANCH  15  18
ENDBRANCH   9  14
ENDBRANCH   1   7
BRANCH   3  20
HETATM   20  C   UNL     1       5.043  28.350  57.080  1.00  0.00     0.167 C 
BRANCH  20  21
HETATM   21  C   UNL     1       4.221  29.422  56.442  1.00  0.00     0.009 A 
HETATM   22  C   UNL     1       3.980  29.612  55.052  1.00  0.00     0.060 A 
HETATM   23  C   UNL     1       4.470  28.788  53.919  1.00  0.00     0.073 C 
HETATM   24  N   UNL     1       3.240  30.702  54.818  1.00  0.00    -0.179 NA
HETATM   25  N   UNL     1       3.016  31.214  56.035  1.00  0.00    -0.282 N 
HETATM   26  H   UNL     1       2.473  32.069  56.101  1.00  0.00     0.189 HD
HETATM   27  C   UNL     1       3.594  30.501  57.046  1.00  0.00     0.034 A 
HETATM   28  C   UNL     1       3.501  30.931  58.462  1.00  0.00     0.070 C 
ENDBRANCH  20  21
ENDBRANCH   3  20
TORSDOF 5
ENDMDL
