MODEL 1
REMARK VINA RESULT:      -9.6      0.000      0.000
REMARK  8 active torsions:
REMARK  status: ('A' for Active; 'I' for Inactive)
REMARK    1  A    between atoms: O_2  and  C_3 
REMARK    2  A    between atoms: C_6  and  C_7 
REMARK    3  A    between atoms: C_7  and  N_8 
REMARK    4  A    between atoms: C_7  and  C_27 
REMARK    5  A    between atoms: N_8  and  C_11 
REMARK    6  A    between atoms: C_11  and  C_12 
REMARK       I    between atoms: C_12  and  N_13 
REMARK    7  A    between atoms: N_13  and  C_14 
REMARK    8  A    between atoms: C_17  and  N_18 
ROOT
HETATM    1  N   UNL     1       4.134  27.052  53.088  1.00  0.00    -0.055 N 
HETATM    2  H   UNL     1       3.363  26.827  52.437  1.00  0.00     0.278 HD
HETATM    3  H   UNL     1       4.067  26.317  53.799  1.00  0.00     0.278 HD
ENDROOT
BRANCH   1   4
HETATM    4  C   UNL     1       5.424  26.918  52.346  1.00  0.00     0.252 C 
BRANCH   4   5
HETATM    5  C   UNL     1       6.226  25.675  52.709  1.00  0.00    -0.023 A 
HETATM    6  C   UNL     1       7.360  25.256  51.989  1.00  0.00     0.012 A 
HETATM    7  C   UNL     1       8.069  24.105  52.361  1.00  0.00     0.037 A 
HETATM    8  C   UNL     1       7.666  23.360  53.466  1.00  0.00     0.068 A 
HETATM    9  C   UNL     1       6.549  23.772  54.191  1.00  0.00     0.037 A 
HETATM   10  C   UNL     1       5.839  24.918  53.826  1.00  0.00     0.012 A 
BRANCH   8  11
HETATM   11  O   UNL     1       8.265  22.226  53.933  1.00  0.00    -0.356 OA
HETATM   12  C   UNL     1       8.213  21.071  53.104  1.00  0.00     0.210 C 
ENDBRANCH   8  11
ENDBRANCH   4   5
BRANCH   4  13
HETATM   13  C   UNL     1       5.152  27.081  50.860  1.00  0.00    -0.023 A 
HETATM   14  C   UNL     1       5.418  28.314  50.238  1.00  0.00     0.009 A 
HETATM   15  C   UNL     1       5.113  28.516  48.891  1.00  0.00     0.001 A 
HETATM   16  C   UNL     1       4.535  27.494  48.144  1.00  0.00     0.000 A 
HETATM   17  C   UNL     1       4.261  26.268  48.742  1.00  0.00     0.001 A 
HETATM   18  C   UNL     1       4.561  26.062  50.090  1.00  0.00     0.009 A 
ENDBRANCH   4  13
ENDBRANCH   1   4
BRANCH   1  19
HETATM   19  C   UNL     1       3.813  28.401  53.671  1.00  0.00     0.336 C 
BRANCH  19  20
HETATM   20  C   UNL     1       4.581  28.558  54.981  1.00  0.00     0.248 C 
HETATM   21  N   UNL     1       5.280  29.741  55.098  1.00  0.00    -0.326 N 
HETATM   22  H   UNL     1       5.287  30.390  54.319  1.00  0.00     0.169 HD
HETATM   23  O   UNL     1       4.610  27.593  55.742  1.00  0.00    -0.271 OA
BRANCH  21  24
HETATM   24  C   UNL     1       6.066  30.146  56.198  1.00  0.00     0.034 A 
HETATM   25  C   UNL     1       7.268  29.546  56.562  1.00  0.00     0.032 A 
HETATM   26  C   UNL     1       7.960  29.977  57.705  1.00  0.00     0.032 A 
HETATM   27  C   UNL     1       7.482  31.023  58.502  1.00  0.00     0.037 A 
HETATM   28  C   UNL     1       6.289  31.640  58.105  1.00  0.00     0.032 A 
HETATM   29  C   UNL     1       5.582  31.199  56.979  1.00  0.00     0.032 A 
BRANCH  27  30
HETATM   30  N   UNL     1       8.160  31.444  59.676  1.00  0.00    -0.318 N 
HETATM   31  C   UNL     1       9.446  32.009  59.732  1.00  0.00     0.224 C 
HETATM   32  O   UNL     1      10.201  32.301  58.818  1.00  0.00    -0.273 OA
HETATM   33  C   UNL     1       9.832  32.132  61.188  1.00  0.00     0.105 C 
HETATM   34  C   UNL     1       8.498  32.064  61.905  1.00  0.00     0.029 C 
HETATM   35  C   UNL     1       7.667  31.171  61.007  1.00  0.00     0.133 C 
ENDBRANCH  27  30
ENDBRANCH  21  24
ENDBRANCH  19  20
ENDBRANCH   1  19
TORSDOF 8
ENDMDL
MODEL 2
REMARK VINA RESULT:      -9.2      3.316      6.420
REMARK  8 active torsions:
REMARK  status: ('A' for Active; 'I' for Inactive)
REMARK    1  A    between atoms: O_2  and  C_3 
REMARK    2  A    between atoms: C_6  and  C_7 
REMARK    3  A    between atoms: C_7  and  N_8 
REMARK    4  A    between atoms: C_7  and  C_27 
REMARK    5  A    between atoms: N_8  and  C_11 
REMARK    6  A    between atoms: C_11  and  C_12 
REMARK       I    between atoms: C_12  and  N_13 
REMARK    7  A    between atoms: N_13  and  C_14 
REMARK    8  A    between atoms: C_17  and  N_18 
ROOT
HETATM    1  N   UNL     1       7.994  24.568  56.010  1.00  0.00    -0.055 N 
HETATM    2  H   UNL     1       8.760  23.942  56.316  1.00  0.00     0.278 HD
HETATM    3  H   UNL     1       8.476  25.273  55.443  1.00  0.00     0.278 HD
ENDROOT
BRANCH   1   4
HETATM    4  C   UNL     1       7.064  23.778  55.149  1.00  0.00     0.252 C 
BRANCH   4   5
HETATM    5  C   UNL     1       6.650  24.486  53.865  1.00  0.00    -0.023 A 
HETATM    6  C   UNL     1       7.578  24.981  52.928  1.00  0.00     0.012 A 
HETATM    7  C   UNL     1       7.150  25.624  51.759  1.00  0.00     0.037 A 
HETATM    8  C   UNL     1       5.792  25.773  51.496  1.00  0.00     0.068 A 
HETATM    9  C   UNL     1       4.865  25.278  52.413  1.00  0.00     0.037 A 
HETATM   10  C   UNL     1       5.285  24.635  53.580  1.00  0.00     0.012 A 
BRANCH   8  11
HETATM   11  O   UNL     1       5.245  26.376  50.400  1.00  0.00    -0.356 OA
HETATM   12  C   UNL     1       5.279  27.797  50.352  1.00  0.00     0.210 C 
ENDBRANCH   8  11
ENDBRANCH   4   5
BRANCH   4  13
HETATM   13  C   UNL     1       7.647  22.390  54.943  1.00  0.00    -0.023 A 
HETATM   14  C   UNL     1       8.173  21.690  56.045  1.00  0.00     0.009 A 
HETATM   15  C   UNL     1       8.779  20.444  55.876  1.00  0.00     0.001 A 
HETATM   16  C   UNL     1       8.873  19.877  54.609  1.00  0.00     0.000 A 
HETATM   17  C   UNL     1       8.362  20.555  53.506  1.00  0.00     0.001 A 
HETATM   18  C   UNL     1       7.758  21.804  53.669  1.00  0.00     0.009 A 
ENDBRANCH   4  13
ENDBRANCH   1   4
BRANCH   1  19
HETATM   19  C   UNL     1       7.424  25.176  57.261  1.00  0.00     0.336 C 
BRANCH  19  20
HETATM   20  C   UNL     1       6.372  26.209  56.862  1.00  0.00     0.248 C 
HETATM   21  N   UNL     1       6.880  27.343  56.263  1.00  0.00    -0.326 N 
HETATM   22  H   UNL     1       7.885  27.447  56.173  1.00  0.00     0.169 HD
HETATM   23  O   UNL     1       5.212  26.002  57.210  1.00  0.00    -0.271 OA
BRANCH  21  24
HETATM   24  C   UNL     1       6.138  28.448  55.794  1.00  0.00     0.034 A 
HETATM   25  C   UNL     1       6.087  29.682  56.434  1.00  0.00     0.032 A 
HETATM   26  C   UNL     1       5.279  30.713  55.926  1.00  0.00     0.032 A 
HETATM   27  C   UNL     1       4.517  30.544  54.766  1.00  0.00     0.037 A 
HETATM   28  C   UNL     1       4.604  29.308  54.113  1.00  0.00     0.032 A 
HETATM   29  C   UNL     1       5.390  28.268  54.627  1.00  0.00     0.032 A 
BRANCH  27  30
HETATM   30  N   UNL     1       3.673  31.571  54.263  1.00  0.00    -0.318 N 
HETATM   31  C   UNL     1       2.463  32.001  54.834  1.00  0.00     0.224 C 
HETATM   32  O   UNL     1       1.928  31.641  55.871  1.00  0.00    -0.273 OA
HETATM   33  C   UNL     1       1.822  32.975  53.873  1.00  0.00     0.105 C 
HETATM   34  C   UNL     1       2.981  33.412  53.001  1.00  0.00     0.029 C 
HETATM   35  C   UNL     1       3.875  32.190  52.973  1.00  0.00     0.133 C 
ENDBRANCH  27  30
ENDBRANCH  21  24
ENDBRANCH  19  20
ENDBRANCH   1  19
TORSDOF 8
ENDMDL
MODEL 3
REMARK VINA RESULT:      -9.2      3.565     11.184
REMARK  8 active torsions:
REMARK  status: ('A' for Active; 'I' for Inactive)
REMARK    1  A    between atoms: O_2  and  C_3 
REMARK    2  A    between atoms: C_6  and  C_7 
REMARK    3  A    between atoms: C_7  and  N_8 
REMARK    4  A    between atoms: C_7  and  C_27 
REMARK    5  A    between atoms: N_8  and  C_11 
REMARK    6  A    between atoms: C_11  and  C_12 
REMARK       I    between atoms: C_12  and  N_13 
REMARK    7  A    between atoms: N_13  and  C_14 
REMARK    8  A    between atoms: C_17  and  N_18 
ROOT
HETATM    1  N   UNL     1       4.726  31.829  60.581  1.00  0.00    -0.055 N 
HETATM    2  H   UNL     1       5.235  30.932  60.490  1.00  0.00     0.278 HD
HETATM    3  H   UNL     1       4.100  31.667  61.376  1.00  0.00     0.278 HD
ENDROOT
BRANCH   1   4
HETATM    4  C   UNL     1       5.715  32.893  60.927  1.00  0.00     0.252 C 
BRANCH   4   5
HETATM    5  C   UNL     1       5.286  33.792  62.079  1.00  0.00    -0.023 A 
HETATM    6  C   UNL     1       5.923  35.011  62.380  1.00  0.00     0.012 A 
HETATM    7  C   UNL     1       5.492  35.807  63.449  1.00  0.00     0.037 A 
HETATM    8  C   UNL     1       4.410  35.409  64.229  1.00  0.00     0.068 A 
HETATM    9  C   UNL     1       3.766  34.208  63.934  1.00  0.00     0.037 A 
HETATM   10  C   UNL     1       4.191  33.410  62.869  1.00  0.00     0.012 A 
BRANCH   8  11
HETATM   11  O   UNL     1       3.891  36.089  65.294  1.00  0.00    -0.356 OA
HETATM   12  C   UNL     1       3.312  35.319  66.340  1.00  0.00     0.210 C 
ENDBRANCH   8  11
ENDBRANCH   4   5
BRANCH   4  13
HETATM   13  C   UNL     1       7.082  32.252  61.103  1.00  0.00    -0.023 A 
HETATM   14  C   UNL     1       7.324  31.436  62.224  1.00  0.00     0.009 A 
HETATM   15  C   UNL     1       8.589  30.891  62.450  1.00  0.00     0.001 A 
HETATM   16  C   UNL     1       9.632  31.153  61.567  1.00  0.00     0.000 A 
HETATM   17  C   UNL     1       9.413  31.960  60.455  1.00  0.00     0.001 A 
HETATM   18  C   UNL     1       8.150  32.510  60.226  1.00  0.00     0.009 A 
ENDBRANCH   4  13
ENDBRANCH   1   4
BRANCH   1  19
HETATM   19  C   UNL     1       3.948  32.000  59.305  1.00  0.00     0.336 C 
BRANCH  19  20
HETATM   20  C   UNL     1       4.700  31.292  58.181  1.00  0.00     0.248 C 
HETATM   21  N   UNL     1       4.475  29.933  58.107  1.00  0.00    -0.326 N 
HETATM   22  H   UNL     1       3.889  29.490  58.805  1.00  0.00     0.169 HD
HETATM   23  O   UNL     1       5.512  31.952  57.537  1.00  0.00    -0.271 OA
BRANCH  21  24
HETATM   24  C   UNL     1       5.034  29.040  57.167  1.00  0.00     0.034 A 
HETATM   25  C   UNL     1       4.376  28.598  56.024  1.00  0.00     0.032 A 
HETATM   26  C   UNL     1       4.985  27.665  55.169  1.00  0.00     0.032 A 
HETATM   27  C   UNL     1       6.266  27.164  55.423  1.00  0.00     0.037 A 
HETATM   28  C   UNL     1       6.930  27.643  56.560  1.00  0.00     0.032 A 
HETATM   29  C   UNL     1       6.318  28.555  57.429  1.00  0.00     0.032 A 
BRANCH  27  30
HETATM   30  N   UNL     1       6.877  26.197  54.581  1.00  0.00    -0.318 N 
HETATM   31  C   UNL     1       7.025  24.828  54.863  1.00  0.00     0.224 C 
HETATM   32  O   UNL     1       6.626  24.191  55.825  1.00  0.00    -0.273 OA
HETATM   33  C   UNL     1       7.887  24.225  53.778  1.00  0.00     0.105 C 
HETATM   34  C   UNL     1       7.776  25.232  52.651  1.00  0.00     0.029 C 
HETATM   35  C   UNL     1       7.597  26.549  53.378  1.00  0.00     0.133 C 
ENDBRANCH  27  30
ENDBRANCH  21  24
ENDBRANCH  19  20
ENDBRANCH   1  19
TORSDOF 8
ENDMDL
MODEL 4
REMARK VINA RESULT:      -9.1      3.242      6.094
REMARK  8 active torsions:
REMARK  status: ('A' for Active; 'I' for Inactive)
REMARK    1  A    between atoms: O_2  and  C_3 
REMARK    2  A    between atoms: C_6  and  C_7 
REMARK    3  A    between atoms: C_7  and  N_8 
REMARK    4  A    between atoms: C_7  and  C_27 
REMARK    5  A    between atoms: N_8  and  C_11 
REMARK    6  A    between atoms: C_11  and  C_12 
REMARK       I    between atoms: C_12  and  N_13 
REMARK    7  A    between atoms: N_13  and  C_14 
REMARK    8  A    between atoms: C_17  and  N_18 
ROOT
HETATM    1  N   UNL     1       8.274  24.576  56.057  1.00  0.00    -0.055 N 
HETATM    2  H   UNL     1       8.985  23.846  56.237  1.00  0.00     0.278 HD
HETATM    3  H   UNL     1       8.777  25.261  55.484  1.00  0.00     0.278 HD
ENDROOT
BRANCH   1   4
HETATM    4  C   UNL     1       7.171  23.964  55.258  1.00  0.00     0.252 C 
BRANCH   4   5
HETATM    5  C   UNL     1       6.640  24.856  54.143  1.00  0.00    -0.023 A 
HETATM    6  C   UNL     1       5.325  24.765  53.646  1.00  0.00     0.012 A 
HETATM    7  C   UNL     1       4.881  25.609  52.620  1.00  0.00     0.037 A 
HETATM    8  C   UNL     1       5.734  26.566  52.079  1.00  0.00     0.068 A 
HETATM    9  C   UNL     1       7.035  26.670  52.569  1.00  0.00     0.037 A 
HETATM   10  C   UNL     1       7.484  25.833  53.593  1.00  0.00     0.012 A 
BRANCH   8  11
HETATM   11  O   UNL     1       5.427  27.446  51.081  1.00  0.00    -0.356 OA
HETATM   12  C   UNL     1       5.511  28.833  51.385  1.00  0.00     0.210 C 
ENDBRANCH   8  11
ENDBRANCH   4   5
BRANCH   4  13
HETATM   13  C   UNL     1       7.604  22.579  54.804  1.00  0.00    -0.023 A 
HETATM   14  C   UNL     1       7.843  21.580  55.766  1.00  0.00     0.009 A 
HETATM   15  C   UNL     1       8.309  20.320  55.386  1.00  0.00     0.001 A 
HETATM   16  C   UNL     1       8.549  20.039  54.044  1.00  0.00     0.000 A 
HETATM   17  C   UNL     1       8.323  21.015  53.079  1.00  0.00     0.001 A 
HETATM   18  C   UNL     1       7.859  22.278  53.454  1.00  0.00     0.009 A 
ENDBRANCH   4  13
ENDBRANCH   1   4
BRANCH   1  19
HETATM   19  C   UNL     1       7.914  25.151  57.399  1.00  0.00     0.336 C 
BRANCH  19  20
HETATM   20  C   UNL     1       7.671  26.650  57.234  1.00  0.00     0.248 C 
HETATM   21  N   UNL     1       6.404  26.982  56.804  1.00  0.00    -0.326 N 
HETATM   22  H   UNL     1       5.747  26.242  56.581  1.00  0.00     0.169 HD
HETATM   23  O   UNL     1       8.634  27.400  57.375  1.00  0.00    -0.271 OA
BRANCH  21  24
HETATM   24  C   UNL     1       5.910  28.284  56.574  1.00  0.00     0.034 A 
HETATM   25  C   UNL     1       5.890  29.291  57.534  1.00  0.00     0.032 A 
HETATM   26  C   UNL     1       5.330  30.545  57.237  1.00  0.00     0.032 A 
HETATM   27  C   UNL     1       4.791  30.828  55.977  1.00  0.00     0.037 A 
HETATM   28  C   UNL     1       4.847  29.815  55.011  1.00  0.00     0.032 A 
HETATM   29  C   UNL     1       5.384  28.556  55.309  1.00  0.00     0.032 A 
BRANCH  27  30
HETATM   30  N   UNL     1       4.195  32.082  55.679  1.00  0.00    -0.318 N 
HETATM   31  C   UNL     1       2.817  32.351  55.623  1.00  0.00     0.224 C 
HETATM   32  O   UNL     1       1.876  31.611  55.865  1.00  0.00    -0.273 OA
HETATM   33  C   UNL     1       2.643  33.756  55.095  1.00  0.00     0.105 C 
HETATM   34  C   UNL     1       3.998  34.387  55.342  1.00  0.00     0.029 C 
HETATM   35  C   UNL     1       4.954  33.219  55.210  1.00  0.00     0.133 C 
ENDBRANCH  27  30
ENDBRANCH  21  24
ENDBRANCH  19  20
ENDBRANCH   1  19
TORSDOF 8
ENDMDL
MODEL 5
REMARK VINA RESULT:      -9.1      3.137      5.277
REMARK  8 active torsions:
REMARK  status: ('A' for Active; 'I' for Inactive)
REMARK    1  A    between atoms: O_2  and  C_3 
REMARK    2  A    between atoms: C_6  and  C_7 
REMARK    3  A    between atoms: C_7  and  N_8 
REMARK    4  A    between atoms: C_7  and  C_27 
REMARK    5  A    between atoms: N_8  and  C_11 
REMARK    6  A    between atoms: C_11  and  C_12 
REMARK       I    between atoms: C_12  and  N_13 
REMARK    7  A    between atoms: N_13  and  C_14 
REMARK    8  A    between atoms: C_17  and  N_18 
ROOT
HETATM    1  N   UNL     1       8.425  28.579  57.034  1.00  0.00    -0.055 N 
HETATM    2  H   UNL     1       7.782  28.906  57.776  1.00  0.00     0.278 HD
HETATM    3  H   UNL     1       8.744  27.668  57.381  1.00  0.00     0.278 HD
ENDROOT
BRANCH   1   4
HETATM    4  C   UNL     1       7.634  28.392  55.781  1.00  0.00     0.252 C 
BRANCH   4   5
HETATM    5  C   UNL     1       7.616  26.960  55.263  1.00  0.00    -0.023 A 
HETATM    6  C   UNL     1       7.588  26.640  53.892  1.00  0.00     0.012 A 
HETATM    7  C   UNL     1       7.575  25.307  53.461  1.00  0.00     0.037 A 
HETATM    8  C   UNL     1       7.601  24.269  54.388  1.00  0.00     0.068 A 
HETATM    9  C   UNL     1       7.637  24.575  55.748  1.00  0.00     0.037 A 
HETATM   10  C   UNL     1       7.651  25.903  56.184  1.00  0.00     0.012 A 
BRANCH   8  11
HETATM   11  O   UNL     1       7.592  22.934  54.103  1.00  0.00    -0.356 OA
HETATM   12  C   UNL     1       7.688  22.032  55.199  1.00  0.00     0.210 C 
ENDBRANCH   8  11
ENDBRANCH   4   5
BRANCH   4  13
HETATM   13  C   UNL     1       6.258  29.010  55.975  1.00  0.00    -0.023 A 
HETATM   14  C   UNL     1       5.848  29.393  57.264  1.00  0.00     0.009 A 
HETATM   15  C   UNL     1       4.565  29.898  57.485  1.00  0.00     0.001 A 
HETATM   16  C   UNL     1       3.671  30.024  56.425  1.00  0.00     0.000 A 
HETATM   17  C   UNL     1       4.058  29.646  55.143  1.00  0.00     0.001 A 
HETATM   18  C   UNL     1       5.339  29.138  54.918  1.00  0.00     0.009 A 
ENDBRANCH   4  13
ENDBRANCH   1   4
BRANCH   1  19
HETATM   19  C   UNL     1       9.556  29.569  56.992  1.00  0.00     0.336 C 
BRANCH  19  20
HETATM   20  C   UNL     1       9.432  30.497  58.199  1.00  0.00     0.248 C 
HETATM   21  N   UNL     1       8.438  30.150  59.090  1.00  0.00    -0.326 N 
HETATM   22  H   UNL     1       7.837  29.361  58.877  1.00  0.00     0.169 HD
HETATM   23  O   UNL     1      10.124  31.513  58.208  1.00  0.00    -0.271 OA
BRANCH  21  24
HETATM   24  C   UNL     1       8.109  30.825  60.285  1.00  0.00     0.034 A 
HETATM   25  C   UNL     1       8.767  30.633  61.496  1.00  0.00     0.032 A 
HETATM   26  C   UNL     1       8.339  31.307  62.651  1.00  0.00     0.032 A 
HETATM   27  C   UNL     1       7.259  32.196  62.625  1.00  0.00     0.037 A 
HETATM   28  C   UNL     1       6.627  32.405  61.392  1.00  0.00     0.032 A 
HETATM   29  C   UNL     1       7.035  31.718  60.242  1.00  0.00     0.032 A 
BRANCH  27  30
HETATM   30  N   UNL     1       6.801  32.858  63.795  1.00  0.00    -0.318 N 
HETATM   31  C   UNL     1       5.463  32.970  64.213  1.00  0.00     0.224 C 
HETATM   32  O   UNL     1       4.456  32.494  63.713  1.00  0.00    -0.273 OA
HETATM   33  C   UNL     1       5.429  33.904  65.400  1.00  0.00     0.105 C 
HETATM   34  C   UNL     1       6.862  33.888  65.893  1.00  0.00     0.029 C 
HETATM   35  C   UNL     1       7.662  33.669  64.626  1.00  0.00     0.133 C 
ENDBRANCH  27  30
ENDBRANCH  21  24
ENDBRANCH  19  20
ENDBRANCH   1  19
TORSDOF 8
ENDMDL
MODEL 6
REMARK VINA RESULT:      -9.1      3.061      4.794
REMARK  8 active torsions:
REMARK  status: ('A' for Active; 'I' for Inactive)
REMARK    1  A    between atoms: O_2  and  C_3 
REMARK    2  A    between atoms: C_6  and  C_7 
REMARK    3  A    between atoms: C_7  and  N_8 
REMARK    4  A    between atoms: C_7  and  C_27 
REMARK    5  A    between atoms: N_8  and  C_11 
REMARK    6  A    between atoms: C_11  and  C_12 
REMARK       I    between atoms: C_12  and  N_13 
REMARK    7  A    between atoms: N_13  and  C_14 
REMARK    8  A    between atoms: C_17  and  N_18 
ROOT
HETATM    1  N   UNL     1       8.301  27.445  57.022  1.00  0.00    -0.055 N 
HETATM    2  H   UNL     1       7.537  27.352  57.714  1.00  0.00     0.278 HD
HETATM    3  H   UNL     1       9.048  26.861  57.414  1.00  0.00     0.278 HD
ENDROOT
BRANCH   1   4
HETATM    4  C   UNL     1       7.832  26.862  55.730  1.00  0.00     0.252 C 
BRANCH   4   5
HETATM    5  C   UNL     1       7.828  25.339  55.697  1.00  0.00    -0.023 A 
HETATM    6  C   UNL     1       8.319  24.547  56.752  1.00  0.00     0.012 A 
HETATM    7  C   UNL     1       8.293  23.148  56.678  1.00  0.00     0.037 A 
HETATM    8  C   UNL     1       7.766  22.514  55.557  1.00  0.00     0.068 A 
HETATM    9  C   UNL     1       7.270  23.289  54.509  1.00  0.00     0.037 A 
HETATM   10  C   UNL     1       7.292  24.685  54.577  1.00  0.00     0.012 A 
BRANCH   8  11
HETATM   11  O   UNL     1       7.682  21.166  55.359  1.00  0.00    -0.356 OA
HETATM   12  C   UNL     1       7.928  20.682  54.045  1.00  0.00     0.210 C 
ENDBRANCH   8  11
ENDBRANCH   4   5
BRANCH   4  13
HETATM   13  C   UNL     1       6.506  27.504  55.357  1.00  0.00    -0.023 A 
HETATM   14  C   UNL     1       6.393  28.202  54.141  1.00  0.00     0.009 A 
HETATM   15  C   UNL     1       5.209  28.861  53.803  1.00  0.00     0.001 A 
HETATM   16  C   UNL     1       4.123  28.838  54.672  1.00  0.00     0.000 A 
HETATM   17  C   UNL     1       4.217  28.156  55.882  1.00  0.00     0.001 A 
HETATM   18  C   UNL     1       5.399  27.498  56.226  1.00  0.00     0.009 A 
ENDBRANCH   4  13
ENDBRANCH   1   4
BRANCH   1  19
HETATM   19  C   UNL     1       8.692  28.897  57.022  1.00  0.00     0.336 C 
BRANCH  19  20
HETATM   20  C   UNL     1       7.970  29.593  58.173  1.00  0.00     0.248 C 
HETATM   21  N   UNL     1       8.798  30.055  59.174  1.00  0.00    -0.326 N 
HETATM   22  H   UNL     1       9.793  29.868  59.119  1.00  0.00     0.169 HD
HETATM   23  O   UNL     1       6.741  29.573  58.167  1.00  0.00    -0.271 OA
BRANCH  21  24
HETATM   24  C   UNL     1       8.400  30.736  60.345  1.00  0.00     0.034 A 
HETATM   25  C   UNL     1       8.907  30.469  61.613  1.00  0.00     0.032 A 
HETATM   26  C   UNL     1       8.416  31.158  62.734  1.00  0.00     0.032 A 
HETATM   27  C   UNL     1       7.421  32.135  62.617  1.00  0.00     0.037 A 
HETATM   28  C   UNL     1       6.944  32.417  61.331  1.00  0.00     0.032 A 
HETATM   29  C   UNL     1       7.414  31.717  60.212  1.00  0.00     0.032 A 
BRANCH  27  30
HETATM   30  N   UNL     1       6.897  32.814  63.750  1.00  0.00    -0.318 N 
HETATM   31  C   UNL     1       5.557  32.805  64.172  1.00  0.00     0.224 C 
HETATM   32  O   UNL     1       4.606  32.192  63.712  1.00  0.00    -0.273 OA
HETATM   33  C   UNL     1       5.424  33.801  65.301  1.00  0.00     0.105 C 
HETATM   34  C   UNL     1       6.851  33.972  65.779  1.00  0.00     0.029 C 
HETATM   35  C   UNL     1       7.667  33.764  64.520  1.00  0.00     0.133 C 
ENDBRANCH  27  30
ENDBRANCH  21  24
ENDBRANCH  19  20
ENDBRANCH   1  19
TORSDOF 8
ENDMDL
MODEL 7
REMARK VINA RESULT:      -9.0      2.249      3.592
REMARK  8 active torsions:
REMARK  status: ('A' for Active; 'I' for Inactive)
REMARK    1  A    between atoms: O_2  and  C_3 
REMARK    2  A    between atoms: C_6  and  C_7 
REMARK    3  A    between atoms: C_7  and  N_8 
REMARK    4  A    between atoms: C_7  and  C_27 
REMARK    5  A    between atoms: N_8  and  C_11 
REMARK    6  A    between atoms: C_11  and  C_12 
REMARK       I    between atoms: C_12  and  N_13 
REMARK    7  A    between atoms: N_13  and  C_14 
REMARK    8  A    between atoms: C_17  and  N_18 
ROOT
HETATM    1  N   UNL     1       7.265  27.322  55.808  1.00  0.00    -0.055 N 
HETATM    2  H   UNL     1       6.316  27.687  56.003  1.00  0.00     0.278 HD
HETATM    3  H   UNL     1       7.384  26.585  56.511  1.00  0.00     0.278 HD
ENDROOT
BRANCH   1   4
HETATM    4  C   UNL     1       7.260  26.719  54.442  1.00  0.00     0.252 C 
BRANCH   4   5
HETATM    5  C   UNL     1       7.399  25.203  54.428  1.00  0.00    -0.023 A 
HETATM    6  C   UNL     1       7.198  24.403  55.570  1.00  0.00     0.012 A 
HETATM    7  C   UNL     1       7.335  23.010  55.509  1.00  0.00     0.037 A 
HETATM    8  C   UNL     1       7.662  22.388  54.307  1.00  0.00     0.068 A 
HETATM    9  C   UNL     1       7.855  23.170  53.169  1.00  0.00     0.037 A 
HETATM   10  C   UNL     1       7.719  24.560  53.223  1.00  0.00     0.012 A 
BRANCH   8  11
HETATM   11  O   UNL     1       7.824  21.046  54.113  1.00  0.00    -0.356 OA
HETATM   12  C   UNL     1       8.364  20.628  52.865  1.00  0.00     0.210 C 
ENDBRANCH   8  11
ENDBRANCH   4   5
BRANCH   4  13
HETATM   13  C   UNL     1       6.058  27.249  53.678  1.00  0.00    -0.023 A 
HETATM   14  C   UNL     1       6.146  27.426  52.285  1.00  0.00     0.009 A 
HETATM   15  C   UNL     1       5.084  27.977  51.566  1.00  0.00     0.001 A 
HETATM   16  C   UNL     1       3.919  28.361  52.224  1.00  0.00     0.000 A 
HETATM   17  C   UNL     1       3.814  28.197  53.601  1.00  0.00     0.001 A 
HETATM   18  C   UNL     1       4.875  27.650  54.325  1.00  0.00     0.009 A 
ENDBRANCH   4  13
ENDBRANCH   1   4
BRANCH   1  19
HETATM   19  C   UNL     1       8.213  28.463  56.055  1.00  0.00     0.336 C 
BRANCH  19  20
HETATM   20  C   UNL     1       8.022  28.949  57.490  1.00  0.00     0.248 C 
HETATM   21  N   UNL     1       8.087  30.318  57.645  1.00  0.00    -0.326 N 
HETATM   22  H   UNL     1       8.300  30.898  56.840  1.00  0.00     0.169 HD
HETATM   23  O   UNL     1       7.954  28.098  58.374  1.00  0.00    -0.271 OA
BRANCH  21  24
HETATM   24  C   UNL     1       7.942  31.034  58.853  1.00  0.00     0.034 A 
HETATM   25  C   UNL     1       8.970  31.239  59.767  1.00  0.00     0.032 A 
HETATM   26  C   UNL     1       8.726  31.917  60.972  1.00  0.00     0.032 A 
HETATM   27  C   UNL     1       7.458  32.418  61.288  1.00  0.00     0.037 A 
HETATM   28  C   UNL     1       6.440  32.233  60.344  1.00  0.00     0.032 A 
HETATM   29  C   UNL     1       6.673  31.537  59.151  1.00  0.00     0.032 A 
BRANCH  27  30
HETATM   30  N   UNL     1       7.195  33.077  62.518  1.00  0.00    -0.318 N 
HETATM   31  C   UNL     1       6.337  34.175  62.702  1.00  0.00     0.224 C 
HETATM   32  O   UNL     1       5.619  34.737  61.890  1.00  0.00    -0.273 OA
HETATM   33  C   UNL     1       6.504  34.657  64.124  1.00  0.00     0.105 C 
HETATM   34  C   UNL     1       7.121  33.462  64.823  1.00  0.00     0.029 C 
HETATM   35  C   UNL     1       7.935  32.803  63.729  1.00  0.00     0.133 C 
ENDBRANCH  27  30
ENDBRANCH  21  24
ENDBRANCH  19  20
ENDBRANCH   1  19
TORSDOF 8
ENDMDL
MODEL 8
REMARK VINA RESULT:      -9.0      3.707      7.017
REMARK  8 active torsions:
REMARK  status: ('A' for Active; 'I' for Inactive)
REMARK    1  A    between atoms: O_2  and  C_3 
REMARK    2  A    between atoms: C_6  and  C_7 
REMARK    3  A    between atoms: C_7  and  N_8 
REMARK    4  A    between atoms: C_7  and  C_27 
REMARK    5  A    between atoms: N_8  and  C_11 
REMARK    6  A    between atoms: C_11  and  C_12 
REMARK       I    between atoms: C_12  and  N_13 
REMARK    7  A    between atoms: N_13  and  C_14 
REMARK    8  A    between atoms: C_17  and  N_18 
ROOT
HETATM    1  N   UNL     1       7.826  29.575  58.989  1.00  0.00    -0.055 N 
HETATM    2  H   UNL     1       7.035  29.832  59.604  1.00  0.00     0.278 HD
HETATM    3  H   UNL     1       8.006  28.595  59.231  1.00  0.00     0.278 HD
ENDROOT
BRANCH   1   4
HETATM    4  C   UNL     1       7.362  29.666  57.572  1.00  0.00     0.252 C 
BRANCH   4   5
HETATM    5  C   UNL     1       7.381  28.340  56.823  1.00  0.00    -0.023 A 
HETATM    6  C   UNL     1       7.374  28.252  55.418  1.00  0.00     0.012 A 
HETATM    7  C   UNL     1       7.394  27.009  54.771  1.00  0.00     0.037 A 
HETATM    8  C   UNL     1       7.435  25.832  55.514  1.00  0.00     0.068 A 
HETATM    9  C   UNL     1       7.451  25.909  56.906  1.00  0.00     0.037 A 
HETATM   10  C   UNL     1       7.432  27.145  57.557  1.00  0.00     0.012 A 
BRANCH   8  11
HETATM   11  O   UNL     1       7.459  24.563  55.011  1.00  0.00    -0.356 OA
HETATM   12  C   UNL     1       7.526  23.492  55.945  1.00  0.00     0.210 C 
ENDBRANCH   8  11
ENDBRANCH   4   5
BRANCH   4  13
HETATM   13  C   UNL     1       6.025  30.388  57.541  1.00  0.00    -0.023 A 
HETATM   14  C   UNL     1       5.979  31.770  57.800  1.00  0.00     0.009 A 
HETATM   15  C   UNL     1       4.759  32.448  57.847  1.00  0.00     0.001 A 
HETATM   16  C   UNL     1       3.567  31.758  57.642  1.00  0.00     0.000 A 
HETATM   17  C   UNL     1       3.592  30.390  57.388  1.00  0.00     0.001 A 
HETATM   18  C   UNL     1       4.809  29.708  57.343  1.00  0.00     0.009 A 
ENDBRANCH   4  13
ENDBRANCH   1   4
BRANCH   1  19
HETATM   19  C   UNL     1       8.976  30.454  59.395  1.00  0.00     0.336 C 
BRANCH  19  20
HETATM   20  C   UNL     1       8.456  31.516  60.362  1.00  0.00     0.248 C 
HETATM   21  N   UNL     1       7.729  31.019  61.423  1.00  0.00    -0.326 N 
HETATM   22  H   UNL     1       7.544  30.023  61.472  1.00  0.00     0.169 HD
HETATM   23  O   UNL     1       8.619  32.694  60.053  1.00  0.00    -0.271 OA
BRANCH  21  24
HETATM   24  C   UNL     1       7.140  31.771  62.462  1.00  0.00     0.034 A 
HETATM   25  C   UNL     1       5.768  31.910  62.643  1.00  0.00     0.032 A 
HETATM   26  C   UNL     1       5.265  32.722  63.672  1.00  0.00     0.032 A 
HETATM   27  C   UNL     1       6.114  33.401  64.552  1.00  0.00     0.037 A 
HETATM   28  C   UNL     1       7.493  33.225  64.379  1.00  0.00     0.032 A 
HETATM   29  C   UNL     1       8.000  32.435  63.340  1.00  0.00     0.032 A 
BRANCH  27  30
HETATM   30  N   UNL     1       5.615  34.249  65.576  1.00  0.00    -0.318 N 
HETATM   31  C   UNL     1       4.715  35.315  65.403  1.00  0.00     0.224 C 
HETATM   32  O   UNL     1       4.147  35.688  64.389  1.00  0.00    -0.273 OA
HETATM   33  C   UNL     1       4.607  36.045  66.722  1.00  0.00     0.105 C 
HETATM   34  C   UNL     1       5.109  35.024  67.723  1.00  0.00     0.029 C 
HETATM   35  C   UNL     1       6.125  34.229  66.929  1.00  0.00     0.133 C 
ENDBRANCH  27  30
ENDBRANCH  21  24
ENDBRANCH  19  20
ENDBRANCH   1  19
TORSDOF 8
ENDMDL
MODEL 9
REMARK VINA RESULT:      -8.9      3.593      9.916
REMARK  8 active torsions:
REMARK  status: ('A' for Active; 'I' for Inactive)
REMARK    1  A    between atoms: O_2  and  C_3 
REMARK    2  A    between atoms: C_6  and  C_7 
REMARK    3  A    between atoms: C_7  and  N_8 
REMARK    4  A    between atoms: C_7  and  C_27 
REMARK    5  A    between atoms: N_8  and  C_11 
REMARK    6  A    between atoms: C_11  and  C_12 
REMARK       I    between atoms: C_12  and  N_13 
REMARK    7  A    between atoms: N_13  and  C_14 
REMARK    8  A    between atoms: C_17  and  N_18 
ROOT
HETATM    1  N   UNL     1       6.691  24.619  53.037  1.00  0.00    -0.055 N 
HETATM    2  H   UNL     1       6.317  23.688  52.785  1.00  0.00     0.278 HD
HETATM    3  H   UNL     1       5.917  25.055  53.548  1.00  0.00     0.278 HD
ENDROOT
BRANCH   1   4
HETATM    4  C   UNL     1       7.852  24.420  53.956  1.00  0.00     0.252 C 
BRANCH   4   5
HETATM    5  C   UNL     1       7.845  25.332  55.176  1.00  0.00    -0.023 A 
HETATM    6  C   UNL     1       8.212  24.896  56.463  1.00  0.00     0.012 A 
HETATM    7  C   UNL     1       8.192  25.772  57.557  1.00  0.00     0.037 A 
HETATM    8  C   UNL     1       7.818  27.102  57.384  1.00  0.00     0.068 A 
HETATM    9  C   UNL     1       7.460  27.546  56.111  1.00  0.00     0.037 A 
HETATM   10  C   UNL     1       7.479  26.678  55.017  1.00  0.00     0.012 A 
BRANCH   8  11
HETATM   11  O   UNL     1       7.757  28.054  58.360  1.00  0.00    -0.356 OA
HETATM   12  C   UNL     1       7.235  29.327  57.998  1.00  0.00     0.210 C 
ENDBRANCH   8  11
ENDBRANCH   4   5
BRANCH   4  13
HETATM   13  C   UNL     1       7.975  22.940  54.277  1.00  0.00    -0.023 A 
HETATM   14  C   UNL     1       8.418  22.050  53.281  1.00  0.00     0.009 A 
HETATM   15  C   UNL     1       8.474  20.676  53.524  1.00  0.00     0.001 A 
HETATM   16  C   UNL     1       8.086  20.168  54.760  1.00  0.00     0.000 A 
HETATM   17  C   UNL     1       7.641  21.032  55.756  1.00  0.00     0.001 A 
HETATM   18  C   UNL     1       7.580  22.406  55.517  1.00  0.00     0.009 A 
ENDBRANCH   4  13
ENDBRANCH   1   4
BRANCH   1  19
HETATM   19  C   UNL     1       6.955  25.331  51.740  1.00  0.00     0.336 C 
BRANCH  19  20
HETATM   20  C   UNL     1       5.613  25.661  51.088  1.00  0.00     0.248 C 
HETATM   21  N   UNL     1       5.671  26.643  50.121  1.00  0.00    -0.326 N 
HETATM   22  H   UNL     1       6.554  27.108  49.940  1.00  0.00     0.169 HD
HETATM   23  O   UNL     1       4.608  25.129  51.554  1.00  0.00    -0.271 OA
BRANCH  21  24
HETATM   24  C   UNL     1       4.590  27.137  49.360  1.00  0.00     0.034 A 
HETATM   25  C   UNL     1       3.682  28.085  49.820  1.00  0.00     0.032 A 
HETATM   26  C   UNL     1       2.601  28.483  49.017  1.00  0.00     0.032 A 
HETATM   27  C   UNL     1       2.407  27.957  47.735  1.00  0.00     0.037 A 
HETATM   28  C   UNL     1       3.348  27.028  47.272  1.00  0.00     0.032 A 
HETATM   29  C   UNL     1       4.415  26.611  48.078  1.00  0.00     0.032 A 
BRANCH  27  30
HETATM   30  N   UNL     1       1.299  28.330  46.928  1.00  0.00    -0.318 N 
HETATM   31  C   UNL     1       1.069  29.600  46.373  1.00  0.00     0.224 C 
HETATM   32  O   UNL     1       1.771  30.599  46.415  1.00  0.00    -0.273 OA
HETATM   33  C   UNL     1      -0.307  29.588  45.750  1.00  0.00     0.105 C 
HETATM   34  C   UNL     1      -0.591  28.111  45.570  1.00  0.00     0.029 C 
HETATM   35  C   UNL     1       0.154  27.471  46.723  1.00  0.00     0.133 C 
ENDBRANCH  27  30
ENDBRANCH  21  24
ENDBRANCH  19  20
ENDBRANCH   1  19
TORSDOF 8
ENDMDL
MODEL 10
REMARK VINA RESULT:      -8.7      3.314     10.537
REMARK  8 active torsions:
REMARK  status: ('A' for Active; 'I' for Inactive)
REMARK    1  A    between atoms: O_2  and  C_3 
REMARK    2  A    between atoms: C_6  and  C_7 
REMARK    3  A    between atoms: C_7  and  N_8 
REMARK    4  A    between atoms: C_7  and  C_27 
REMARK    5  A    between atoms: N_8  and  C_11 
REMARK    6  A    between atoms: C_11  and  C_12 
REMARK       I    between atoms: C_12  and  N_13 
REMARK    7  A    between atoms: N_13  and  C_14 
REMARK    8  A    between atoms: C_17  and  N_18 
ROOT
HETATM    1  N   UNL     1       6.316  30.154  58.223  1.00  0.00    -0.055 N 
HETATM    2  H   UNL     1       7.212  29.636  58.244  1.00  0.00     0.278 HD
HETATM    3  H   UNL     1       5.760  29.695  58.952  1.00  0.00     0.278 HD
ENDROOT
BRANCH   1   4
HETATM    4  C   UNL     1       6.587  31.570  58.613  1.00  0.00     0.252 C 
BRANCH   4   5
HETATM    5  C   UNL     1       5.337  32.428  58.754  1.00  0.00    -0.023 A 
HETATM    6  C   UNL     1       5.132  33.613  58.021  1.00  0.00     0.012 A 
HETATM    7  C   UNL     1       3.964  34.369  58.182  1.00  0.00     0.037 A 
HETATM    8  C   UNL     1       2.974  33.952  59.067  1.00  0.00     0.068 A 
HETATM    9  C   UNL     1       3.163  32.776  59.792  1.00  0.00     0.037 A 
HETATM   10  C   UNL     1       4.325  32.017  59.635  1.00  0.00     0.012 A 
BRANCH   8  11
HETATM   11  O   UNL     1       1.795  34.594  59.317  1.00  0.00    -0.356 OA
HETATM   12  C   UNL     1       1.749  35.462  60.443  1.00  0.00     0.210 C 
ENDBRANCH   8  11
ENDBRANCH   4   5
BRANCH   4  13
HETATM   13  C   UNL     1       7.496  31.576  59.831  1.00  0.00    -0.023 A 
HETATM   14  C   UNL     1       8.474  30.574  59.970  1.00  0.00     0.009 A 
HETATM   15  C   UNL     1       9.276  30.512  61.111  1.00  0.00     0.001 A 
HETATM   16  C   UNL     1       9.114  31.445  62.132  1.00  0.00     0.000 A 
HETATM   17  C   UNL     1       8.150  32.441  62.014  1.00  0.00     0.001 A 
HETATM   18  C   UNL     1       7.343  32.505  60.877  1.00  0.00     0.009 A 
ENDBRANCH   4  13
ENDBRANCH   1   4
BRANCH   1  19
HETATM   19  C   UNL     1       5.726  29.916  56.861  1.00  0.00     0.336 C 
BRANCH  19  20
HETATM   20  C   UNL     1       6.422  28.709  56.235  1.00  0.00     0.248 C 
HETATM   21  N   UNL     1       5.890  27.489  56.598  1.00  0.00    -0.326 N 
HETATM   22  H   UNL     1       5.132  27.460  57.271  1.00  0.00     0.169 HD
HETATM   23  O   UNL     1       7.442  28.916  55.582  1.00  0.00    -0.271 OA
BRANCH  21  24
HETATM   24  C   UNL     1       6.332  26.219  56.167  1.00  0.00     0.034 A 
HETATM   25  C   UNL     1       7.307  25.470  56.819  1.00  0.00     0.032 A 
HETATM   26  C   UNL     1       7.727  24.239  56.292  1.00  0.00     0.032 A 
HETATM   27  C   UNL     1       7.178  23.719  55.114  1.00  0.00     0.037 A 
HETATM   28  C   UNL     1       6.174  24.467  54.487  1.00  0.00     0.032 A 
HETATM   29  C   UNL     1       5.768  25.708  54.996  1.00  0.00     0.032 A 
BRANCH  27  30
HETATM   30  N   UNL     1       7.620  22.489  54.557  1.00  0.00    -0.318 N 
HETATM   31  C   UNL     1       7.899  21.310  55.270  1.00  0.00     0.224 C 
HETATM   32  O   UNL     1       7.772  21.081  56.463  1.00  0.00    -0.273 OA
HETATM   33  C   UNL     1       8.508  20.321  54.303  1.00  0.00     0.105 C 
HETATM   34  C   UNL     1       8.084  20.856  52.951  1.00  0.00     0.029 C 
HETATM   35  C   UNL     1       8.016  22.352  53.174  1.00  0.00     0.133 C 
ENDBRANCH  27  30
ENDBRANCH  21  24
ENDBRANCH  19  20
ENDBRANCH   1  19
TORSDOF 8
ENDMDL
