MODEL 1
REMARK VINA RESULT:      -9.2      0.000      0.000
REMARK  8 active torsions:
REMARK  status: ('A' for Active; 'I' for Inactive)
REMARK       I    between atoms: C_2  and  N_3 
REMARK    1  A    between atoms: N_3  and  C_4 
REMARK    2  A    between atoms: C_6  and  N_7 
REMARK    3  A    between atoms: N_7  and  C_8 
REMARK    4  A    between atoms: C_8  and  C_9 
REMARK       I    between atoms: C_9  and  N_10 
REMARK    5  A    between atoms: N_10  and  C_11 
REMARK    6  A    between atoms: C_12  and  C_13 
REMARK       I    between atoms: C_13  and  N_14 
REMARK    7  A    between atoms: N_14  and  C_15 
REMARK    8  A    between atoms: C_24  and  O_25 
ROOT
HETATM    1  C   UNL     1       6.209  28.580  56.601  1.00  0.00     0.235 C 
HETATM    2  N   UNL     1       7.236  28.408  57.518  1.00  0.00    -0.325 N 
HETATM    3  O   UNL     1       6.116  29.480  55.774  1.00  0.00    -0.272 OA
HETATM    4  H   UNL     1       7.274  27.499  57.964  1.00  0.00     0.169 HD
ENDROOT
BRANCH   1   5
HETATM    5  C   UNL     1       5.194  27.423  56.639  1.00  0.00     0.195 C 
BRANCH   5   6
HETATM    6  N   UNL     1       4.966  26.805  55.331  1.00  0.00    -0.282 NA
HETATM    7  H   UNL     1       4.077  26.294  55.331  1.00  0.00     0.128 HD
BRANCH   6   8
HETATM    8  C   UNL     1       5.946  25.989  54.741  1.00  0.00     0.044 A 
HETATM    9  C   UNL     1       6.262  24.709  55.228  1.00  0.00     0.055 A 
HETATM   10  C   UNL     1       7.139  23.851  54.554  1.00  0.00     0.036 A 
HETATM   11  C   UNL     1       7.759  24.295  53.385  1.00  0.00     0.032 A 
HETATM   12  C   UNL     1       7.466  25.558  52.877  1.00  0.00     0.041 A 
HETATM   13  C   UNL     1       6.575  26.399  53.547  1.00  0.00     0.089 A 
BRANCH  10  14
HETATM   14  N   UNL     1       7.408  22.528  54.972  1.00  0.00    -0.327 N 
HETATM   15  C   UNL     1       8.087  22.138  56.114  1.00  0.00     0.218 C 
HETATM   16  C   UNL     1       8.123  20.640  56.291  1.00  0.00     0.117 C 
HETATM   17  O   UNL     1       8.576  22.876  56.967  1.00  0.00    -0.274 OA
HETATM   18  H   UNL     1       6.939  21.800  54.447  1.00  0.00     0.169 HD
ENDBRANCH  10  14
BRANCH  13  19
HETATM   19  O   UNL     1       6.339  27.603  52.927  1.00  0.00    -0.354 OA
HETATM   20  C   UNL     1       5.643  27.469  51.689  1.00  0.00     0.210 C 
ENDBRANCH  13  19
ENDBRANCH   6   8
ENDBRANCH   5   6
ENDBRANCH   1   5
BRANCH   2  21
HETATM   21  C   UNL     1       8.401  29.195  57.673  1.00  0.00     0.050 A 
HETATM   22  C   UNL     1       8.563  30.352  58.450  1.00  0.00     0.058 A 
HETATM   23  C   UNL     1       9.776  31.072  58.379  1.00  0.00     0.019 A 
HETATM   24  C   UNL     1      10.834  30.635  57.585  1.00  0.00     0.001 A 
HETATM   25  C   UNL     1      10.701  29.460  56.862  1.00  0.00     0.002 A 
HETATM   26  C   UNL     1       9.501  28.746  56.913  1.00  0.00     0.030 A 
BRANCH  22  27
HETATM   27  C   UNL     1       7.630  30.869  59.480  1.00  0.00     0.254 C 
HETATM   28  N   UNL     1       8.056  30.789  60.795  1.00  0.00    -0.352 N 
HETATM   29  H   UNL     1       8.939  30.329  61.011  1.00  0.00     0.163 HD
HETATM   30  O   UNL     1       6.621  31.474  59.120  1.00  0.00    -0.268 OA
BRANCH  28  31
HETATM   31  C   UNL     1       7.313  31.422  61.841  1.00  0.00     0.084 A 
HETATM   32  C   UNL     1       8.020  31.987  63.041  1.00  0.00     0.027 A 
HETATM   33  C   UNL     1       7.352  32.907  62.063  1.00  0.00     0.027 A 
ENDBRANCH  28  31
ENDBRANCH  22  27
ENDBRANCH   2  21
TORSDOF 8
ENDMDL
MODEL 2
REMARK VINA RESULT:      -8.9      2.942      9.712
REMARK  8 active torsions:
REMARK  status: ('A' for Active; 'I' for Inactive)
REMARK       I    between atoms: C_2  and  N_3 
REMARK    1  A    between atoms: N_3  and  C_4 
REMARK    2  A    between atoms: C_6  and  N_7 
REMARK    3  A    between atoms: N_7  and  C_8 
REMARK    4  A    between atoms: C_8  and  C_9 
REMARK       I    between atoms: C_9  and  N_10 
REMARK    5  A    between atoms: N_10  and  C_11 
REMARK    6  A    between atoms: C_12  and  C_13 
REMARK       I    between atoms: C_13  and  N_14 
REMARK    7  A    between atoms: N_14  and  C_15 
REMARK    8  A    between atoms: C_24  and  O_25 
ROOT
HETATM    1  C   UNL     1       6.085  32.113  58.894  1.00  0.00     0.235 C 
HETATM    2  N   UNL     1       6.908  31.043  59.218  1.00  0.00    -0.325 N 
HETATM    3  O   UNL     1       6.084  32.735  57.838  1.00  0.00    -0.272 OA
HETATM    4  H   UNL     1       6.624  30.506  60.028  1.00  0.00     0.169 HD
ENDROOT
BRANCH   1   5
HETATM    5  C   UNL     1       5.043  32.400  59.990  1.00  0.00     0.195 C 
BRANCH   5   6
HETATM    6  N   UNL     1       5.346  31.749  61.266  1.00  0.00    -0.282 NA
HETATM    7  H   UNL     1       4.488  31.375  61.685  1.00  0.00     0.128 HD
BRANCH   6   8
HETATM    8  C   UNL     1       6.069  32.425  62.264  1.00  0.00     0.044 A 
HETATM    9  C   UNL     1       5.526  33.489  63.004  1.00  0.00     0.055 A 
HETATM   10  C   UNL     1       6.202  34.064  64.087  1.00  0.00     0.036 A 
HETATM   11  C   UNL     1       7.477  33.600  64.415  1.00  0.00     0.032 A 
HETATM   12  C   UNL     1       8.041  32.546  63.700  1.00  0.00     0.041 A 
HETATM   13  C   UNL     1       7.350  31.967  62.633  1.00  0.00     0.089 A 
BRANCH  10  14
HETATM   14  N   UNL     1       5.647  35.074  64.904  1.00  0.00    -0.327 N 
HETATM   15  C   UNL     1       4.830  34.898  66.008  1.00  0.00     0.218 C 
HETATM   16  C   UNL     1       4.485  36.196  66.694  1.00  0.00     0.117 C 
HETATM   17  O   UNL     1       4.445  33.828  66.473  1.00  0.00    -0.274 OA
HETATM   18  H   UNL     1       5.994  36.011  64.736  1.00  0.00     0.169 HD
ENDBRANCH  10  14
BRANCH  13  19
HETATM   19  O   UNL     1       7.994  30.912  62.031  1.00  0.00    -0.354 OA
HETATM   20  C   UNL     1       9.402  31.112  61.909  1.00  0.00     0.210 C 
ENDBRANCH  13  19
ENDBRANCH   6   8
ENDBRANCH   5   6
ENDBRANCH   1   5
BRANCH   2  21
HETATM   21  C   UNL     1       7.883  30.422  58.403  1.00  0.00     0.050 A 
HETATM   22  C   UNL     1       7.737  29.280  57.601  1.00  0.00     0.058 A 
HETATM   23  C   UNL     1       8.868  28.739  56.951  1.00  0.00     0.019 A 
HETATM   24  C   UNL     1      10.121  29.338  57.055  1.00  0.00     0.001 A 
HETATM   25  C   UNL     1      10.259  30.501  57.797  1.00  0.00     0.002 A 
HETATM   26  C   UNL     1       9.151  31.039  58.456  1.00  0.00     0.030 A 
BRANCH  22  27
HETATM   27  C   UNL     1       6.467  28.613  57.227  1.00  0.00     0.254 C 
HETATM   28  N   UNL     1       6.577  27.409  56.551  1.00  0.00    -0.352 N 
HETATM   29  H   UNL     1       7.497  27.066  56.282  1.00  0.00     0.163 HD
HETATM   30  O   UNL     1       5.407  29.063  57.660  1.00  0.00    -0.268 OA
BRANCH  28  31
HETATM   31  C   UNL     1       5.421  26.602  56.307  1.00  0.00     0.084 A 
HETATM   32  C   UNL     1       5.565  25.223  55.727  1.00  0.00     0.027 A 
HETATM   33  C   UNL     1       5.098  25.397  57.142  1.00  0.00     0.027 A 
ENDBRANCH  28  31
ENDBRANCH  22  27
ENDBRANCH   2  21
TORSDOF 8
ENDMDL
MODEL 3
REMARK VINA RESULT:      -8.9      1.548      8.822
REMARK  8 active torsions:
REMARK  status: ('A' for Active; 'I' for Inactive)
REMARK       I    between atoms: C_2  and  N_3 
REMARK    1  A    between atoms: N_3  and  C_4 
REMARK    2  A    between atoms: C_6  and  N_7 
REMARK    3  A    between atoms: N_7  and  C_8 
REMARK    4  A    between atoms: C_8  and  C_9 
REMARK       I    between atoms: C_9  and  N_10 
REMARK    5  A    between atoms: N_10  and  C_11 
REMARK    6  A    between atoms: C_12  and  C_13 
REMARK       I    between atoms: C_13  and  N_14 
REMARK    7  A    between atoms: N_14  and  C_15 
REMARK    8  A    between atoms: C_24  and  O_25 
ROOT
HETATM    1  C   UNL     1       6.872  28.063  56.216  1.00  0.00     0.235 C 
HETATM    2  N   UNL     1       6.078  26.930  56.106  1.00  0.00    -0.325 N 
HETATM    3  O   UNL     1       7.605  28.524  55.348  1.00  0.00    -0.272 OA
HETATM    4  H   UNL     1       5.371  26.822  56.823  1.00  0.00     0.169 HD
ENDROOT
BRANCH   1   5
HETATM    5  C   UNL     1       6.664  28.793  57.555  1.00  0.00     0.195 C 
BRANCH   5   6
HETATM    6  N   UNL     1       7.830  28.733  58.439  1.00  0.00    -0.282 NA
HETATM    7  H   UNL     1       7.642  28.109  59.231  1.00  0.00     0.128 HD
BRANCH   6   8
HETATM    8  C   UNL     1       8.421  29.909  58.931  1.00  0.00     0.044 A 
HETATM    9  C   UNL     1       8.173  30.398  60.225  1.00  0.00     0.055 A 
HETATM   10  C   UNL     1       8.870  31.491  60.755  1.00  0.00     0.036 A 
HETATM   11  C   UNL     1       9.809  32.148  59.958  1.00  0.00     0.032 A 
HETATM   12  C   UNL     1      10.077  31.686  58.671  1.00  0.00     0.041 A 
HETATM   13  C   UNL     1       9.389  30.583  58.160  1.00  0.00     0.089 A 
BRANCH  10  14
HETATM   14  N   UNL     1       8.705  31.951  62.080  1.00  0.00    -0.327 N 
HETATM   15  C   UNL     1       7.682  32.751  62.563  1.00  0.00     0.218 C 
HETATM   16  C   UNL     1       7.774  32.985  64.050  1.00  0.00     0.117 C 
HETATM   17  O   UNL     1       6.736  33.201  61.921  1.00  0.00    -0.274 OA
HETATM   18  H   UNL     1       9.328  31.542  62.766  1.00  0.00     0.169 HD
ENDBRANCH  10  14
BRANCH  13  19
HETATM   19  O   UNL     1       9.769  30.200  56.895  1.00  0.00    -0.354 OA
HETATM   20  C   UNL     1      11.029  29.531  56.867  1.00  0.00     0.210 C 
ENDBRANCH  13  19
ENDBRANCH   6   8
ENDBRANCH   5   6
ENDBRANCH   1   5
BRANCH   2  21
HETATM   21  C   UNL     1       5.912  26.095  54.977  1.00  0.00     0.050 A 
HETATM   22  C   UNL     1       6.486  24.837  54.743  1.00  0.00     0.058 A 
HETATM   23  C   UNL     1       6.295  24.208  53.492  1.00  0.00     0.019 A 
HETATM   24  C   UNL     1       5.512  24.791  52.499  1.00  0.00     0.001 A 
HETATM   25  C   UNL     1       4.892  26.006  52.747  1.00  0.00     0.002 A 
HETATM   26  C   UNL     1       5.084  26.645  53.975  1.00  0.00     0.030 A 
BRANCH  22  27
HETATM   27  C   UNL     1       7.194  23.984  55.728  1.00  0.00     0.254 C 
HETATM   28  N   UNL     1       7.396  22.662  55.370  1.00  0.00    -0.352 N 
HETATM   29  H   UNL     1       7.004  22.312  54.497  1.00  0.00     0.163 HD
HETATM   30  O   UNL     1       7.696  24.512  56.719  1.00  0.00    -0.268 OA
BRANCH  28  31
HETATM   31  C   UNL     1       8.222  21.809  56.167  1.00  0.00     0.084 A 
HETATM   32  C   UNL     1       7.946  20.333  56.239  1.00  0.00     0.027 A 
HETATM   33  C   UNL     1       9.185  20.832  55.557  1.00  0.00     0.027 A 
ENDBRANCH  28  31
ENDBRANCH  22  27
ENDBRANCH   2  21
TORSDOF 8
ENDMDL
MODEL 4
REMARK VINA RESULT:      -8.8      1.423      3.495
REMARK  8 active torsions:
REMARK  status: ('A' for Active; 'I' for Inactive)
REMARK       I    between atoms: C_2  and  N_3 
REMARK    1  A    between atoms: N_3  and  C_4 
REMARK    2  A    between atoms: C_6  and  N_7 
REMARK    3  A    between atoms: N_7  and  C_8 
REMARK    4  A    between atoms: C_8  and  C_9 
REMARK       I    between atoms: C_9  and  N_10 
REMARK    5  A    between atoms: N_10  and  C_11 
REMARK    6  A    between atoms: C_12  and  C_13 
REMARK       I    between atoms: C_13  and  N_14 
REMARK    7  A    between atoms: N_14  and  C_15 
REMARK    8  A    between atoms: C_24  and  O_25 
ROOT
HETATM    1  C   UNL     1       7.198  27.200  57.452  1.00  0.00     0.235 C 
HETATM    2  N   UNL     1       7.505  28.487  57.033  1.00  0.00    -0.325 N 
HETATM    3  O   UNL     1       7.878  26.493  58.186  1.00  0.00    -0.272 OA
HETATM    4  H   UNL     1       6.738  29.007  56.623  1.00  0.00     0.169 HD
ENDROOT
BRANCH   1   5
HETATM    5  C   UNL     1       5.804  26.750  56.978  1.00  0.00     0.195 C 
BRANCH   5   6
HETATM    6  N   UNL     1       5.738  25.329  56.630  1.00  0.00    -0.282 NA
HETATM    7  H   UNL     1       6.206  24.767  57.349  1.00  0.00     0.128 HD
BRANCH   6   8
HETATM    8  C   UNL     1       6.162  24.877  55.369  1.00  0.00     0.044 A 
HETATM    9  C   UNL     1       5.465  25.169  54.185  1.00  0.00     0.055 A 
HETATM   10  C   UNL     1       5.967  24.833  52.922  1.00  0.00     0.036 A 
HETATM   11  C   UNL     1       7.177  24.142  52.835  1.00  0.00     0.032 A 
HETATM   12  C   UNL     1       7.892  23.838  53.991  1.00  0.00     0.041 A 
HETATM   13  C   UNL     1       7.390  24.195  55.245  1.00  0.00     0.089 A 
BRANCH  10  14
HETATM   14  N   UNL     1       5.333  25.189  51.711  1.00  0.00    -0.327 N 
HETATM   15  C   UNL     1       5.316  26.440  51.117  1.00  0.00     0.218 C 
HETATM   16  C   UNL     1       4.609  26.445  49.783  1.00  0.00     0.117 C 
HETATM   17  O   UNL     1       5.852  27.461  51.539  1.00  0.00    -0.274 OA
HETATM   18  H   UNL     1       4.969  24.418  51.164  1.00  0.00     0.169 HD
ENDBRANCH  10  14
BRANCH  13  19
HETATM   19  O   UNL     1       8.204  23.875  56.306  1.00  0.00    -0.354 OA
HETATM   20  C   UNL     1       8.337  22.468  56.505  1.00  0.00     0.210 C 
ENDBRANCH  13  19
ENDBRANCH   6   8
ENDBRANCH   5   6
ENDBRANCH   1   5
BRANCH   2  21
HETATM   21  C   UNL     1       8.631  29.268  57.385  1.00  0.00     0.050 A 
HETATM   22  C   UNL     1       8.686  30.349  58.276  1.00  0.00     0.058 A 
HETATM   23  C   UNL     1       9.886  31.083  58.404  1.00  0.00     0.019 A 
HETATM   24  C   UNL     1      11.032  30.731  57.694  1.00  0.00     0.001 A 
HETATM   25  C   UNL     1      11.000  29.626  56.857  1.00  0.00     0.002 A 
HETATM   26  C   UNL     1       9.815  28.900  56.711  1.00  0.00     0.030 A 
BRANCH  22  27
HETATM   27  C   UNL     1       7.639  30.761  59.241  1.00  0.00     0.254 C 
HETATM   28  N   UNL     1       8.024  30.855  60.568  1.00  0.00    -0.352 N 
HETATM   29  H   UNL     1       8.966  30.581  60.839  1.00  0.00     0.163 HD
HETATM   30  O   UNL     1       6.551  31.143  58.813  1.00  0.00    -0.268 OA
BRANCH  28  31
HETATM   31  C   UNL     1       7.141  31.415  61.545  1.00  0.00     0.084 A 
HETATM   32  C   UNL     1       7.676  31.907  62.861  1.00  0.00     0.027 A 
HETATM   33  C   UNL     1       7.129  32.883  61.862  1.00  0.00     0.027 A 
ENDBRANCH  28  31
ENDBRANCH  22  27
ENDBRANCH   2  21
TORSDOF 8
ENDMDL
MODEL 5
REMARK VINA RESULT:      -8.8      2.039      8.338
REMARK  8 active torsions:
REMARK  status: ('A' for Active; 'I' for Inactive)
REMARK       I    between atoms: C_2  and  N_3 
REMARK    1  A    between atoms: N_3  and  C_4 
REMARK    2  A    between atoms: C_6  and  N_7 
REMARK    3  A    between atoms: N_7  and  C_8 
REMARK    4  A    between atoms: C_8  and  C_9 
REMARK       I    between atoms: C_9  and  N_10 
REMARK    5  A    between atoms: N_10  and  C_11 
REMARK    6  A    between atoms: C_12  and  C_13 
REMARK       I    between atoms: C_13  and  N_14 
REMARK    7  A    between atoms: N_14  and  C_15 
REMARK    8  A    between atoms: C_24  and  O_25 
ROOT
HETATM    1  C   UNL     1       7.338  24.903  56.128  1.00  0.00     0.235 C 
HETATM    2  N   UNL     1       8.413  24.215  55.584  1.00  0.00    -0.325 N 
HETATM    3  O   UNL     1       6.152  24.630  55.983  1.00  0.00    -0.272 OA
HETATM    4  H   UNL     1       9.317  24.432  55.985  1.00  0.00     0.169 HD
ENDROOT
BRANCH   1   5
HETATM    5  C   UNL     1       7.787  26.036  57.070  1.00  0.00     0.195 C 
BRANCH   5   6
HETATM    6  N   UNL     1       7.852  27.344  56.416  1.00  0.00    -0.282 NA
HETATM    7  H   UNL     1       8.796  27.510  56.050  1.00  0.00     0.128 HD
BRANCH   6   8
HETATM    8  C   UNL     1       7.426  28.505  57.084  1.00  0.00     0.044 A 
HETATM    9  C   UNL     1       8.043  28.975  58.256  1.00  0.00     0.055 A 
HETATM   10  C   UNL     1       7.702  30.202  58.836  1.00  0.00     0.036 A 
HETATM   11  C   UNL     1       6.683  30.965  58.263  1.00  0.00     0.032 A 
HETATM   12  C   UNL     1       6.053  30.525  57.100  1.00  0.00     0.041 A 
HETATM   13  C   UNL     1       6.414  29.308  56.519  1.00  0.00     0.089 A 
BRANCH  10  14
HETATM   14  N   UNL     1       8.362  30.742  59.963  1.00  0.00    -0.327 N 
HETATM   15  C   UNL     1       9.321  31.741  59.967  1.00  0.00     0.218 C 
HETATM   16  C   UNL     1       9.756  32.129  61.358  1.00  0.00     0.117 C 
HETATM   17  O   UNL     1       9.765  32.336  58.988  1.00  0.00    -0.274 OA
HETATM   18  H   UNL     1       7.996  30.455  60.863  1.00  0.00     0.169 HD
ENDBRANCH  10  14
BRANCH  13  19
HETATM   19  O   UNL     1       5.748  29.002  55.356  1.00  0.00    -0.354 OA
HETATM   20  C   UNL     1       4.800  29.999  54.975  1.00  0.00     0.210 C 
ENDBRANCH  13  19
ENDBRANCH   6   8
ENDBRANCH   5   6
ENDBRANCH   1   5
BRANCH   2  21
HETATM   21  C   UNL     1       8.381  23.047  54.787  1.00  0.00     0.050 A 
HETATM   22  C   UNL     1       7.796  22.881  53.523  1.00  0.00     0.058 A 
HETATM   23  C   UNL     1       7.762  21.596  52.937  1.00  0.00     0.019 A 
HETATM   24  C   UNL     1       8.334  20.495  53.568  1.00  0.00     0.001 A 
HETATM   25  C   UNL     1       8.967  20.665  54.790  1.00  0.00     0.002 A 
HETATM   26  C   UNL     1       8.996  21.928  55.387  1.00  0.00     0.030 A 
BRANCH  22  27
HETATM   27  C   UNL     1       7.301  23.952  52.625  1.00  0.00     0.254 C 
HETATM   28  N   UNL     1       6.030  24.438  52.884  1.00  0.00    -0.352 N 
HETATM   29  H   UNL     1       5.468  24.011  53.618  1.00  0.00     0.163 HD
HETATM   30  O   UNL     1       8.077  24.456  51.815  1.00  0.00    -0.268 OA
BRANCH  28  31
HETATM   31  C   UNL     1       5.535  25.589  52.193  1.00  0.00     0.084 A 
HETATM   32  C   UNL     1       4.654  26.580  52.900  1.00  0.00     0.027 A 
HETATM   33  C   UNL     1       6.040  26.973  52.483  1.00  0.00     0.027 A 
ENDBRANCH  28  31
ENDBRANCH  22  27
ENDBRANCH   2  21
TORSDOF 8
ENDMDL
MODEL 6
REMARK VINA RESULT:      -8.4      2.526      4.944
REMARK  8 active torsions:
REMARK  status: ('A' for Active; 'I' for Inactive)
REMARK       I    between atoms: C_2  and  N_3 
REMARK    1  A    between atoms: N_3  and  C_4 
REMARK    2  A    between atoms: C_6  and  N_7 
REMARK    3  A    between atoms: N_7  and  C_8 
REMARK    4  A    between atoms: C_8  and  C_9 
REMARK       I    between atoms: C_9  and  N_10 
REMARK    5  A    between atoms: N_10  and  C_11 
REMARK    6  A    between atoms: C_12  and  C_13 
REMARK       I    between atoms: C_13  and  N_14 
REMARK    7  A    between atoms: N_14  and  C_15 
REMARK    8  A    between atoms: C_24  and  O_25 
ROOT
HETATM    1  C   UNL     1       8.796  31.225  59.017  1.00  0.00     0.235 C 
HETATM    2  N   UNL     1       7.804  30.978  59.957  1.00  0.00    -0.325 N 
HETATM    3  O   UNL     1       9.497  32.227  58.947  1.00  0.00    -0.272 OA
HETATM    4  H   UNL     1       7.485  30.018  60.012  1.00  0.00     0.169 HD
ENDROOT
BRANCH   1   5
HETATM    5  C   UNL     1       9.026  30.022  58.084  1.00  0.00     0.195 C 
BRANCH   5   6
HETATM    6  N   UNL     1       8.203  28.858  58.419  1.00  0.00    -0.282 NA
HETATM    7  H   UNL     1       8.782  28.125  58.843  1.00  0.00     0.128 HD
BRANCH   6   8
HETATM    8  C   UNL     1       7.371  28.264  57.456  1.00  0.00     0.044 A 
HETATM    9  C   UNL     1       7.731  27.098  56.758  1.00  0.00     0.055 A 
HETATM   10  C   UNL     1       6.841  26.437  55.903  1.00  0.00     0.036 A 
HETATM   11  C   UNL     1       5.570  26.977  55.696  1.00  0.00     0.032 A 
HETATM   12  C   UNL     1       5.184  28.132  56.374  1.00  0.00     0.041 A 
HETATM   13  C   UNL     1       6.074  28.772  57.240  1.00  0.00     0.089 A 
BRANCH  10  14
HETATM   14  N   UNL     1       7.143  25.218  55.256  1.00  0.00    -0.327 N 
HETATM   15  C   UNL     1       7.633  25.056  53.971  1.00  0.00     0.218 C 
HETATM   16  C   UNL     1       7.919  23.614  53.631  1.00  0.00     0.117 C 
HETATM   17  O   UNL     1       7.892  25.947  53.166  1.00  0.00    -0.274 OA
HETATM   18  H   UNL     1       7.121  24.394  55.845  1.00  0.00     0.169 HD
ENDBRANCH  10  14
BRANCH  13  19
HETATM   19  O   UNL     1       5.564  29.878  57.877  1.00  0.00    -0.354 OA
HETATM   20  C   UNL     1       4.241  30.208  57.455  1.00  0.00     0.210 C 
ENDBRANCH  13  19
ENDBRANCH   6   8
ENDBRANCH   5   6
ENDBRANCH   1   5
BRANCH   2  21
HETATM   21  C   UNL     1       7.418  31.796  61.044  1.00  0.00     0.050 A 
HETATM   22  C   UNL     1       6.447  32.808  61.060  1.00  0.00     0.058 A 
HETATM   23  C   UNL     1       6.289  33.601  62.218  1.00  0.00     0.019 A 
HETATM   24  C   UNL     1       7.050  33.374  63.363  1.00  0.00     0.001 A 
HETATM   25  C   UNL     1       7.969  32.336  63.373  1.00  0.00     0.002 A 
HETATM   26  C   UNL     1       8.144  31.553  62.230  1.00  0.00     0.030 A 
BRANCH  22  27
HETATM   27  C   UNL     1       5.429  33.080  60.016  1.00  0.00     0.254 C 
HETATM   28  N   UNL     1       4.188  33.504  60.459  1.00  0.00    -0.352 N 
HETATM   29  H   UNL     1       3.998  33.548  61.459  1.00  0.00     0.163 HD
HETATM   30  O   UNL     1       5.772  33.072  58.835  1.00  0.00    -0.268 OA
BRANCH  28  31
HETATM   31  C   UNL     1       3.201  33.965  59.531  1.00  0.00     0.084 A 
HETATM   32  C   UNL     1       2.063  34.828  59.998  1.00  0.00     0.027 A 
HETATM   33  C   UNL     1       3.119  35.401  59.100  1.00  0.00     0.027 A 
ENDBRANCH  28  31
ENDBRANCH  22  27
ENDBRANCH   2  21
TORSDOF 8
ENDMDL
MODEL 7
REMARK VINA RESULT:      -8.4      3.976      7.299
REMARK  8 active torsions:
REMARK  status: ('A' for Active; 'I' for Inactive)
REMARK       I    between atoms: C_2  and  N_3 
REMARK    1  A    between atoms: N_3  and  C_4 
REMARK    2  A    between atoms: C_6  and  N_7 
REMARK    3  A    between atoms: N_7  and  C_8 
REMARK    4  A    between atoms: C_8  and  C_9 
REMARK       I    between atoms: C_9  and  N_10 
REMARK    5  A    between atoms: N_10  and  C_11 
REMARK    6  A    between atoms: C_12  and  C_13 
REMARK       I    between atoms: C_13  and  N_14 
REMARK    7  A    between atoms: N_14  and  C_15 
REMARK    8  A    between atoms: C_24  and  O_25 
ROOT
HETATM    1  C   UNL     1       7.054  24.272  52.901  1.00  0.00     0.235 C 
HETATM    2  N   UNL     1       8.172  23.503  53.193  1.00  0.00    -0.325 N 
HETATM    3  O   UNL     1       5.945  24.166  53.413  1.00  0.00    -0.272 OA
HETATM    4  H   UNL     1       9.053  23.868  52.852  1.00  0.00     0.169 HD
ENDROOT
BRANCH   1   5
HETATM    5  C   UNL     1       7.368  25.402  51.904  1.00  0.00     0.195 C 
BRANCH   5   6
HETATM    6  N   UNL     1       6.227  25.768  51.061  1.00  0.00    -0.282 NA
HETATM    7  H   UNL     1       6.506  25.777  50.074  1.00  0.00     0.128 HD
BRANCH   6   8
HETATM    8  C   UNL     1       5.484  26.931  51.323  1.00  0.00     0.044 A 
HETATM    9  C   UNL     1       5.667  27.703  52.483  1.00  0.00     0.055 A 
HETATM   10  C   UNL     1       5.022  28.932  52.670  1.00  0.00     0.036 A 
HETATM   11  C   UNL     1       4.130  29.385  51.697  1.00  0.00     0.032 A 
HETATM   12  C   UNL     1       3.928  28.642  50.535  1.00  0.00     0.041 A 
HETATM   13  C   UNL     1       4.591  27.427  50.351  1.00  0.00     0.089 A 
BRANCH  10  14
HETATM   14  N   UNL     1       5.252  29.770  53.783  1.00  0.00    -0.327 N 
HETATM   15  C   UNL     1       4.657  29.681  55.030  1.00  0.00     0.218 C 
HETATM   16  C   UNL     1       5.197  30.692  56.011  1.00  0.00     0.117 C 
HETATM   17  O   UNL     1       3.823  28.853  55.388  1.00  0.00    -0.274 OA
HETATM   18  H   UNL     1       6.027  30.416  53.691  1.00  0.00     0.169 HD
ENDBRANCH  10  14
BRANCH  13  19
HETATM   19  O   UNL     1       4.338  26.807  49.151  1.00  0.00    -0.354 OA
HETATM   20  C   UNL     1       4.952  27.462  48.041  1.00  0.00     0.210 C 
ENDBRANCH  13  19
ENDBRANCH   6   8
ENDBRANCH   5   6
ENDBRANCH   1   5
BRANCH   2  21
HETATM   21  C   UNL     1       8.288  22.472  54.155  1.00  0.00     0.050 A 
HETATM   22  C   UNL     1       8.372  22.598  55.549  1.00  0.00     0.058 A 
HETATM   23  C   UNL     1       8.607  21.450  56.338  1.00  0.00     0.019 A 
HETATM   24  C   UNL     1       8.717  20.186  55.764  1.00  0.00     0.001 A 
HETATM   25  C   UNL     1       8.574  20.047  54.392  1.00  0.00     0.002 A 
HETATM   26  C   UNL     1       8.355  21.177  53.599  1.00  0.00     0.030 A 
BRANCH  22  27
HETATM   27  C   UNL     1       8.105  23.818  56.349  1.00  0.00     0.254 C 
HETATM   28  N   UNL     1       6.806  24.297  56.330  1.00  0.00    -0.352 N 
HETATM   29  H   UNL     1       6.113  23.851  55.732  1.00  0.00     0.163 HD
HETATM   30  O   UNL     1       8.983  24.243  57.098  1.00  0.00    -0.268 OA
BRANCH  28  31
HETATM   31  C   UNL     1       6.407  25.355  57.207  1.00  0.00     0.084 A 
HETATM   32  C   UNL     1       6.251  26.757  56.687  1.00  0.00     0.027 A 
HETATM   33  C   UNL     1       5.045  25.984  57.132  1.00  0.00     0.027 A 
ENDBRANCH  28  31
ENDBRANCH  22  27
ENDBRANCH   2  21
TORSDOF 8
ENDMDL
MODEL 8
REMARK VINA RESULT:      -8.4      2.047      8.366
REMARK  8 active torsions:
REMARK  status: ('A' for Active; 'I' for Inactive)
REMARK       I    between atoms: C_2  and  N_3 
REMARK    1  A    between atoms: N_3  and  C_4 
REMARK    2  A    between atoms: C_6  and  N_7 
REMARK    3  A    between atoms: N_7  and  C_8 
REMARK    4  A    between atoms: C_8  and  C_9 
REMARK       I    between atoms: C_9  and  N_10 
REMARK    5  A    between atoms: N_10  and  C_11 
REMARK    6  A    between atoms: C_12  and  C_13 
REMARK       I    between atoms: C_13  and  N_14 
REMARK    7  A    between atoms: N_14  and  C_15 
REMARK    8  A    between atoms: C_24  and  O_25 
ROOT
HETATM    1  C   UNL     1       7.524  27.312  56.369  1.00  0.00     0.235 C 
HETATM    2  N   UNL     1       7.305  25.953  56.545  1.00  0.00    -0.325 N 
HETATM    3  O   UNL     1       7.984  27.851  55.369  1.00  0.00    -0.272 OA
HETATM    4  H   UNL     1       6.713  25.705  57.329  1.00  0.00     0.169 HD
ENDROOT
BRANCH   1   5
HETATM    5  C   UNL     1       7.012  28.144  57.560  1.00  0.00     0.195 C 
BRANCH   5   6
HETATM    6  N   UNL     1       7.029  29.587  57.312  1.00  0.00    -0.282 NA
HETATM    7  H   UNL     1       7.190  29.773  56.316  1.00  0.00     0.128 HD
BRANCH   6   8
HETATM    8  C   UNL     1       7.860  30.436  58.061  1.00  0.00     0.044 A 
HETATM    9  C   UNL     1       7.439  31.055  59.250  1.00  0.00     0.055 A 
HETATM   10  C   UNL     1       8.315  31.786  60.061  1.00  0.00     0.036 A 
HETATM   11  C   UNL     1       9.640  31.949  59.654  1.00  0.00     0.032 A 
HETATM   12  C   UNL     1      10.088  31.347  58.480  1.00  0.00     0.041 A 
HETATM   13  C   UNL     1       9.210  30.604  57.689  1.00  0.00     0.089 A 
BRANCH  10  14
HETATM   14  N   UNL     1       7.942  32.346  61.304  1.00  0.00    -0.327 N 
HETATM   15  C   UNL     1       8.062  31.757  62.552  1.00  0.00     0.218 C 
HETATM   16  C   UNL     1       7.639  32.672  63.674  1.00  0.00     0.117 C 
HETATM   17  O   UNL     1       8.515  30.642  62.797  1.00  0.00    -0.274 OA
HETATM   18  H   UNL     1       7.687  33.326  61.283  1.00  0.00     0.169 HD
ENDBRANCH  10  14
BRANCH  13  19
HETATM   19  O   UNL     1       9.779  30.030  56.577  1.00  0.00    -0.354 OA
HETATM   20  C   UNL     1      11.048  29.433  56.842  1.00  0.00     0.210 C 
ENDBRANCH  13  19
ENDBRANCH   6   8
ENDBRANCH   5   6
ENDBRANCH   1   5
BRANCH   2  21
HETATM   21  C   UNL     1       7.524  24.912  55.613  1.00  0.00     0.050 A 
HETATM   22  C   UNL     1       6.763  24.596  54.478  1.00  0.00     0.058 A 
HETATM   23  C   UNL     1       7.074  23.437  53.734  1.00  0.00     0.019 A 
HETATM   24  C   UNL     1       8.149  22.620  54.078  1.00  0.00     0.001 A 
HETATM   25  C   UNL     1       8.942  22.961  55.163  1.00  0.00     0.002 A 
HETATM   26  C   UNL     1       8.636  24.098  55.915  1.00  0.00     0.030 A 
BRANCH  22  27
HETATM   27  C   UNL     1       5.706  25.429  53.856  1.00  0.00     0.254 C 
HETATM   28  N   UNL     1       6.090  26.682  53.407  1.00  0.00    -0.352 N 
HETATM   29  H   UNL     1       7.041  27.007  53.576  1.00  0.00     0.163 HD
HETATM   30  O   UNL     1       4.608  24.925  53.627  1.00  0.00    -0.268 OA
BRANCH  28  31
HETATM   31  C   UNL     1       5.194  27.486  52.634  1.00  0.00     0.084 A 
HETATM   32  C   UNL     1       5.709  28.663  51.854  1.00  0.00     0.027 A 
HETATM   33  C   UNL     1       5.188  27.455  51.133  1.00  0.00     0.027 A 
ENDBRANCH  28  31
ENDBRANCH  22  27
ENDBRANCH   2  21
TORSDOF 8
ENDMDL
MODEL 9
REMARK VINA RESULT:      -8.3      2.469      9.191
REMARK  8 active torsions:
REMARK  status: ('A' for Active; 'I' for Inactive)
REMARK       I    between atoms: C_2  and  N_3 
REMARK    1  A    between atoms: N_3  and  C_4 
REMARK    2  A    between atoms: C_6  and  N_7 
REMARK    3  A    between atoms: N_7  and  C_8 
REMARK    4  A    between atoms: C_8  and  C_9 
REMARK       I    between atoms: C_9  and  N_10 
REMARK    5  A    between atoms: N_10  and  C_11 
REMARK    6  A    between atoms: C_12  and  C_13 
REMARK       I    between atoms: C_13  and  N_14 
REMARK    7  A    between atoms: N_14  and  C_15 
REMARK    8  A    between atoms: C_24  and  O_25 
ROOT
HETATM    1  C   UNL     1       7.433  27.468  56.204  1.00  0.00     0.235 C 
HETATM    2  N   UNL     1       6.533  26.478  55.836  1.00  0.00    -0.325 N 
HETATM    3  O   UNL     1       8.069  28.191  55.445  1.00  0.00    -0.272 OA
HETATM    4  H   UNL     1       5.932  26.138  56.577  1.00  0.00     0.169 HD
ENDROOT
BRANCH   1   5
HETATM    5  C   UNL     1       7.489  27.668  57.729  1.00  0.00     0.195 C 
BRANCH   5   6
HETATM    6  N   UNL     1       8.295  28.822  58.136  1.00  0.00    -0.282 NA
HETATM    7  H   UNL     1       8.979  28.542  58.847  1.00  0.00     0.128 HD
BRANCH   6   8
HETATM    8  C   UNL     1       7.682  30.014  58.556  1.00  0.00     0.044 A 
HETATM    9  C   UNL     1       6.550  30.550  57.919  1.00  0.00     0.055 A 
HETATM   10  C   UNL     1       5.865  31.661  58.427  1.00  0.00     0.036 A 
HETATM   11  C   UNL     1       6.349  32.289  59.576  1.00  0.00     0.032 A 
HETATM   12  C   UNL     1       7.469  31.781  60.230  1.00  0.00     0.041 A 
HETATM   13  C   UNL     1       8.133  30.661  59.725  1.00  0.00     0.089 A 
BRANCH  10  14
HETATM   14  N   UNL     1       4.675  32.169  57.859  1.00  0.00    -0.327 N 
HETATM   15  C   UNL     1       4.532  33.342  57.137  1.00  0.00     0.218 C 
HETATM   16  C   UNL     1       3.132  33.537  56.609  1.00  0.00     0.117 C 
HETATM   17  O   UNL     1       5.417  34.148  56.862  1.00  0.00    -0.274 OA
HETATM   18  H   UNL     1       3.881  31.541  57.874  1.00  0.00     0.169 HD
ENDBRANCH  10  14
BRANCH  13  19
HETATM   19  O   UNL     1       9.200  30.233  60.478  1.00  0.00    -0.354 OA
HETATM   20  C   UNL     1       9.099  30.602  61.854  1.00  0.00     0.210 C 
ENDBRANCH  13  19
ENDBRANCH   6   8
ENDBRANCH   5   6
ENDBRANCH   1   5
BRANCH   2  21
HETATM   21  C   UNL     1       6.129  26.115  54.530  1.00  0.00     0.050 A 
HETATM   22  C   UNL     1       6.621  25.070  53.735  1.00  0.00     0.058 A 
HETATM   23  C   UNL     1       6.172  24.942  52.401  1.00  0.00     0.019 A 
HETATM   24  C   UNL     1       5.219  25.807  51.870  1.00  0.00     0.001 A 
HETATM   25  C   UNL     1       4.685  26.805  52.671  1.00  0.00     0.002 A 
HETATM   26  C   UNL     1       5.130  26.950  53.987  1.00  0.00     0.030 A 
BRANCH  22  27
HETATM   27  C   UNL     1       7.494  23.954  54.172  1.00  0.00     0.254 C 
HETATM   28  N   UNL     1       7.499  22.823  53.372  1.00  0.00    -0.352 N 
HETATM   29  H   UNL     1       6.871  22.770  52.572  1.00  0.00     0.163 HD
HETATM   30  O   UNL     1       8.271  24.137  55.107  1.00  0.00    -0.268 OA
BRANCH  28  31
HETATM   31  C   UNL     1       8.437  21.769  53.606  1.00  0.00     0.084 A 
HETATM   32  C   UNL     1       8.008  20.511  54.307  1.00  0.00     0.027 A 
HETATM   33  C   UNL     1       8.383  20.470  52.855  1.00  0.00     0.027 A 
ENDBRANCH  28  31
ENDBRANCH  22  27
ENDBRANCH   2  21
TORSDOF 8
ENDMDL
MODEL 10
REMARK VINA RESULT:      -8.3      1.915      8.857
REMARK  8 active torsions:
REMARK  status: ('A' for Active; 'I' for Inactive)
REMARK       I    between atoms: C_2  and  N_3 
REMARK    1  A    between atoms: N_3  and  C_4 
REMARK    2  A    between atoms: C_6  and  N_7 
REMARK    3  A    between atoms: N_7  and  C_8 
REMARK    4  A    between atoms: C_8  and  C_9 
REMARK       I    between atoms: C_9  and  N_10 
REMARK    5  A    between atoms: N_10  and  C_11 
REMARK    6  A    between atoms: C_12  and  C_13 
REMARK       I    between atoms: C_13  and  N_14 
REMARK    7  A    between atoms: N_14  and  C_15 
REMARK    8  A    between atoms: C_24  and  O_25 
ROOT
HETATM    1  C   UNL     1       6.827  27.133  56.652  1.00  0.00     0.235 C 
HETATM    2  N   UNL     1       7.259  26.889  55.355  1.00  0.00    -0.325 N 
HETATM    3  O   UNL     1       5.722  26.869  57.111  1.00  0.00    -0.272 OA
HETATM    4  H   UNL     1       8.258  26.956  55.209  1.00  0.00     0.169 HD
ENDROOT
BRANCH   1   5
HETATM    5  C   UNL     1       7.949  27.694  57.544  1.00  0.00     0.195 C 
BRANCH   5   6
HETATM    6  N   UNL     1       8.200  29.121  57.334  1.00  0.00    -0.282 NA
HETATM    7  H   UNL     1       9.205  29.318  57.406  1.00  0.00     0.128 HD
BRANCH   6   8
HETATM    8  C   UNL     1       7.506  30.091  58.077  1.00  0.00     0.044 A 
HETATM    9  C   UNL     1       7.943  30.540  59.335  1.00  0.00     0.055 A 
HETATM   10  C   UNL     1       7.323  31.602  60.004  1.00  0.00     0.036 A 
HETATM   11  C   UNL     1       6.203  32.205  59.429  1.00  0.00     0.032 A 
HETATM   12  C   UNL     1       5.745  31.782  58.182  1.00  0.00     0.041 A 
HETATM   13  C   UNL     1       6.384  30.734  57.515  1.00  0.00     0.089 A 
BRANCH  10  14
HETATM   14  N   UNL     1       7.792  32.133  61.226  1.00  0.00    -0.327 N 
HETATM   15  C   UNL     1       7.173  32.049  62.462  1.00  0.00     0.218 C 
HETATM   16  C   UNL     1       7.995  32.659  63.571  1.00  0.00     0.117 C 
HETATM   17  O   UNL     1       6.105  31.496  62.713  1.00  0.00    -0.274 OA
HETATM   18  H   UNL     1       8.739  32.493  61.212  1.00  0.00     0.169 HD
ENDBRANCH  10  14
BRANCH  13  19
HETATM   19  O   UNL     1       5.863  30.434  56.279  1.00  0.00    -0.354 OA
HETATM   20  C   UNL     1       5.004  31.453  55.770  1.00  0.00     0.210 C 
ENDBRANCH  13  19
ENDBRANCH   6   8
ENDBRANCH   5   6
ENDBRANCH   1   5
BRANCH   2  21
HETATM   21  C   UNL     1       6.545  26.261  54.308  1.00  0.00     0.050 A 
HETATM   22  C   UNL     1       6.766  24.991  53.755  1.00  0.00     0.058 A 
HETATM   23  C   UNL     1       6.020  24.586  52.625  1.00  0.00     0.019 A 
HETATM   24  C   UNL     1       5.038  25.405  52.072  1.00  0.00     0.001 A 
HETATM   25  C   UNL     1       4.774  26.637  52.652  1.00  0.00     0.002 A 
HETATM   26  C   UNL     1       5.514  27.054  53.761  1.00  0.00     0.030 A 
BRANCH  22  27
HETATM   27  C   UNL     1       7.630  23.919  54.305  1.00  0.00     0.254 C 
HETATM   28  N   UNL     1       7.639  22.718  53.616  1.00  0.00    -0.352 N 
HETATM   29  H   UNL     1       7.019  22.591  52.818  1.00  0.00     0.163 HD
HETATM   30  O   UNL     1       8.398  24.188  55.227  1.00  0.00    -0.268 OA
BRANCH  28  31
HETATM   31  C   UNL     1       8.571  21.688  53.959  1.00  0.00     0.084 A 
HETATM   32  C   UNL     1       8.085  20.372  54.499  1.00  0.00     0.027 A 
HETATM   33  C   UNL     1       8.717  20.438  53.140  1.00  0.00     0.027 A 
ENDBRANCH  28  31
ENDBRANCH  22  27
ENDBRANCH   2  21
TORSDOF 8
ENDMDL
