MODEL 1
REMARK VINA RESULT:      -9.5      0.000      0.000
REMARK  6 active torsions:
REMARK  status: ('A' for Active; 'I' for Inactive)
REMARK    1  A    between atoms: C_7  and  S_8 
REMARK    2  A    between atoms: S_8  and  C_9 
REMARK    3  A    between atoms: C_9  and  C_10 
REMARK    4  A    between atoms: C_18  and  C_19 
REMARK    5  A    between atoms: C_26  and  C_27 
REMARK    6  A    between atoms: C_27  and  O_28 
ROOT
HETATM    1  C   UNL     1       3.691  29.316  55.376  1.00  0.00     0.070 C 
HETATM    2  C   UNL     1       4.845  28.682  56.113  1.00  0.00     0.037 A 
HETATM    3  N   UNL     1       5.006  27.316  55.911  1.00  0.00    -0.192 N 
HETATM    4  C   UNL     1       5.972  26.589  56.500  1.00  0.00     0.726 A 
HETATM    5  N   UNL     1       6.834  27.194  57.370  1.00  0.00    -0.082 N 
HETATM    6  N   UNL     1       7.712  26.308  57.887  1.00  0.00    -0.128 NA
HETATM    7  C   UNL     1       7.368  25.197  57.219  1.00  0.00     0.226 A 
HETATM    8  N   UNL     1       6.286  25.326  56.385  1.00  0.00    -0.035 NA
HETATM    9  C   UNL     1       6.816  28.633  57.685  1.00  0.00     0.204 A 
HETATM   10  C   UNL     1       5.685  29.340  56.946  1.00  0.00     0.070 A 
HETATM   11  H   UNL     1       4.373  26.854  55.262  1.00  0.00     0.184 HD
ENDROOT
BRANCH   7  12
HETATM   12  S   UNL     1       8.233  23.692  57.345  1.00  0.00    -0.083 SA
BRANCH  12  13
HETATM   13  C   UNL     1       9.211  23.703  55.818  1.00  0.00     0.123 C 
BRANCH  13  14
HETATM   14  C   UNL     1       8.783  22.586  54.891  1.00  0.00    -0.027 A 
HETATM   15  C   UNL     1       8.262  22.819  53.608  1.00  0.00     0.041 A 
HETATM   16 CL   UNL     1       8.090  24.412  52.957  1.00  0.00    -0.084 Cl
HETATM   17  C   UNL     1       7.854  21.752  52.800  1.00  0.00     0.024 A 
HETATM   18  C   UNL     1       7.948  20.440  53.266  1.00  0.00     0.002 A 
HETATM   19  C   UNL     1       8.452  20.194  54.540  1.00  0.00     0.001 A 
HETATM   20  C   UNL     1       8.867  21.256  55.345  1.00  0.00     0.009 A 
ENDBRANCH  13  14
ENDBRANCH  12  13
ENDBRANCH   7  12
BRANCH   9  21
HETATM   21  C   UNL     1       8.188  29.238  57.391  1.00  0.00    -0.006 A 
HETATM   22  C   UNL     1       8.911  29.968  58.350  1.00  0.00     0.042 A 
HETATM   23 CL   UNL     1       8.311  30.259  59.944  1.00  0.00    -0.084 Cl
HETATM   24  C   UNL     1      10.166  30.505  58.040  1.00  0.00     0.024 A 
HETATM   25  C   UNL     1      10.721  30.320  56.776  1.00  0.00     0.002 A 
HETATM   26  C   UNL     1      10.023  29.600  55.814  1.00  0.00     0.001 A 
HETATM   27  C   UNL     1       8.768  29.066  56.114  1.00  0.00     0.011 A 
ENDBRANCH   9  21
BRANCH  10  28
HETATM   28  C   UNL     1       5.581  30.799  57.143  1.00  0.00     0.293 C 
HETATM   29  O   UNL     1       5.709  31.624  56.253  1.00  0.00    -0.259 OA
BRANCH  28  30
HETATM   30  O   UNL     1       5.323  31.056  58.446  1.00  0.00    -0.323 OA
HETATM   31  C   UNL     1       5.602  32.404  58.833  1.00  0.00     0.213 C 
ENDBRANCH  28  30
ENDBRANCH  10  28
TORSDOF 6
ENDMDL
MODEL 2
REMARK VINA RESULT:      -8.8      3.510      8.055
REMARK  6 active torsions:
REMARK  status: ('A' for Active; 'I' for Inactive)
REMARK    1  A    between atoms: C_7  and  S_8 
REMARK    2  A    between atoms: S_8  and  C_9 
REMARK    3  A    between atoms: C_9  and  C_10 
REMARK    4  A    between atoms: C_18  and  C_19 
REMARK    5  A    between atoms: C_26  and  C_27 
REMARK    6  A    between atoms: C_27  and  O_28 
ROOT
HETATM    1  C   UNL     1       3.241  28.452  52.870  1.00  0.00     0.070 C 
HETATM    2  C   UNL     1       4.579  28.233  53.532  1.00  0.00     0.037 A 
HETATM    3  N   UNL     1       4.881  29.099  54.576  1.00  0.00    -0.192 N 
HETATM    4  C   UNL     1       6.034  29.054  55.265  1.00  0.00     0.726 A 
HETATM    5  N   UNL     1       6.990  28.140  54.922  1.00  0.00    -0.082 N 
HETATM    6  N   UNL     1       8.088  28.262  55.698  1.00  0.00    -0.128 NA
HETATM    7  C   UNL     1       7.691  29.223  56.544  1.00  0.00     0.226 A 
HETATM    8  N   UNL     1       6.450  29.753  56.288  1.00  0.00    -0.035 NA
HETATM    9  C   UNL     1       6.829  27.138  53.854  1.00  0.00     0.204 A 
HETATM   10  C   UNL     1       5.478  27.289  53.162  1.00  0.00     0.070 A 
HETATM   11  H   UNL     1       4.176  29.781  54.845  1.00  0.00     0.184 HD
ENDROOT
BRANCH   7  12
HETATM   12  S   UNL     1       8.635  29.759  57.903  1.00  0.00    -0.083 SA
BRANCH  12  13
HETATM   13  C   UNL     1       7.655  31.164  58.498  1.00  0.00     0.123 C 
BRANCH  13  14
HETATM   14  C   UNL     1       7.861  31.381  59.982  1.00  0.00    -0.027 A 
HETATM   15  C   UNL     1       6.971  32.124  60.774  1.00  0.00     0.041 A 
HETATM   16 CL   UNL     1       5.536  32.838  60.127  1.00  0.00    -0.084 Cl
HETATM   17  C   UNL     1       7.223  32.318  62.137  1.00  0.00     0.024 A 
HETATM   18  C   UNL     1       8.369  31.785  62.725  1.00  0.00     0.002 A 
HETATM   19  C   UNL     1       9.267  31.055  61.951  1.00  0.00     0.001 A 
HETATM   20  C   UNL     1       9.015  30.853  60.592  1.00  0.00     0.009 A 
ENDBRANCH  13  14
ENDBRANCH  12  13
ENDBRANCH   7  12
BRANCH   9  21
HETATM   21  C   UNL     1       7.049  25.739  54.428  1.00  0.00    -0.006 A 
HETATM   22  C   UNL     1       7.717  24.728  53.714  1.00  0.00     0.042 A 
HETATM   23 CL   UNL     1       8.339  24.971  52.120  1.00  0.00    -0.084 Cl
HETATM   24  C   UNL     1       7.899  23.460  54.276  1.00  0.00     0.024 A 
HETATM   25  C   UNL     1       7.425  23.179  55.556  1.00  0.00     0.002 A 
HETATM   26  C   UNL     1       6.763  24.165  56.279  1.00  0.00     0.001 A 
HETATM   27  C   UNL     1       6.573  25.431  55.722  1.00  0.00     0.011 A 
ENDBRANCH   9  21
BRANCH  10  28
HETATM   28  C   UNL     1       5.172  26.316  52.096  1.00  0.00     0.293 C 
HETATM   29  O   UNL     1       4.573  25.267  52.273  1.00  0.00    -0.259 OA
BRANCH  28  30
HETATM   30  O   UNL     1       5.655  26.777  50.919  1.00  0.00    -0.323 OA
HETATM   31  C   UNL     1       4.749  26.618  49.824  1.00  0.00     0.213 C 
ENDBRANCH  28  30
ENDBRANCH  10  28
TORSDOF 6
ENDMDL
MODEL 3
REMARK VINA RESULT:      -8.5      5.427      7.669
REMARK  6 active torsions:
REMARK  status: ('A' for Active; 'I' for Inactive)
REMARK    1  A    between atoms: C_7  and  S_8 
REMARK    2  A    between atoms: S_8  and  C_9 
REMARK    3  A    between atoms: C_9  and  C_10 
REMARK    4  A    between atoms: C_18  and  C_19 
REMARK    5  A    between atoms: C_26  and  C_27 
REMARK    6  A    between atoms: C_27  and  O_28 
ROOT
HETATM    1  C   UNL     1       4.438  32.302  51.740  1.00  0.00     0.070 C 
HETATM    2  C   UNL     1       4.611  30.844  51.391  1.00  0.00     0.037 A 
HETATM    3  N   UNL     1       4.759  29.983  52.470  1.00  0.00    -0.192 N 
HETATM    4  C   UNL     1       4.938  28.656  52.341  1.00  0.00     0.726 A 
HETATM    5  N   UNL     1       5.011  28.105  51.093  1.00  0.00    -0.082 N 
HETATM    6  N   UNL     1       5.224  26.773  51.156  1.00  0.00    -0.128 NA
HETATM    7  C   UNL     1       5.188  26.577  52.481  1.00  0.00     0.226 A 
HETATM    8  N   UNL     1       5.046  27.713  53.239  1.00  0.00    -0.035 NA
HETATM    9  C   UNL     1       4.858  28.868  49.842  1.00  0.00     0.204 A 
HETATM   10  C   UNL     1       4.651  30.352  50.129  1.00  0.00     0.070 A 
HETATM   11  H   UNL     1       4.702  30.379  53.406  1.00  0.00     0.184 HD
ENDROOT
BRANCH   7  12
HETATM   12  S   UNL     1       5.273  25.005  53.224  1.00  0.00    -0.083 SA
BRANCH  12  13
HETATM   13  C   UNL     1       7.064  24.775  53.391  1.00  0.00     0.123 C 
BRANCH  13  14
HETATM   14  C   UNL     1       7.390  23.374  53.859  1.00  0.00    -0.027 A 
HETATM   15  C   UNL     1       7.429  23.015  55.217  1.00  0.00     0.041 A 
HETATM   16 CL   UNL     1       7.078  24.141  56.480  1.00  0.00    -0.084 Cl
HETATM   17  C   UNL     1       7.764  21.711  55.599  1.00  0.00     0.024 A 
HETATM   18  C   UNL     1       8.076  20.752  54.635  1.00  0.00     0.002 A 
HETATM   19  C   UNL     1       8.052  21.096  53.286  1.00  0.00     0.001 A 
HETATM   20  C   UNL     1       7.711  22.394  52.901  1.00  0.00     0.009 A 
ENDBRANCH  13  14
ENDBRANCH  12  13
ENDBRANCH   7  12
BRANCH   9  21
HETATM   21  C   UNL     1       3.730  28.262  49.008  1.00  0.00    -0.006 A 
HETATM   22  C   UNL     1       3.968  27.583  47.800  1.00  0.00     0.042 A 
HETATM   23 CL   UNL     1       5.553  27.384  47.141  1.00  0.00    -0.084 Cl
HETATM   24  C   UNL     1       2.907  27.041  47.066  1.00  0.00     0.024 A 
HETATM   25  C   UNL     1       1.596  27.161  47.524  1.00  0.00     0.002 A 
HETATM   26  C   UNL     1       1.340  27.826  48.717  1.00  0.00     0.001 A 
HETATM   27  C   UNL     1       2.394  28.374  49.452  1.00  0.00     0.011 A 
ENDBRANCH   9  21
BRANCH  10  28
HETATM   28  C   UNL     1       4.441  31.226  48.959  1.00  0.00     0.293 C 
HETATM   29  O   UNL     1       3.347  31.583  48.554  1.00  0.00    -0.259 OA
BRANCH  28  30
HETATM   30  O   UNL     1       5.642  31.557  48.429  1.00  0.00    -0.323 OA
HETATM   31  C   UNL     1       5.823  32.964  48.250  1.00  0.00     0.213 C 
ENDBRANCH  28  30
ENDBRANCH  10  28
TORSDOF 6
ENDMDL
MODEL 4
REMARK VINA RESULT:      -8.3      5.729      7.178
REMARK  6 active torsions:
REMARK  status: ('A' for Active; 'I' for Inactive)
REMARK    1  A    between atoms: C_7  and  S_8 
REMARK    2  A    between atoms: S_8  and  C_9 
REMARK    3  A    between atoms: C_9  and  C_10 
REMARK    4  A    between atoms: C_18  and  C_19 
REMARK    5  A    between atoms: C_26  and  C_27 
REMARK    6  A    between atoms: C_27  and  O_28 
ROOT
HETATM    1  C   UNL     1       3.002  26.120  47.526  1.00  0.00     0.070 C 
HETATM    2  C   UNL     1       3.545  26.783  48.769  1.00  0.00     0.037 A 
HETATM    3  N   UNL     1       4.440  26.022  49.511  1.00  0.00    -0.192 N 
HETATM    4  C   UNL     1       5.007  26.451  50.652  1.00  0.00     0.726 A 
HETATM    5  N   UNL     1       4.681  27.683  51.146  1.00  0.00    -0.082 N 
HETATM    6  N   UNL     1       5.319  27.930  52.310  1.00  0.00    -0.128 NA
HETATM    7  C   UNL     1       6.079  26.831  52.417  1.00  0.00     0.226 A 
HETATM    8  N   UNL     1       5.890  25.890  51.435  1.00  0.00    -0.035 NA
HETATM    9  C   UNL     1       3.764  28.623  50.479  1.00  0.00     0.204 A 
HETATM   10  C   UNL     1       3.201  28.022  49.195  1.00  0.00     0.070 A 
HETATM   11  H   UNL     1       4.695  25.105  49.153  1.00  0.00     0.184 HD
ENDROOT
BRANCH   7  12
HETATM   12  S   UNL     1       7.259  26.596  53.674  1.00  0.00    -0.083 SA
BRANCH  12  13
HETATM   13  C   UNL     1       6.557  25.190  54.577  1.00  0.00     0.123 C 
BRANCH  13  14
HETATM   14  C   UNL     1       7.408  23.951  54.400  1.00  0.00    -0.027 A 
HETATM   15  C   UNL     1       8.398  23.569  55.321  1.00  0.00     0.041 A 
HETATM   16 CL   UNL     1       8.715  24.469  56.762  1.00  0.00    -0.084 Cl
HETATM   17  C   UNL     1       9.177  22.429  55.095  1.00  0.00     0.024 A 
HETATM   18  C   UNL     1       8.989  21.662  53.945  1.00  0.00     0.002 A 
HETATM   19  C   UNL     1       8.020  22.034  53.018  1.00  0.00     0.001 A 
HETATM   20  C   UNL     1       7.235  23.167  53.243  1.00  0.00     0.009 A 
ENDBRANCH  13  14
ENDBRANCH  12  13
ENDBRANCH   7  12
BRANCH   9  21
HETATM   21  C   UNL     1       4.477  29.955  50.247  1.00  0.00    -0.006 A 
HETATM   22  C   UNL     1       3.998  31.168  50.774  1.00  0.00     0.042 A 
HETATM   23 CL   UNL     1       2.556  31.266  51.720  1.00  0.00    -0.084 Cl
HETATM   24  C   UNL     1       4.682  32.366  50.540  1.00  0.00     0.024 A 
HETATM   25  C   UNL     1       5.853  32.376  49.784  1.00  0.00     0.002 A 
HETATM   26  C   UNL     1       6.343  31.187  49.255  1.00  0.00     0.001 A 
HETATM   27  C   UNL     1       5.663  29.989  49.481  1.00  0.00     0.011 A 
ENDBRANCH   9  21
BRANCH  10  28
HETATM   28  C   UNL     1       2.298  28.881  48.407  1.00  0.00     0.293 C 
HETATM   29  O   UNL     1       1.180  29.217  48.765  1.00  0.00    -0.259 OA
BRANCH  28  30
HETATM   30  O   UNL     1       2.908  29.226  47.249  1.00  0.00    -0.323 OA
HETATM   31  C   UNL     1       2.920  30.634  47.003  1.00  0.00     0.213 C 
ENDBRANCH  28  30
ENDBRANCH  10  28
TORSDOF 6
ENDMDL
MODEL 5
REMARK VINA RESULT:      -8.0      3.422      7.979
REMARK  6 active torsions:
REMARK  status: ('A' for Active; 'I' for Inactive)
REMARK    1  A    between atoms: C_7  and  S_8 
REMARK    2  A    between atoms: S_8  and  C_9 
REMARK    3  A    between atoms: C_9  and  C_10 
REMARK    4  A    between atoms: C_18  and  C_19 
REMARK    5  A    between atoms: C_26  and  C_27 
REMARK    6  A    between atoms: C_27  and  O_28 
ROOT
HETATM    1  C   UNL     1       4.946  25.228  57.163  1.00  0.00     0.070 C 
HETATM    2  C   UNL     1       5.310  26.634  56.755  1.00  0.00     0.037 A 
HETATM    3  N   UNL     1       4.246  27.523  56.655  1.00  0.00    -0.192 N 
HETATM    4  C   UNL     1       4.388  28.809  56.290  1.00  0.00     0.726 A 
HETATM    5  N   UNL     1       5.627  29.286  55.966  1.00  0.00    -0.082 N 
HETATM    6  N   UNL     1       5.573  30.583  55.596  1.00  0.00    -0.128 NA
HETATM    7  C   UNL     1       4.274  30.846  55.798  1.00  0.00     0.226 A 
HETATM    8  N   UNL     1       3.512  29.775  56.193  1.00  0.00    -0.035 NA
HETATM    9  C   UNL     1       6.862  28.487  56.034  1.00  0.00     0.204 A 
HETATM   10  C   UNL     1       6.565  27.055  56.470  1.00  0.00     0.070 A 
HETATM   11  H   UNL     1       3.319  27.182  56.898  1.00  0.00     0.184 HD
ENDROOT
BRANCH   7  12
HETATM   12  S   UNL     1       3.575  32.430  55.620  1.00  0.00    -0.083 SA
BRANCH  12  13
HETATM   13  C   UNL     1       4.856  33.481  56.357  1.00  0.00     0.123 C 
BRANCH  13  14
HETATM   14  C   UNL     1       4.776  33.456  57.868  1.00  0.00    -0.027 A 
HETATM   15  C   UNL     1       3.841  34.214  58.593  1.00  0.00     0.041 A 
HETATM   16 CL   UNL     1       2.674  35.227  57.818  1.00  0.00    -0.084 Cl
HETATM   17  C   UNL     1       3.828  34.178  59.992  1.00  0.00     0.024 A 
HETATM   18  C   UNL     1       4.751  33.395  60.686  1.00  0.00     0.002 A 
HETATM   19  C   UNL     1       5.690  32.647  59.982  1.00  0.00     0.001 A 
HETATM   20  C   UNL     1       5.702  32.675  58.586  1.00  0.00     0.009 A 
ENDBRANCH  13  14
ENDBRANCH  12  13
ENDBRANCH   7  12
BRANCH   9  21
HETATM   21  C   UNL     1       7.874  29.186  56.941  1.00  0.00    -0.006 A 
HETATM   22  C   UNL     1       9.156  29.555  56.496  1.00  0.00     0.042 A 
HETATM   23 CL   UNL     1       9.709  29.242  54.889  1.00  0.00    -0.084 Cl
HETATM   24  C   UNL     1      10.053  30.195  57.358  1.00  0.00     0.024 A 
HETATM   25  C   UNL     1       9.688  30.481  58.672  1.00  0.00     0.002 A 
HETATM   26  C   UNL     1       8.425  30.126  59.131  1.00  0.00     0.001 A 
HETATM   27  C   UNL     1       7.527  29.482  58.277  1.00  0.00     0.011 A 
ENDBRANCH   9  21
BRANCH  10  28
HETATM   28  C   UNL     1       7.727  26.158  56.618  1.00  0.00     0.293 C 
HETATM   29  O   UNL     1       8.429  26.100  57.614  1.00  0.00    -0.259 OA
BRANCH  28  30
HETATM   30  O   UNL     1       7.872  25.426  55.488  1.00  0.00    -0.323 OA
HETATM   31  C   UNL     1       8.344  24.097  55.721  1.00  0.00     0.213 C 
ENDBRANCH  28  30
ENDBRANCH  10  28
TORSDOF 6
ENDMDL
MODEL 6
REMARK VINA RESULT:      -7.7      4.189      6.184
REMARK  6 active torsions:
REMARK  status: ('A' for Active; 'I' for Inactive)
REMARK    1  A    between atoms: C_7  and  S_8 
REMARK    2  A    between atoms: S_8  and  C_9 
REMARK    3  A    between atoms: C_9  and  C_10 
REMARK    4  A    between atoms: C_18  and  C_19 
REMARK    5  A    between atoms: C_26  and  C_27 
REMARK    6  A    between atoms: C_27  and  O_28 
ROOT
HETATM    1  C   UNL     1       3.339  31.144  55.452  1.00  0.00     0.070 C 
HETATM    2  C   UNL     1       3.877  30.257  54.357  1.00  0.00     0.037 A 
HETATM    3  N   UNL     1       4.164  28.950  54.732  1.00  0.00    -0.192 N 
HETATM    4  C   UNL     1       4.664  28.030  53.888  1.00  0.00     0.726 A 
HETATM    5  N   UNL     1       4.943  28.382  52.597  1.00  0.00    -0.082 N 
HETATM    6  N   UNL     1       5.466  27.345  51.908  1.00  0.00    -0.128 NA
HETATM    7  C   UNL     1       5.398  26.373  52.829  1.00  0.00     0.226 A 
HETATM    8  N   UNL     1       4.941  26.766  54.063  1.00  0.00    -0.035 NA
HETATM    9  C   UNL     1       4.686  29.717  52.030  1.00  0.00     0.204 A 
HETATM   10  C   UNL     1       4.111  30.657  53.084  1.00  0.00     0.070 A 
HETATM   11  H   UNL     1       3.956  28.674  55.688  1.00  0.00     0.184 HD
ENDROOT
BRANCH   7  12
HETATM   12  S   UNL     1       5.814  24.714  52.510  1.00  0.00    -0.083 SA
BRANCH  12  13
HETATM   13  C   UNL     1       7.380  24.549  53.409  1.00  0.00     0.123 C 
BRANCH  13  14
HETATM   14  C   UNL     1       7.587  23.127  53.882  1.00  0.00    -0.027 A 
HETATM   15  C   UNL     1       7.586  22.768  55.240  1.00  0.00     0.041 A 
HETATM   16 CL   UNL     1       7.318  23.921  56.500  1.00  0.00    -0.084 Cl
HETATM   17  C   UNL     1       7.812  21.441  55.626  1.00  0.00     0.024 A 
HETATM   18  C   UNL     1       8.052  20.459  54.665  1.00  0.00     0.002 A 
HETATM   19  C   UNL     1       8.067  20.801  53.316  1.00  0.00     0.001 A 
HETATM   20  C   UNL     1       7.836  22.122  52.927  1.00  0.00     0.009 A 
ENDBRANCH  13  14
ENDBRANCH  12  13
ENDBRANCH   7  12
BRANCH   9  21
HETATM   21  C   UNL     1       3.790  29.586  50.799  1.00  0.00    -0.006 A 
HETATM   22  C   UNL     1       4.217  29.961  49.513  1.00  0.00     0.042 A 
HETATM   23 CL   UNL     1       5.787  30.615  49.208  1.00  0.00    -0.084 Cl
HETATM   24  C   UNL     1       3.366  29.823  48.411  1.00  0.00     0.024 A 
HETATM   25  C   UNL     1       2.081  29.308  48.570  1.00  0.00     0.002 A 
HETATM   26  C   UNL     1       1.640  28.929  49.833  1.00  0.00     0.001 A 
HETATM   27  C   UNL     1       2.483  29.069  50.938  1.00  0.00     0.011 A 
ENDBRANCH   9  21
BRANCH  10  28
HETATM   28  C   UNL     1       3.768  32.019  52.634  1.00  0.00     0.293 C 
HETATM   29  O   UNL     1       4.589  32.874  52.341  1.00  0.00    -0.259 OA
BRANCH  28  30
HETATM   30  O   UNL     1       2.422  32.153  52.600  1.00  0.00    -0.323 OA
HETATM   31  C   UNL     1       1.982  33.501  52.416  1.00  0.00     0.213 C 
ENDBRANCH  28  30
ENDBRANCH  10  28
TORSDOF 6
ENDMDL
MODEL 7
REMARK VINA RESULT:      -7.6      5.142      9.735
REMARK  6 active torsions:
REMARK  status: ('A' for Active; 'I' for Inactive)
REMARK    1  A    between atoms: C_7  and  S_8 
REMARK    2  A    between atoms: S_8  and  C_9 
REMARK    3  A    between atoms: C_9  and  C_10 
REMARK    4  A    between atoms: C_18  and  C_19 
REMARK    5  A    between atoms: C_26  and  C_27 
REMARK    6  A    between atoms: C_27  and  O_28 
ROOT
HETATM    1  C   UNL     1       5.154  28.007  56.987  1.00  0.00     0.070 C 
HETATM    2  C   UNL     1       5.441  29.432  57.389  1.00  0.00     0.037 A 
HETATM    3  N   UNL     1       4.344  30.283  57.404  1.00  0.00    -0.192 N 
HETATM    4  C   UNL     1       4.421  31.587  57.724  1.00  0.00     0.726 A 
HETATM    5  N   UNL     1       5.636  32.136  58.024  1.00  0.00    -0.082 N 
HETATM    6  N   UNL     1       5.528  33.456  58.287  1.00  0.00    -0.128 NA
HETATM    7  C   UNL     1       4.200  33.618  58.205  1.00  0.00     0.226 A 
HETATM    8  N   UNL     1       3.494  32.501  57.831  1.00  0.00    -0.035 NA
HETATM    9  C   UNL     1       6.897  31.376  58.070  1.00  0.00     0.204 A 
HETATM   10  C   UNL     1       6.669  29.914  57.700  1.00  0.00     0.070 A 
HETATM   11  H   UNL     1       3.432  29.887  57.188  1.00  0.00     0.184 HD
ENDROOT
BRANCH   7  12
HETATM   12  S   UNL     1       3.388  35.112  58.576  1.00  0.00    -0.083 SA
BRANCH  12  13
HETATM   13  C   UNL     1       2.901  34.844  60.303  1.00  0.00     0.123 C 
BRANCH  13  14
HETATM   14  C   UNL     1       3.939  35.403  61.252  1.00  0.00    -0.027 A 
HETATM   15  C   UNL     1       4.048  36.773  61.540  1.00  0.00     0.041 A 
HETATM   16 CL   UNL     1       2.983  37.949  60.854  1.00  0.00    -0.084 Cl
HETATM   17  C   UNL     1       5.045  37.242  62.404  1.00  0.00     0.024 A 
HETATM   18  C   UNL     1       5.951  36.353  62.982  1.00  0.00     0.002 A 
HETATM   19  C   UNL     1       5.862  34.993  62.698  1.00  0.00     0.001 A 
HETATM   20  C   UNL     1       4.865  34.522  61.842  1.00  0.00     0.009 A 
ENDBRANCH  13  14
ENDBRANCH  12  13
ENDBRANCH   7  12
BRANCH   9  21
HETATM   21  C   UNL     1       7.546  31.546  59.443  1.00  0.00    -0.006 A 
HETATM   22  C   UNL     1       8.930  31.732  59.605  1.00  0.00     0.042 A 
HETATM   23 CL   UNL     1      10.025  31.773  58.269  1.00  0.00    -0.084 Cl
HETATM   24  C   UNL     1       9.485  31.886  60.881  1.00  0.00     0.024 A 
HETATM   25  C   UNL     1       8.672  31.861  62.012  1.00  0.00     0.002 A 
HETATM   26  C   UNL     1       7.301  31.680  61.874  1.00  0.00     0.001 A 
HETATM   27  C   UNL     1       6.742  31.521  60.605  1.00  0.00     0.011 A 
ENDBRANCH   9  21
BRANCH  10  28
HETATM   28  C   UNL     1       7.849  29.030  57.749  1.00  0.00     0.293 C 
HETATM   29  O   UNL     1       7.979  28.098  58.526  1.00  0.00    -0.259 OA
BRANCH  28  30
HETATM   30  O   UNL     1       8.737  29.420  56.805  1.00  0.00    -0.323 OA
HETATM   31  C   UNL     1       8.464  28.891  55.505  1.00  0.00     0.213 C 
ENDBRANCH  28  30
ENDBRANCH  10  28
TORSDOF 6
ENDMDL
MODEL 8
REMARK VINA RESULT:      -7.5      5.601      7.747
REMARK  6 active torsions:
REMARK  status: ('A' for Active; 'I' for Inactive)
REMARK    1  A    between atoms: C_7  and  S_8 
REMARK    2  A    between atoms: S_8  and  C_9 
REMARK    3  A    between atoms: C_9  and  C_10 
REMARK    4  A    between atoms: C_18  and  C_19 
REMARK    5  A    between atoms: C_26  and  C_27 
REMARK    6  A    between atoms: C_27  and  O_28 
ROOT
HETATM    1  C   UNL     1       4.480  32.238  51.412  1.00  0.00     0.070 C 
HETATM    2  C   UNL     1       4.603  30.761  51.126  1.00  0.00     0.037 A 
HETATM    3  N   UNL     1       4.752  29.945  52.240  1.00  0.00    -0.192 N 
HETATM    4  C   UNL     1       4.890  28.610  52.167  1.00  0.00     0.726 A 
HETATM    5  N   UNL     1       4.921  28.001  50.944  1.00  0.00    -0.082 N 
HETATM    6  N   UNL     1       5.097  26.668  51.064  1.00  0.00    -0.128 NA
HETATM    7  C   UNL     1       5.085  26.533  52.397  1.00  0.00     0.226 A 
HETATM    8  N   UNL     1       4.992  27.705  53.105  1.00  0.00    -0.035 NA
HETATM    9  C   UNL     1       4.761  28.712  49.664  1.00  0.00     0.204 A 
HETATM   10  C   UNL     1       4.602  30.212  49.887  1.00  0.00     0.070 A 
HETATM   11  H   UNL     1       4.726  30.385  53.157  1.00  0.00     0.184 HD
ENDROOT
BRANCH   7  12
HETATM   12  S   UNL     1       5.142  24.994  53.209  1.00  0.00    -0.083 SA
BRANCH  12  13
HETATM   13  C   UNL     1       6.876  24.519  52.971  1.00  0.00     0.123 C 
BRANCH  13  14
HETATM   14  C   UNL     1       7.456  23.928  54.237  1.00  0.00    -0.027 A 
HETATM   15  C   UNL     1       7.884  22.593  54.329  1.00  0.00     0.041 A 
HETATM   16 CL   UNL     1       7.812  21.507  52.986  1.00  0.00    -0.084 Cl
HETATM   17  C   UNL     1       8.386  22.088  55.533  1.00  0.00     0.024 A 
HETATM   18  C   UNL     1       8.459  22.902  56.663  1.00  0.00     0.002 A 
HETATM   19  C   UNL     1       8.029  24.224  56.592  1.00  0.00     0.001 A 
HETATM   20  C   UNL     1       7.533  24.733  55.390  1.00  0.00     0.009 A 
ENDBRANCH  13  14
ENDBRANCH  12  13
ENDBRANCH   7  12
BRANCH   9  21
HETATM   21  C   UNL     1       3.599  28.101  48.882  1.00  0.00    -0.006 A 
HETATM   22  C   UNL     1       2.261  28.241  49.289  1.00  0.00     0.042 A 
HETATM   23 CL   UNL     1       1.808  29.105  50.716  1.00  0.00    -0.084 Cl
HETATM   24  C   UNL     1       1.225  27.667  48.543  1.00  0.00     0.024 A 
HETATM   25  C   UNL     1       1.503  26.951  47.381  1.00  0.00     0.002 A 
HETATM   26  C   UNL     1       2.820  26.803  46.960  1.00  0.00     0.001 A 
HETATM   27  C   UNL     1       3.859  27.368  47.703  1.00  0.00     0.011 A 
ENDBRANCH   9  21
BRANCH  10  28
HETATM   28  C   UNL     1       4.391  31.038  48.683  1.00  0.00     0.293 C 
HETATM   29  O   UNL     1       5.276  31.362  47.907  1.00  0.00    -0.259 OA
BRANCH  28  30
HETATM   30  O   UNL     1       3.081  31.363  48.588  1.00  0.00    -0.323 OA
HETATM   31  C   UNL     1       2.851  32.710  48.169  1.00  0.00     0.213 C 
ENDBRANCH  28  30
ENDBRANCH  10  28
TORSDOF 6
ENDMDL
MODEL 9
REMARK VINA RESULT:      -7.1      3.520      5.463
REMARK  6 active torsions:
REMARK  status: ('A' for Active; 'I' for Inactive)
REMARK    1  A    between atoms: C_7  and  S_8 
REMARK    2  A    between atoms: S_8  and  C_9 
REMARK    3  A    between atoms: C_9  and  C_10 
REMARK    4  A    between atoms: C_18  and  C_19 
REMARK    5  A    between atoms: C_26  and  C_27 
REMARK    6  A    between atoms: C_27  and  O_28 
ROOT
HETATM    1  C   UNL     1       3.417  31.641  59.972  1.00  0.00     0.070 C 
HETATM    2  C   UNL     1       3.809  31.425  58.531  1.00  0.00     0.037 A 
HETATM    3  N   UNL     1       3.997  30.101  58.154  1.00  0.00    -0.192 N 
HETATM    4  C   UNL     1       4.362  29.729  56.914  1.00  0.00     0.726 A 
HETATM    5  N   UNL     1       4.596  30.684  55.965  1.00  0.00    -0.082 N 
HETATM    6  N   UNL     1       4.981  30.130  54.796  1.00  0.00    -0.128 NA
HETATM    7  C   UNL     1       4.880  28.827  55.091  1.00  0.00     0.226 A 
HETATM    8  N   UNL     1       4.534  28.545  56.389  1.00  0.00    -0.035 NA
HETATM    9  C   UNL     1       4.428  32.130  56.190  1.00  0.00     0.204 A 
HETATM   10  C   UNL     1       4.003  32.415  57.627  1.00  0.00     0.070 A 
HETATM   11  H   UNL     1       3.822  29.380  58.849  1.00  0.00     0.184 HD
ENDROOT
BRANCH   7  12
HETATM   12  S   UNL     1       5.124  27.555  53.928  1.00  0.00    -0.083 SA
BRANCH  12  13
HETATM   13  C   UNL     1       6.869  27.141  54.200  1.00  0.00     0.123 C 
BRANCH  13  14
HETATM   14  C   UNL     1       7.126  25.673  53.939  1.00  0.00    -0.027 A 
HETATM   15  C   UNL     1       6.902  24.678  54.905  1.00  0.00     0.041 A 
HETATM   16 CL   UNL     1       6.282  25.040  56.477  1.00  0.00    -0.084 Cl
HETATM   17  C   UNL     1       7.182  23.336  54.622  1.00  0.00     0.024 A 
HETATM   18  C   UNL     1       7.700  22.971  53.380  1.00  0.00     0.002 A 
HETATM   19  C   UNL     1       7.938  23.947  52.416  1.00  0.00     0.001 A 
HETATM   20  C   UNL     1       7.652  25.285  52.692  1.00  0.00     0.009 A 
ENDBRANCH  13  14
ENDBRANCH  12  13
ENDBRANCH   7  12
BRANCH   9  21
HETATM   21  C   UNL     1       3.454  32.698  55.159  1.00  0.00    -0.006 A 
HETATM   22  C   UNL     1       3.864  33.570  54.135  1.00  0.00     0.042 A 
HETATM   23 CL   UNL     1       5.502  34.088  53.955  1.00  0.00    -0.084 Cl
HETATM   24  C   UNL     1       2.939  34.067  53.209  1.00  0.00     0.024 A 
HETATM   25  C   UNL     1       1.597  33.702  53.285  1.00  0.00     0.002 A 
HETATM   26  C   UNL     1       1.171  32.840  54.289  1.00  0.00     0.001 A 
HETATM   27  C   UNL     1       2.087  32.344  55.219  1.00  0.00     0.011 A 
ENDBRANCH   9  21
BRANCH  10  28
HETATM   28  C   UNL     1       3.759  33.828  57.973  1.00  0.00     0.293 C 
HETATM   29  O   UNL     1       2.691  34.265  58.369  1.00  0.00    -0.259 OA
BRANCH  28  30
HETATM   30  O   UNL     1       4.897  34.536  57.785  1.00  0.00    -0.323 OA
HETATM   31  C   UNL     1       4.689  35.801  57.154  1.00  0.00     0.213 C 
ENDBRANCH  28  30
ENDBRANCH  10  28
TORSDOF 6
ENDMDL
MODEL 10
REMARK VINA RESULT:      -6.8      6.939      8.962
REMARK  6 active torsions:
REMARK  status: ('A' for Active; 'I' for Inactive)
REMARK    1  A    between atoms: C_7  and  S_8 
REMARK    2  A    between atoms: S_8  and  C_9 
REMARK    3  A    between atoms: C_9  and  C_10 
REMARK    4  A    between atoms: C_18  and  C_19 
REMARK    5  A    between atoms: C_26  and  C_27 
REMARK    6  A    between atoms: C_27  and  O_28 
ROOT
HETATM    1  C   UNL     1       6.274  33.686  49.201  1.00  0.00     0.070 C 
HETATM    2  C   UNL     1       5.756  32.270  49.156  1.00  0.00     0.037 A 
HETATM    3  N   UNL     1       6.031  31.495  50.276  1.00  0.00    -0.192 N 
HETATM    4  C   UNL     1       5.657  30.209  50.397  1.00  0.00     0.726 A 
HETATM    5  N   UNL     1       4.997  29.599  49.368  1.00  0.00    -0.082 N 
HETATM    6  N   UNL     1       4.731  28.307  49.652  1.00  0.00    -0.128 NA
HETATM    7  C   UNL     1       5.190  28.228  50.909  1.00  0.00     0.226 A 
HETATM    8  N   UNL     1       5.792  29.366  51.386  1.00  0.00    -0.035 NA
HETATM    9  C   UNL     1       4.612  30.277  48.118  1.00  0.00     0.204 A 
HETATM   10  C   UNL     1       5.084  31.727  48.113  1.00  0.00     0.070 A 
HETATM   11  H   UNL     1       6.517  31.938  51.052  1.00  0.00     0.184 HD
ENDROOT
BRANCH   7  12
HETATM   12  S   UNL     1       5.019  26.814  51.909  1.00  0.00    -0.083 SA
BRANCH  12  13
HETATM   13  C   UNL     1       6.603  26.797  52.793  1.00  0.00     0.123 C 
BRANCH  13  14
HETATM   14  C   UNL     1       6.955  25.397  53.247  1.00  0.00    -0.027 A 
HETATM   15  C   UNL     1       6.582  24.886  54.501  1.00  0.00     0.041 A 
HETATM   16 CL   UNL     1       5.656  25.807  55.634  1.00  0.00    -0.084 Cl
HETATM   17  C   UNL     1       6.959  23.594  54.884  1.00  0.00     0.024 A 
HETATM   18  C   UNL     1       7.721  22.799  54.028  1.00  0.00     0.002 A 
HETATM   19  C   UNL     1       8.107  23.294  52.786  1.00  0.00     0.001 A 
HETATM   20  C   UNL     1       7.728  24.581  52.398  1.00  0.00     0.009 A 
ENDBRANCH  13  14
ENDBRANCH  12  13
ENDBRANCH   7  12
BRANCH   9  21
HETATM   21  C   UNL     1       3.104  30.142  47.907  1.00  0.00    -0.006 A 
HETATM   22  C   UNL     1       2.167  30.738  48.769  1.00  0.00     0.042 A 
HETATM   23 CL   UNL     1       2.632  31.667  50.151  1.00  0.00    -0.084 Cl
HETATM   24  C   UNL     1       0.794  30.592  48.541  1.00  0.00     0.024 A 
HETATM   25  C   UNL     1       0.333  29.856  47.451  1.00  0.00     0.002 A 
HETATM   26  C   UNL     1       1.244  29.260  46.586  1.00  0.00     0.001 A 
HETATM   27  C   UNL     1       2.615  29.398  46.811  1.00  0.00     0.011 A 
ENDBRANCH   9  21
BRANCH  10  28
HETATM   28  C   UNL     1       4.724  32.532  46.930  1.00  0.00     0.293 C 
HETATM   29  O   UNL     1       3.784  33.309  46.887  1.00  0.00    -0.259 OA
BRANCH  28  30
HETATM   30  O   UNL     1       5.597  32.270  45.930  1.00  0.00    -0.323 OA
HETATM   31  C   UNL     1       6.106  33.442  45.289  1.00  0.00     0.213 C 
ENDBRANCH  28  30
ENDBRANCH  10  28
TORSDOF 6
ENDMDL
