MODEL 1
REMARK VINA RESULT:      -8.1      0.000      0.000
REMARK  1 active torsions:
REMARK  status: ('A' for Active; 'I' for Inactive)
REMARK    1  A    between atoms: C_8  and  C_9 
ROOT
HETATM    1  C   UNL     1       8.010  32.979  63.854  1.00  0.00     0.073 C 
HETATM    2  C   UNL     1       7.637  32.556  62.476  1.00  0.00     0.062 A 
HETATM    3  N   UNL     1       8.582  32.061  61.674  1.00  0.00    -0.178 NA
HETATM    4  N   UNL     1       7.918  31.730  60.566  1.00  0.00    -0.262 N 
HETATM    5  H   UNL     1       8.440  31.300  59.813  1.00  0.00     0.191 HD
HETATM    6  C   UNL     1       6.580  32.035  60.591  1.00  0.00     0.134 A 
HETATM    7  C   UNL     1       6.344  32.597  61.836  1.00  0.00     0.032 A 
HETATM    8  C   UNL     1       5.080  33.029  62.520  1.00  0.00     0.120 C 
HETATM    9  S   UNL     1       3.513  32.595  61.726  1.00  0.00    -0.141 SA
HETATM   10  C   UNL     1       3.745  33.056  59.988  1.00  0.00     0.136 C 
HETATM   11  C   UNL     1       4.233  34.460  59.675  1.00  0.00     0.031 C 
HETATM   12  C   UNL     1       4.524  32.008  59.216  1.00  0.00     0.236 C 
HETATM   13  O   UNL     1       4.026  31.473  58.217  1.00  0.00    -0.272 OA
HETATM   14  N   UNL     1       5.819  31.702  59.495  1.00  0.00    -0.311 N 
HETATM   15  H   UNL     1       6.219  31.095  58.787  1.00  0.00     0.170 HD
ENDROOT
BRANCH   8  16
HETATM   16  C   UNL     1       5.166  34.486  63.001  1.00  0.00    -0.029 A 
HETATM   17  C   UNL     1       4.848  34.824  64.365  1.00  0.00    -0.018 A 
HETATM   18  C   UNL     1       4.958  36.178  64.783  1.00  0.00    -0.025 A 
HETATM   19  C   UNL     1       4.434  33.893  65.352  1.00  0.00     0.013 A 
HETATM   20  C   UNL     1       4.669  36.545  66.109  1.00  0.00     0.012 A 
HETATM   21  C   UNL     1       5.358  37.166  63.879  1.00  0.00     0.012 A 
HETATM   22  C   UNL     1       4.270  35.598  67.048  1.00  0.00     0.001 A 
HETATM   23  C   UNL     1       4.150  34.271  66.669  1.00  0.00     0.001 A 
HETATM   24  C   UNL     1       5.663  36.845  62.564  1.00  0.00     0.002 A 
HETATM   25  C   UNL     1       5.570  35.525  62.133  1.00  0.00     0.009 A 
ENDBRANCH   8  16
TORSDOF 1
ENDMDL
MODEL 2
REMARK VINA RESULT:      -8.1      7.367     10.929
REMARK  1 active torsions:
REMARK  status: ('A' for Active; 'I' for Inactive)
REMARK    1  A    between atoms: C_8  and  C_9 
ROOT
HETATM    1  C   UNL     1       9.999  28.683  56.649  1.00  0.00     0.073 C 
HETATM    2  C   UNL     1       8.724  29.331  57.066  1.00  0.00     0.062 A 
HETATM    3  N   UNL     1       8.749  30.233  58.050  1.00  0.00    -0.178 NA
HETATM    4  N   UNL     1       7.487  30.653  58.128  1.00  0.00    -0.262 N 
HETATM    5  H   UNL     1       7.271  31.376  58.803  1.00  0.00     0.191 HD
HETATM    6  C   UNL     1       6.623  30.026  57.267  1.00  0.00     0.134 A 
HETATM    7  C   UNL     1       7.394  29.127  56.545  1.00  0.00     0.032 A 
HETATM    8  C   UNL     1       7.072  28.234  55.384  1.00  0.00     0.120 C 
HETATM    9  S   UNL     1       5.459  28.444  54.591  1.00  0.00    -0.141 SA
HETATM   10  C   UNL     1       4.285  28.508  55.971  1.00  0.00     0.136 C 
HETATM   11  C   UNL     1       4.329  27.398  57.006  1.00  0.00     0.031 C 
HETATM   12  C   UNL     1       4.238  29.878  56.621  1.00  0.00     0.236 C 
HETATM   13  O   UNL     1       3.172  30.504  56.680  1.00  0.00    -0.272 OA
HETATM   14  N   UNL     1       5.305  30.420  57.268  1.00  0.00    -0.311 N 
HETATM   15  H   UNL     1       5.048  31.267  57.766  1.00  0.00     0.170 HD
ENDROOT
BRANCH   8  16
HETATM   16  C   UNL     1       7.452  26.773  55.671  1.00  0.00    -0.029 A 
HETATM   17  C   UNL     1       7.614  25.835  54.590  1.00  0.00    -0.018 A 
HETATM   18  C   UNL     1       7.986  24.496  54.888  1.00  0.00    -0.025 A 
HETATM   19  C   UNL     1       7.437  26.146  53.217  1.00  0.00     0.013 A 
HETATM   20  C   UNL     1       8.166  23.555  53.859  1.00  0.00     0.012 A 
HETATM   21  C   UNL     1       8.182  24.096  56.213  1.00  0.00     0.012 A 
HETATM   22  C   UNL     1       7.986  23.904  52.524  1.00  0.00     0.001 A 
HETATM   23  C   UNL     1       7.619  25.200  52.202  1.00  0.00     0.001 A 
HETATM   24  C   UNL     1       8.026  24.997  57.258  1.00  0.00     0.002 A 
HETATM   25  C   UNL     1       7.669  26.314  56.989  1.00  0.00     0.009 A 
ENDBRANCH   8  16
TORSDOF 1
ENDMDL
MODEL 3
REMARK VINA RESULT:      -7.9      7.689     11.816
REMARK  1 active torsions:
REMARK  status: ('A' for Active; 'I' for Inactive)
REMARK    1  A    between atoms: C_8  and  C_9 
ROOT
HETATM    1  C   UNL     1       3.925  27.411  53.692  1.00  0.00     0.073 C 
HETATM    2  C   UNL     1       4.552  28.376  54.638  1.00  0.00     0.062 A 
HETATM    3  N   UNL     1       4.147  29.648  54.627  1.00  0.00    -0.178 NA
HETATM    4  N   UNL     1       4.845  30.213  55.612  1.00  0.00    -0.262 N 
HETATM    5  H   UNL     1       4.676  31.192  55.809  1.00  0.00     0.191 HD
HETATM    6  C   UNL     1       5.730  29.372  56.237  1.00  0.00     0.134 A 
HETATM    7  C   UNL     1       5.583  28.140  55.619  1.00  0.00     0.032 A 
HETATM    8  C   UNL     1       6.173  26.792  55.913  1.00  0.00     0.120 C 
HETATM    9  S   UNL     1       7.104  26.607  57.453  1.00  0.00    -0.141 SA
HETATM   10  C   UNL     1       8.205  28.048  57.490  1.00  0.00     0.136 C 
HETATM   11  C   UNL     1       9.067  28.326  56.271  1.00  0.00     0.031 C 
HETATM   12  C   UNL     1       7.495  29.299  57.970  1.00  0.00     0.236 C 
HETATM   13  O   UNL     1       7.911  29.909  58.963  1.00  0.00    -0.272 OA
HETATM   14  N   UNL     1       6.471  29.873  57.283  1.00  0.00    -0.311 N 
HETATM   15  H   UNL     1       6.222  30.777  57.670  1.00  0.00     0.170 HD
ENDROOT
BRANCH   8  16
HETATM   16  C   UNL     1       6.865  26.195  54.678  1.00  0.00    -0.029 A 
HETATM   17  C   UNL     1       7.212  24.798  54.640  1.00  0.00    -0.018 A 
HETATM   18  C   UNL     1       7.833  24.273  53.474  1.00  0.00    -0.025 A 
HETATM   19  C   UNL     1       6.973  23.877  55.693  1.00  0.00     0.013 A 
HETATM   20  C   UNL     1       8.175  22.911  53.394  1.00  0.00     0.012 A 
HETATM   21  C   UNL     1       8.109  25.105  52.385  1.00  0.00     0.012 A 
HETATM   22  C   UNL     1       7.918  22.041  54.450  1.00  0.00     0.001 A 
HETATM   23  C   UNL     1       7.318  22.524  55.600  1.00  0.00     0.001 A 
HETATM   24  C   UNL     1       7.777  26.452  52.418  1.00  0.00     0.002 A 
HETATM   25  C   UNL     1       7.163  26.987  53.546  1.00  0.00     0.009 A 
ENDBRANCH   8  16
TORSDOF 1
ENDMDL
MODEL 4
REMARK VINA RESULT:      -7.9      3.419      4.864
REMARK  1 active torsions:
REMARK  status: ('A' for Active; 'I' for Inactive)
REMARK    1  A    between atoms: C_8  and  C_9 
ROOT
HETATM    1  C   UNL     1       6.108  38.082  61.622  1.00  0.00     0.073 C 
HETATM    2  C   UNL     1       4.747  37.992  61.023  1.00  0.00     0.062 A 
HETATM    3  N   UNL     1       4.142  39.112  60.623  1.00  0.00    -0.178 NA
HETATM    4  N   UNL     1       2.998  38.683  60.090  1.00  0.00    -0.262 N 
HETATM    5  H   UNL     1       2.377  39.374  59.688  1.00  0.00     0.191 HD
HETATM    6  C   UNL     1       2.806  37.327  60.170  1.00  0.00     0.134 A 
HETATM    7  C   UNL     1       3.936  36.821  60.793  1.00  0.00     0.032 A 
HETATM    8  C   UNL     1       4.388  35.417  61.069  1.00  0.00     0.120 C 
HETATM    9  S   UNL     1       3.441  34.073  60.313  1.00  0.00    -0.141 SA
HETATM   10  C   UNL     1       1.710  34.496  60.652  1.00  0.00     0.136 C 
HETATM   11  C   UNL     1       1.312  34.809  62.084  1.00  0.00     0.031 C 
HETATM   12  C   UNL     1       1.173  35.532  59.683  1.00  0.00     0.236 C 
HETATM   13  O   UNL     1       0.182  35.280  58.986  1.00  0.00    -0.272 OA
HETATM   14  N   UNL     1       1.660  36.801  59.621  1.00  0.00    -0.311 N 
HETATM   15  H   UNL     1       1.085  37.392  59.028  1.00  0.00     0.170 HD
ENDROOT
BRANCH   8  16
HETATM   16  C   UNL     1       4.710  35.207  62.557  1.00  0.00    -0.029 A 
HETATM   17  C   UNL     1       5.806  34.361  62.953  1.00  0.00    -0.018 A 
HETATM   18  C   UNL     1       6.091  34.205  64.337  1.00  0.00    -0.025 A 
HETATM   19  C   UNL     1       6.652  33.660  62.055  1.00  0.00     0.013 A 
HETATM   20  C   UNL     1       7.161  33.397  64.763  1.00  0.00     0.012 A 
HETATM   21  C   UNL     1       5.311  34.856  65.297  1.00  0.00     0.012 A 
HETATM   22  C   UNL     1       7.968  32.730  63.847  1.00  0.00     0.001 A 
HETATM   23  C   UNL     1       7.713  32.860  62.492  1.00  0.00     0.001 A 
HETATM   24  C   UNL     1       4.254  35.672  64.918  1.00  0.00     0.002 A 
HETATM   25  C   UNL     1       3.960  35.845  63.569  1.00  0.00     0.009 A 
ENDBRANCH   8  16
TORSDOF 1
ENDMDL
MODEL 5
REMARK VINA RESULT:      -7.1      7.900     10.159
REMARK  1 active torsions:
REMARK  status: ('A' for Active; 'I' for Inactive)
REMARK    1  A    between atoms: C_8  and  C_9 
ROOT
HETATM    1  C   UNL     1       4.689  31.051  53.885  1.00  0.00     0.073 C 
HETATM    2  C   UNL     1       4.294  29.663  53.515  1.00  0.00     0.062 A 
HETATM    3  N   UNL     1       3.092  29.456  52.975  1.00  0.00    -0.178 NA
HETATM    4  N   UNL     1       3.083  28.149  52.710  1.00  0.00    -0.262 N 
HETATM    5  H   UNL     1       2.262  27.764  52.261  1.00  0.00     0.191 HD
HETATM    6  C   UNL     1       4.216  27.482  53.102  1.00  0.00     0.134 A 
HETATM    7  C   UNL     1       5.050  28.442  53.654  1.00  0.00     0.032 A 
HETATM    8  C   UNL     1       6.462  28.377  54.155  1.00  0.00     0.120 C 
HETATM    9  S   UNL     1       7.390  26.856  53.841  1.00  0.00    -0.141 SA
HETATM   10  C   UNL     1       6.251  25.528  54.320  1.00  0.00     0.136 C 
HETATM   11  C   UNL     1       5.608  25.592  55.695  1.00  0.00     0.031 C 
HETATM   12  C   UNL     1       5.231  25.229  53.239  1.00  0.00     0.236 C 
HETATM   13  O   UNL     1       5.149  24.092  52.757  1.00  0.00    -0.272 OA
HETATM   14  N   UNL     1       4.296  26.133  52.842  1.00  0.00    -0.311 N 
HETATM   15  H   UNL     1       3.610  25.712  52.223  1.00  0.00     0.170 HD
ENDROOT
BRANCH   8  16
HETATM   16  C   UNL     1       6.577  28.905  55.594  1.00  0.00    -0.029 A 
HETATM   17  C   UNL     1       7.855  29.306  56.123  1.00  0.00    -0.018 A 
HETATM   18  C   UNL     1       7.924  29.810  57.451  1.00  0.00    -0.025 A 
HETATM   19  C   UNL     1       9.081  29.247  55.410  1.00  0.00     0.013 A 
HETATM   20  C   UNL     1       9.152  30.223  57.999  1.00  0.00     0.012 A 
HETATM   21  C   UNL     1       6.769  29.905  58.231  1.00  0.00     0.012 A 
HETATM   22  C   UNL     1      10.330  30.152  57.261  1.00  0.00     0.001 A 
HETATM   23  C   UNL     1      10.295  29.662  55.967  1.00  0.00     0.001 A 
HETATM   24  C   UNL     1       5.536  29.519  57.725  1.00  0.00     0.002 A 
HETATM   25  C   UNL     1       5.443  29.029  56.426  1.00  0.00     0.009 A 
ENDBRANCH   8  16
TORSDOF 1
ENDMDL
MODEL 6
REMARK VINA RESULT:      -7.0      7.550     10.173
REMARK  1 active torsions:
REMARK  status: ('A' for Active; 'I' for Inactive)
REMARK    1  A    between atoms: C_8  and  C_9 
ROOT
HETATM    1  C   UNL     1       6.127  28.592  52.616  1.00  0.00     0.073 C 
HETATM    2  C   UNL     1       6.124  27.122  52.860  1.00  0.00     0.062 A 
HETATM    3  N   UNL     1       5.671  26.309  51.904  1.00  0.00    -0.178 NA
HETATM    4  N   UNL     1       5.862  25.090  52.407  1.00  0.00    -0.262 N 
HETATM    5  H   UNL     1       5.611  24.296  51.830  1.00  0.00     0.191 HD
HETATM    6  C   UNL     1       6.378  25.072  53.678  1.00  0.00     0.134 A 
HETATM    7  C   UNL     1       6.560  26.400  54.031  1.00  0.00     0.032 A 
HETATM    8  C   UNL     1       7.190  27.044  55.231  1.00  0.00     0.120 C 
HETATM    9  S   UNL     1       8.073  25.967  56.388  1.00  0.00    -0.141 SA
HETATM   10  C   UNL     1       6.942  24.575  56.659  1.00  0.00     0.136 C 
HETATM   11  C   UNL     1       5.510  24.879  57.061  1.00  0.00     0.031 C 
HETATM   12  C   UNL     1       7.004  23.560  55.534  1.00  0.00     0.236 C 
HETATM   13  O   UNL     1       7.298  22.382  55.774  1.00  0.00    -0.272 OA
HETATM   14  N   UNL     1       6.628  23.851  54.260  1.00  0.00    -0.311 N 
HETATM   15  H   UNL     1       6.593  23.017  53.682  1.00  0.00     0.170 HD
ENDROOT
BRANCH   8  16
HETATM   16  C   UNL     1       6.239  28.049  55.900  1.00  0.00    -0.029 A 
HETATM   17  C   UNL     1       6.754  29.062  56.785  1.00  0.00    -0.018 A 
HETATM   18  C   UNL     1       5.849  29.990  57.371  1.00  0.00    -0.025 A 
HETATM   19  C   UNL     1       8.122  29.221  57.123  1.00  0.00     0.013 A 
HETATM   20  C   UNL     1       6.315  31.001  58.229  1.00  0.00     0.012 A 
HETATM   21  C   UNL     1       4.481  29.911  57.097  1.00  0.00     0.012 A 
HETATM   22  C   UNL     1       7.668  31.123  58.531  1.00  0.00     0.001 A 
HETATM   23  C   UNL     1       8.573  30.232  57.978  1.00  0.00     0.001 A 
HETATM   24  C   UNL     1       3.982  28.935  56.245  1.00  0.00     0.002 A 
HETATM   25  C   UNL     1       4.848  28.021  55.655  1.00  0.00     0.009 A 
ENDBRANCH   8  16
TORSDOF 1
ENDMDL
MODEL 7
REMARK VINA RESULT:      -6.9     24.041     26.049
REMARK  1 active torsions:
REMARK  status: ('A' for Active; 'I' for Inactive)
REMARK    1  A    between atoms: C_8  and  C_9 
ROOT
HETATM    1  C   UNL     1      12.728  10.167  56.613  1.00  0.00     0.073 C 
HETATM    2  C   UNL     1      13.690  10.591  55.558  1.00  0.00     0.062 A 
HETATM    3  N   UNL     1      14.851  11.138  55.924  1.00  0.00    -0.178 NA
HETATM    4  N   UNL     1      15.486  11.338  54.769  1.00  0.00    -0.262 N 
HETATM    5  H   UNL     1      16.420  11.727  54.806  1.00  0.00     0.191 HD
HETATM    6  C   UNL     1      14.766  10.989  53.655  1.00  0.00     0.134 A 
HETATM    7  C   UNL     1      13.558  10.496  54.124  1.00  0.00     0.032 A 
HETATM    8  C   UNL     1      12.396   9.853  53.425  1.00  0.00     0.120 C 
HETATM    9  S   UNL     1      12.606   9.425  51.680  1.00  0.00    -0.141 SA
HETATM   10  C   UNL     1      13.334  10.911  50.937  1.00  0.00     0.136 C 
HETATM   11  C   UNL     1      12.647  12.244  51.172  1.00  0.00     0.031 C 
HETATM   12  C   UNL     1      14.828  11.000  51.181  1.00  0.00     0.236 C 
HETATM   13  O   UNL     1      15.613  11.062  50.226  1.00  0.00    -0.272 OA
HETATM   14  N   UNL     1      15.362  11.141  52.424  1.00  0.00    -0.311 N 
HETATM   15  H   UNL     1      16.357  11.335  52.383  1.00  0.00     0.170 HD
ENDROOT
BRANCH   8  16
HETATM   16  C   UNL     1      11.075  10.567  53.750  1.00  0.00    -0.029 A 
HETATM   17  C   UNL     1       9.847   9.819  53.849  1.00  0.00    -0.018 A 
HETATM   18  C   UNL     1       8.645  10.507  54.170  1.00  0.00    -0.025 A 
HETATM   19  C   UNL     1       9.737   8.418  53.655  1.00  0.00     0.013 A 
HETATM   20  C   UNL     1       7.430   9.810  54.289  1.00  0.00     0.012 A 
HETATM   21  C   UNL     1       8.656  11.889  54.378  1.00  0.00     0.012 A 
HETATM   22  C   UNL     1       7.367   8.433  54.095  1.00  0.00     0.001 A 
HETATM   23  C   UNL     1       8.520   7.737  53.776  1.00  0.00     0.001 A 
HETATM   24  C   UNL     1       9.837  12.613  54.282  1.00  0.00     0.002 A 
HETATM   25  C   UNL     1      11.027  11.960  53.975  1.00  0.00     0.009 A 
ENDBRANCH   8  16
TORSDOF 1
ENDMDL
MODEL 8
REMARK VINA RESULT:      -6.8      2.737      3.995
REMARK  1 active torsions:
REMARK  status: ('A' for Active; 'I' for Inactive)
REMARK    1  A    between atoms: C_8  and  C_9 
ROOT
HETATM    1  C   UNL     1       3.895  32.154  61.605  1.00  0.00     0.073 C 
HETATM    2  C   UNL     1       4.002  33.368  60.748  1.00  0.00     0.062 A 
HETATM    3  N   UNL     1       4.068  33.220  59.424  1.00  0.00    -0.178 NA
HETATM    4  N   UNL     1       4.091  34.471  58.965  1.00  0.00    -0.262 N 
HETATM    5  H   UNL     1       4.112  34.606  57.961  1.00  0.00     0.191 HD
HETATM    6  C   UNL     1       4.092  35.436  59.940  1.00  0.00     0.134 A 
HETATM    7  C   UNL     1       4.046  34.755  61.147  1.00  0.00     0.032 A 
HETATM    8  C   UNL     1       3.909  35.229  62.563  1.00  0.00     0.120 C 
HETATM    9  S   UNL     1       3.537  36.980  62.824  1.00  0.00    -0.141 SA
HETATM   10  C   UNL     1       4.697  37.854  61.739  1.00  0.00     0.136 C 
HETATM   11  C   UNL     1       6.173  37.510  61.838  1.00  0.00     0.031 C 
HETATM   12  C   UNL     1       4.224  37.881  60.298  1.00  0.00     0.236 C 
HETATM   13  O   UNL     1       4.052  38.961  59.719  1.00  0.00    -0.272 OA
HETATM   14  N   UNL     1       4.089  36.755  59.548  1.00  0.00    -0.311 N 
HETATM   15  H   UNL     1       3.911  36.975  58.573  1.00  0.00     0.170 HD
ENDROOT
BRANCH   8  16
HETATM   16  C   UNL     1       5.034  34.679  63.455  1.00  0.00    -0.029 A 
HETATM   17  C   UNL     1       4.871  34.626  64.885  1.00  0.00    -0.018 A 
HETATM   18  C   UNL     1       5.922  34.093  65.680  1.00  0.00    -0.025 A 
HETATM   19  C   UNL     1       3.716  35.065  65.584  1.00  0.00     0.013 A 
HETATM   20  C   UNL     1       5.795  34.013  67.078  1.00  0.00     0.012 A 
HETATM   21  C   UNL     1       7.099  33.636  65.079  1.00  0.00     0.012 A 
HETATM   22  C   UNL     1       4.642  34.452  67.722  1.00  0.00     0.001 A 
HETATM   23  C   UNL     1       3.603  34.979  66.976  1.00  0.00     0.001 A 
HETATM   24  C   UNL     1       7.260  33.687  63.702  1.00  0.00     0.002 A 
HETATM   25  C   UNL     1       6.242  34.198  62.903  1.00  0.00     0.009 A 
ENDBRANCH   8  16
TORSDOF 1
ENDMDL
MODEL 9
REMARK VINA RESULT:      -6.7      3.638      6.258
REMARK  1 active torsions:
REMARK  status: ('A' for Active; 'I' for Inactive)
REMARK    1  A    between atoms: C_8  and  C_9 
ROOT
HETATM    1  C   UNL     1       4.937  36.939  61.053  1.00  0.00     0.073 C 
HETATM    2  C   UNL     1       5.137  37.084  62.522  1.00  0.00     0.062 A 
HETATM    3  N   UNL     1       5.512  38.269  63.009  1.00  0.00    -0.178 NA
HETATM    4  N   UNL     1       5.538  38.077  64.328  1.00  0.00    -0.262 N 
HETATM    5  H   UNL     1       5.775  38.867  64.915  1.00  0.00     0.191 HD
HETATM    6  C   UNL     1       5.241  36.797  64.723  1.00  0.00     0.134 A 
HETATM    7  C   UNL     1       4.978  36.092  63.559  1.00  0.00     0.032 A 
HETATM    8  C   UNL     1       4.487  34.695  63.319  1.00  0.00     0.120 C 
HETATM    9  S   UNL     1       3.926  33.751  64.757  1.00  0.00    -0.141 SA
HETATM   10  C   UNL     1       5.228  33.999  65.995  1.00  0.00     0.136 C 
HETATM   11  C   UNL     1       6.666  33.723  65.592  1.00  0.00     0.031 C 
HETATM   12  C   UNL     1       5.093  35.330  66.710  1.00  0.00     0.236 C 
HETATM   13  O   UNL     1       4.970  35.366  67.941  1.00  0.00    -0.272 OA
HETATM   14  N   UNL     1       5.222  36.524  66.071  1.00  0.00    -0.311 N 
HETATM   15  H   UNL     1       5.251  37.296  66.728  1.00  0.00     0.170 HD
ENDROOT
BRANCH   8  16
HETATM   16  C   UNL     1       5.421  33.921  62.376  1.00  0.00    -0.029 A 
HETATM   17  C   UNL     1       4.912  33.341  61.160  1.00  0.00    -0.018 A 
HETATM   18  C   UNL     1       5.807  32.649  60.299  1.00  0.00    -0.025 A 
HETATM   19  C   UNL     1       3.560  33.413  60.734  1.00  0.00     0.013 A 
HETATM   20  C   UNL     1       5.350  32.080  59.096  1.00  0.00     0.012 A 
HETATM   21  C   UNL     1       7.158  32.526  60.636  1.00  0.00     0.012 A 
HETATM   22  C   UNL     1       4.016  32.178  58.715  1.00  0.00     0.001 A 
HETATM   23  C   UNL     1       3.119  32.843  59.535  1.00  0.00     0.001 A 
HETATM   24  C   UNL     1       7.651  33.082  61.808  1.00  0.00     0.002 A 
HETATM   25  C   UNL     1       6.796  33.770  62.662  1.00  0.00     0.009 A 
ENDBRANCH   8  16
TORSDOF 1
ENDMDL
MODEL 10
REMARK VINA RESULT:      -6.7      6.637     10.143
REMARK  1 active torsions:
REMARK  status: ('A' for Active; 'I' for Inactive)
REMARK    1  A    between atoms: C_8  and  C_9 
ROOT
HETATM    1  C   UNL     1       8.724  28.652  56.778  1.00  0.00     0.073 C 
HETATM    2  C   UNL     1       7.769  29.702  57.230  1.00  0.00     0.062 A 
HETATM    3  N   UNL     1       8.099  30.471  58.270  1.00  0.00    -0.178 NA
HETATM    4  N   UNL     1       7.081  31.325  58.369  1.00  0.00    -0.262 N 
HETATM    5  H   UNL     1       7.130  32.036  59.089  1.00  0.00     0.191 HD
HETATM    6  C   UNL     1       6.071  31.116  57.465  1.00  0.00     0.134 A 
HETATM    7  C   UNL     1       6.474  30.039  56.690  1.00  0.00     0.032 A 
HETATM    8  C   UNL     1       5.877  29.398  55.472  1.00  0.00     0.120 C 
HETATM    9  S   UNL     1       4.481  30.240  54.687  1.00  0.00    -0.141 SA
HETATM   10  C   UNL     1       3.375  30.656  56.063  1.00  0.00     0.136 C 
HETATM   11  C   UNL     1       2.974  29.551  57.024  1.00  0.00     0.031 C 
HETATM   12  C   UNL     1       3.822  31.904  56.800  1.00  0.00     0.236 C 
HETATM   13  O   UNL     1       3.063  32.877  56.894  1.00  0.00    -0.272 OA
HETATM   14  N   UNL     1       4.995  31.972  57.485  1.00  0.00    -0.311 N 
HETATM   15  H   UNL     1       5.056  32.822  58.036  1.00  0.00     0.170 HD
ENDROOT
BRANCH   8  16
HETATM   16  C   UNL     1       5.679  27.887  55.666  1.00  0.00    -0.029 A 
HETATM   17  C   UNL     1       5.889  26.977  54.569  1.00  0.00    -0.018 A 
HETATM   18  C   UNL     1       5.718  25.583  54.787  1.00  0.00    -0.025 A 
HETATM   19  C   UNL     1       6.271  27.366  53.259  1.00  0.00     0.013 A 
HETATM   20  C   UNL     1       5.927  24.662  53.745  1.00  0.00     0.012 A 
HETATM   21  C   UNL     1       5.342  25.106  56.046  1.00  0.00     0.012 A 
HETATM   22  C   UNL     1       6.305  25.087  52.474  1.00  0.00     0.001 A 
HETATM   23  C   UNL     1       6.476  26.439  52.230  1.00  0.00     0.001 A 
HETATM   24  C   UNL     1       5.138  25.980  57.105  1.00  0.00     0.002 A 
HETATM   25  C   UNL     1       5.306  27.348  56.917  1.00  0.00     0.009 A 
ENDBRANCH   8  16
TORSDOF 1
ENDMDL
