MODEL 1
REMARK VINA RESULT:      -8.5      0.000      0.000
REMARK  2 active torsions:
REMARK  status: ('A' for Active; 'I' for Inactive)
REMARK    1  A    between atoms: C_7  and  N_8 
REMARK       I    between atoms: N_8  and  C_9 
REMARK       I    between atoms: C_9  and  N_10 
REMARK    2  A    between atoms: N_10  and  C_11 
ROOT
HETATM    1  C   UNL     1       7.727  32.274  63.483  1.00  0.00     0.025 A 
HETATM    2  C   UNL     1       6.439  32.664  63.115  1.00  0.00     0.044 A 
HETATM    3  C   UNL     1       5.448  32.933  64.116  1.00  0.00     0.099 C 
HETATM    4  N   UNL     1       4.644  33.163  64.918  1.00  0.00    -0.191 NA
HETATM    5  C   UNL     1       6.129  32.815  61.761  1.00  0.00     0.025 A 
HETATM    6  C   UNL     1       7.105  32.593  60.781  1.00  0.00     0.031 A 
HETATM    7  C   UNL     1       8.398  32.206  61.142  1.00  0.00     0.036 A 
HETATM    8  C   UNL     1       8.699  32.048  62.501  1.00  0.00     0.031 A 
ENDROOT
BRANCH   7   9
HETATM    9  N   UNL     1       9.470  32.064  60.236  1.00  0.00    -0.309 N 
HETATM   10  C   UNL     1       9.501  31.600  58.960  1.00  0.00     0.321 C 
HETATM   11  N   UNL     1       8.644  30.601  58.635  1.00  0.00    -0.338 N 
HETATM   12  O   UNL     1      10.304  32.071  58.162  1.00  0.00    -0.247 OA
HETATM   13  H   UNL     1       8.348  30.039  59.428  1.00  0.00     0.164 HD
HETATM   14  H   UNL     1      10.299  32.604  60.461  1.00  0.00     0.170 HD
BRANCH  11  15
HETATM   15  C   UNL     1       8.344  30.096  57.298  1.00  0.00     0.089 C 
HETATM   16  C   UNL     1       6.847  29.907  56.965  1.00  0.00     0.058 C 
HETATM   17  C   UNL     1       6.313  28.518  57.278  1.00  0.00     0.190 C 
HETATM   18  N   UNL     1       7.240  27.475  56.712  1.00  0.00    -0.067 N 
HETATM   19  C   UNL     1       5.002  28.112  56.628  1.00  0.00     0.035 C 
HETATM   20  H   UNL     1       7.333  27.629  55.699  1.00  0.00     0.280 HD
HETATM   21  C   UNL     1       8.600  27.538  57.323  1.00  0.00     0.237 C 
HETATM   22  C   UNL     1       6.490  26.180  56.879  1.00  0.00     0.235 C 
HETATM   23  C   UNL     1       9.216  28.878  56.946  1.00  0.00     0.053 C 
HETATM   24  C   UNL     1       5.020  26.586  56.752  1.00  0.00     0.030 C 
ENDBRANCH  11  15
ENDBRANCH   7   9
TORSDOF 2
ENDMDL
MODEL 2
REMARK VINA RESULT:      -8.4      3.804      6.391
REMARK  2 active torsions:
REMARK  status: ('A' for Active; 'I' for Inactive)
REMARK    1  A    between atoms: C_7  and  N_8 
REMARK       I    between atoms: N_8  and  C_9 
REMARK       I    between atoms: C_9  and  N_10 
REMARK    2  A    between atoms: N_10  and  C_11 
ROOT
HETATM    1  C   UNL     1       9.769  29.848  57.399  1.00  0.00     0.025 A 
HETATM    2  C   UNL     1       8.769  29.925  58.369  1.00  0.00     0.044 A 
HETATM    3  C   UNL     1       9.065  30.432  59.677  1.00  0.00     0.099 C 
HETATM    4  N   UNL     1       9.292  30.851  60.734  1.00  0.00    -0.191 NA
HETATM    5  C   UNL     1       7.468  29.529  58.047  1.00  0.00     0.025 A 
HETATM    6  C   UNL     1       7.165  29.071  56.758  1.00  0.00     0.031 A 
HETATM    7  C   UNL     1       8.160  28.993  55.780  1.00  0.00     0.036 A 
HETATM    8  C   UNL     1       9.464  29.385  56.113  1.00  0.00     0.031 A 
ENDROOT
BRANCH   7   9
HETATM    9  N   UNL     1       7.929  28.648  54.432  1.00  0.00    -0.309 N 
HETATM   10  C   UNL     1       7.283  27.587  53.883  1.00  0.00     0.321 C 
HETATM   11  N   UNL     1       7.365  26.399  54.532  1.00  0.00    -0.338 N 
HETATM   12  O   UNL     1       6.675  27.725  52.827  1.00  0.00    -0.247 OA
HETATM   13  H   UNL     1       8.186  26.310  55.122  1.00  0.00     0.164 HD
HETATM   14  H   UNL     1       8.039  29.407  53.767  1.00  0.00     0.170 HD
BRANCH  11  15
HETATM   15  C   UNL     1       6.590  25.191  54.261  1.00  0.00     0.089 C 
HETATM   16  C   UNL     1       6.695  24.069  55.318  1.00  0.00     0.058 C 
HETATM   17  C   UNL     1       7.796  23.058  55.041  1.00  0.00     0.190 C 
HETATM   18  N   UNL     1       7.719  22.596  53.609  1.00  0.00    -0.067 N 
HETATM   19  C   UNL     1       7.721  21.727  55.769  1.00  0.00     0.035 C 
HETATM   20  H   UNL     1       6.785  22.199  53.439  1.00  0.00     0.280 HD
HETATM   21  C   UNL     1       7.936  23.713  52.644  1.00  0.00     0.237 C 
HETATM   22  C   UNL     1       8.689  21.447  53.535  1.00  0.00     0.235 C 
HETATM   23  C   UNL     1       6.793  24.703  52.816  1.00  0.00     0.053 C 
HETATM   24  C   UNL     1       8.640  20.830  54.934  1.00  0.00     0.030 C 
ENDBRANCH  11  15
ENDBRANCH   7   9
TORSDOF 2
ENDMDL
MODEL 3
REMARK VINA RESULT:      -8.1      4.681      9.538
REMARK  2 active torsions:
REMARK  status: ('A' for Active; 'I' for Inactive)
REMARK    1  A    between atoms: C_7  and  N_8 
REMARK       I    between atoms: N_8  and  C_9 
REMARK       I    between atoms: C_9  and  N_10 
REMARK    2  A    between atoms: N_10  and  C_11 
ROOT
HETATM    1  C   UNL     1       7.531  22.893  55.568  1.00  0.00     0.025 A 
HETATM    2  C   UNL     1       8.336  21.966  54.906  1.00  0.00     0.044 A 
HETATM    3  C   UNL     1       9.059  20.973  55.645  1.00  0.00     0.099 C 
HETATM    4  N   UNL     1       9.639  20.160  56.234  1.00  0.00    -0.191 NA
HETATM    5  C   UNL     1       8.412  21.997  53.511  1.00  0.00     0.025 A 
HETATM    6  C   UNL     1       7.675  22.939  52.781  1.00  0.00     0.031 A 
HETATM    7  C   UNL     1       6.864  23.868  53.437  1.00  0.00     0.036 A 
HETATM    8  C   UNL     1       6.800  23.836  54.836  1.00  0.00     0.031 A 
ENDROOT
BRANCH   7   9
HETATM    9  N   UNL     1       6.009  24.780  52.785  1.00  0.00    -0.309 N 
HETATM   10  C   UNL     1       6.016  26.138  52.749  1.00  0.00     0.321 C 
HETATM   11  N   UNL     1       6.430  26.793  53.861  1.00  0.00    -0.338 N 
HETATM   12  O   UNL     1       5.634  26.721  51.740  1.00  0.00    -0.247 OA
HETATM   13  H   UNL     1       6.322  26.256  54.717  1.00  0.00     0.164 HD
HETATM   14  H   UNL     1       5.449  24.387  52.035  1.00  0.00     0.170 HD
BRANCH  11  15
HETATM   15  C   UNL     1       6.728  28.216  53.987  1.00  0.00     0.089 C 
HETATM   16  C   UNL     1       8.163  28.571  54.437  1.00  0.00     0.058 C 
HETATM   17  C   UNL     1       8.324  28.715  55.942  1.00  0.00     0.190 C 
HETATM   18  N   UNL     1       7.235  29.600  56.490  1.00  0.00    -0.067 N 
HETATM   19  C   UNL     1       9.558  29.443  56.445  1.00  0.00     0.035 C 
HETATM   20  H   UNL     1       7.277  30.510  56.013  1.00  0.00     0.280 HD
HETATM   21  C   UNL     1       5.877  29.021  56.277  1.00  0.00     0.237 C 
HETATM   22  C   UNL     1       7.641  29.849  57.919  1.00  0.00     0.235 C 
HETATM   23  C   UNL     1       5.631  28.955  54.776  1.00  0.00     0.053 C 
HETATM   24  C   UNL     1       9.171  29.817  57.879  1.00  0.00     0.030 C 
ENDBRANCH  11  15
ENDBRANCH   7   9
TORSDOF 2
ENDMDL
MODEL 4
REMARK VINA RESULT:      -8.0      3.669      9.239
REMARK  2 active torsions:
REMARK  status: ('A' for Active; 'I' for Inactive)
REMARK    1  A    between atoms: C_7  and  N_8 
REMARK       I    between atoms: N_8  and  C_9 
REMARK       I    between atoms: C_9  and  N_10 
REMARK    2  A    between atoms: N_10  and  C_11 
ROOT
HETATM    1  C   UNL     1       7.409  22.938  55.240  1.00  0.00     0.025 A 
HETATM    2  C   UNL     1       7.690  22.651  53.904  1.00  0.00     0.044 A 
HETATM    3  C   UNL     1       8.490  21.512  53.560  1.00  0.00     0.099 C 
HETATM    4  N   UNL     1       9.126  20.587  53.271  1.00  0.00    -0.191 NA
HETATM    5  C   UNL     1       7.164  23.470  52.901  1.00  0.00     0.025 A 
HETATM    6  C   UNL     1       6.349  24.560  53.231  1.00  0.00     0.031 A 
HETATM    7  C   UNL     1       6.060  24.852  54.566  1.00  0.00     0.036 A 
HETATM    8  C   UNL     1       6.598  24.032  55.567  1.00  0.00     0.031 A 
ENDROOT
BRANCH   7   9
HETATM    9  N   UNL     1       5.167  25.860  54.987  1.00  0.00    -0.309 N 
HETATM   10  C   UNL     1       5.340  27.200  55.128  1.00  0.00     0.321 C 
HETATM   11  N   UNL     1       6.560  27.637  55.525  1.00  0.00    -0.338 N 
HETATM   12  O   UNL     1       4.400  27.959  54.920  1.00  0.00    -0.247 OA
HETATM   13  H   UNL     1       7.095  26.946  56.044  1.00  0.00     0.164 HD
HETATM   14  H   UNL     1       4.185  25.609  54.951  1.00  0.00     0.170 HD
BRANCH  11  15
HETATM   15  C   UNL     1       7.044  29.014  55.535  1.00  0.00     0.089 C 
HETATM   16  C   UNL     1       8.481  29.224  56.063  1.00  0.00     0.058 C 
HETATM   17  C   UNL     1       8.559  29.507  57.554  1.00  0.00     0.190 C 
HETATM   18  N   UNL     1       7.569  30.581  57.924  1.00  0.00    -0.067 N 
HETATM   19  C   UNL     1       9.845  30.117  58.082  1.00  0.00     0.035 C 
HETATM   20  H   UNL     1       7.769  31.421  57.365  1.00  0.00     0.280 HD
HETATM   21  C   UNL     1       6.161  30.165  57.659  1.00  0.00     0.237 C 
HETATM   22  C   UNL     1       7.909  30.927  59.349  1.00  0.00     0.235 C 
HETATM   23  C   UNL     1       6.010  29.970  56.156  1.00  0.00     0.053 C 
HETATM   24  C   UNL     1       9.419  30.691  59.437  1.00  0.00     0.030 C 
ENDBRANCH  11  15
ENDBRANCH   7   9
TORSDOF 2
ENDMDL
MODEL 5
REMARK VINA RESULT:      -7.6      4.165      8.353
REMARK  2 active torsions:
REMARK  status: ('A' for Active; 'I' for Inactive)
REMARK    1  A    between atoms: C_7  and  N_8 
REMARK       I    between atoms: N_8  and  C_9 
REMARK       I    between atoms: C_9  and  N_10 
REMARK    2  A    between atoms: N_10  and  C_11 
ROOT
HETATM    1  C   UNL     1       7.176  32.334  60.393  1.00  0.00     0.025 A 
HETATM    2  C   UNL     1       8.545  32.170  60.602  1.00  0.00     0.044 A 
HETATM    3  C   UNL     1       9.444  32.089  59.487  1.00  0.00     0.099 C 
HETATM    4  N   UNL     1      10.180  32.034  58.593  1.00  0.00    -0.191 NA
HETATM    5  C   UNL     1       9.039  32.112  61.908  1.00  0.00     0.025 A 
HETATM    6  C   UNL     1       8.169  32.232  63.000  1.00  0.00     0.031 A 
HETATM    7  C   UNL     1       6.797  32.399  62.800  1.00  0.00     0.036 A 
HETATM    8  C   UNL     1       6.309  32.448  61.487  1.00  0.00     0.031 A 
ENDROOT
BRANCH   7   9
HETATM    9  N   UNL     1       5.863  32.634  63.831  1.00  0.00    -0.309 N 
HETATM   10  C   UNL     1       5.041  33.689  64.063  1.00  0.00     0.321 C 
HETATM   11  N   UNL     1       5.490  34.922  63.721  1.00  0.00    -0.338 N 
HETATM   12  O   UNL     1       3.948  33.504  64.587  1.00  0.00    -0.247 OA
HETATM   13  H   UNL     1       6.503  34.997  63.694  1.00  0.00     0.164 HD
HETATM   14  H   UNL     1       5.573  31.809  64.346  1.00  0.00     0.170 HD
BRANCH  11  15
HETATM   15  C   UNL     1       4.718  36.160  63.672  1.00  0.00     0.089 C 
HETATM   16  C   UNL     1       3.626  36.235  62.582  1.00  0.00     0.058 C 
HETATM   17  C   UNL     1       4.101  36.836  61.269  1.00  0.00     0.190 C 
HETATM   18  N   UNL     1       4.843  38.120  61.533  1.00  0.00    -0.067 N 
HETATM   19  C   UNL     1       3.038  37.320  60.298  1.00  0.00     0.035 C 
HETATM   20  H   UNL     1       4.222  38.762  62.044  1.00  0.00     0.280 HD
HETATM   21  C   UNL     1       6.071  37.904  62.352  1.00  0.00     0.237 C 
HETATM   22  C   UNL     1       5.045  38.722  60.168  1.00  0.00     0.235 C 
HETATM   23  C   UNL     1       5.632  37.397  63.720  1.00  0.00     0.053 C 
HETATM   24  C   UNL     1       3.823  38.256  59.373  1.00  0.00     0.030 C 
ENDBRANCH  11  15
ENDBRANCH   7   9
TORSDOF 2
ENDMDL
MODEL 6
REMARK VINA RESULT:      -7.3      4.639      6.822
REMARK  2 active torsions:
REMARK  status: ('A' for Active; 'I' for Inactive)
REMARK    1  A    between atoms: C_7  and  N_8 
REMARK       I    between atoms: N_8  and  C_9 
REMARK       I    between atoms: C_9  and  N_10 
REMARK    2  A    between atoms: N_10  and  C_11 
ROOT
HETATM    1  C   UNL     1       8.880  29.869  57.889  1.00  0.00     0.025 A 
HETATM    2  C   UNL     1       9.882  29.707  56.932  1.00  0.00     0.044 A 
HETATM    3  C   UNL     1      11.259  29.895  57.285  1.00  0.00     0.099 C 
HETATM    4  N   UNL     1      12.376  30.033  57.564  1.00  0.00    -0.191 NA
HETATM    5  C   UNL     1       9.535  29.335  55.631  1.00  0.00     0.025 A 
HETATM    6  C   UNL     1       8.194  29.111  55.291  1.00  0.00     0.031 A 
HETATM    7  C   UNL     1       7.185  29.268  56.245  1.00  0.00     0.036 A 
HETATM    8  C   UNL     1       7.541  29.650  57.545  1.00  0.00     0.031 A 
ENDROOT
BRANCH   7   9
HETATM    9  N   UNL     1       5.826  28.963  56.024  1.00  0.00    -0.309 N 
HETATM   10  C   UNL     1       5.197  27.772  55.854  1.00  0.00     0.321 C 
HETATM   11  N   UNL     1       5.876  26.790  55.212  1.00  0.00    -0.338 N 
HETATM   12  O   UNL     1       4.048  27.628  56.258  1.00  0.00    -0.247 OA
HETATM   13  H   UNL     1       6.603  27.133  54.591  1.00  0.00     0.164 HD
HETATM   14  H   UNL     1       5.173  29.703  56.264  1.00  0.00     0.170 HD
BRANCH  11  15
HETATM   15  C   UNL     1       5.502  25.383  55.105  1.00  0.00     0.089 C 
HETATM   16  C   UNL     1       6.448  24.376  55.798  1.00  0.00     0.058 C 
HETATM   17  C   UNL     1       7.548  23.838  54.897  1.00  0.00     0.190 C 
HETATM   18  N   UNL     1       6.958  23.379  53.589  1.00  0.00    -0.067 N 
HETATM   19  C   UNL     1       8.258  22.572  55.344  1.00  0.00     0.035 C 
HETATM   20  H   UNL     1       6.240  22.669  53.780  1.00  0.00     0.280 HD
HETATM   21  C   UNL     1       6.322  24.498  52.834  1.00  0.00     0.237 C 
HETATM   22  C   UNL     1       8.091  22.665  52.900  1.00  0.00     0.235 C 
HETATM   23  C   UNL     1       5.145  25.002  53.657  1.00  0.00     0.053 C 
HETATM   24  C   UNL     1       8.908  22.072  54.050  1.00  0.00     0.030 C 
ENDBRANCH  11  15
ENDBRANCH   7   9
TORSDOF 2
ENDMDL
MODEL 7
REMARK VINA RESULT:      -7.3      1.675      2.178
REMARK  2 active torsions:
REMARK  status: ('A' for Active; 'I' for Inactive)
REMARK    1  A    between atoms: C_7  and  N_8 
REMARK       I    between atoms: N_8  and  C_9 
REMARK       I    between atoms: C_9  and  N_10 
REMARK    2  A    between atoms: N_10  and  C_11 
ROOT
HETATM    1  C   UNL     1       5.166  32.245  63.374  1.00  0.00     0.025 A 
HETATM    2  C   UNL     1       5.577  33.235  64.267  1.00  0.00     0.044 A 
HETATM    3  C   UNL     1       4.609  33.990  65.009  1.00  0.00     0.099 C 
HETATM    4  N   UNL     1       3.835  34.597  65.622  1.00  0.00    -0.191 NA
HETATM    5  C   UNL     1       6.942  33.469  64.452  1.00  0.00     0.025 A 
HETATM    6  C   UNL     1       7.892  32.707  63.760  1.00  0.00     0.031 A 
HETATM    7  C   UNL     1       7.489  31.711  62.866  1.00  0.00     0.036 A 
HETATM    8  C   UNL     1       6.118  31.489  62.680  1.00  0.00     0.031 A 
ENDROOT
BRANCH   7   9
HETATM    9  N   UNL     1       8.369  30.827  62.208  1.00  0.00    -0.309 N 
HETATM   10  C   UNL     1       8.596  30.617  60.886  1.00  0.00     0.321 C 
HETATM   11  N   UNL     1       7.544  30.744  60.040  1.00  0.00    -0.338 N 
HETATM   12  O   UNL     1       9.718  30.303  60.504  1.00  0.00    -0.247 OA
HETATM   13  H   UNL     1       6.641  30.598  60.484  1.00  0.00     0.164 HD
HETATM   14  H   UNL     1       9.121  30.460  62.782  1.00  0.00     0.170 HD
BRANCH  11  15
HETATM   15  C   UNL     1       7.583  30.783  58.582  1.00  0.00     0.089 C 
HETATM   16  C   UNL     1       6.256  31.141  57.877  1.00  0.00     0.058 C 
HETATM   17  C   UNL     1       5.401  29.936  57.518  1.00  0.00     0.190 C 
HETATM   18  N   UNL     1       6.243  28.898  56.825  1.00  0.00    -0.067 N 
HETATM   19  C   UNL     1       4.304  30.142  56.487  1.00  0.00     0.035 C 
HETATM   20  H   UNL     1       6.673  29.323  55.992  1.00  0.00     0.280 HD
HETATM   21  C   UNL     1       7.333  28.379  57.702  1.00  0.00     0.237 C 
HETATM   22  C   UNL     1       5.249  27.886  56.321  1.00  0.00     0.235 C 
HETATM   23  C   UNL     1       8.276  29.536  58.003  1.00  0.00     0.053 C 
HETATM   24  C   UNL     1       3.994  28.713  56.031  1.00  0.00     0.030 C 
ENDBRANCH  11  15
ENDBRANCH   7   9
TORSDOF 2
ENDMDL
MODEL 8
REMARK VINA RESULT:      -7.0      9.351     11.699
REMARK  2 active torsions:
REMARK  status: ('A' for Active; 'I' for Inactive)
REMARK    1  A    between atoms: C_7  and  N_8 
REMARK       I    between atoms: N_8  and  C_9 
REMARK       I    between atoms: C_9  and  N_10 
REMARK    2  A    between atoms: N_10  and  C_11 
ROOT
HETATM    1  C   UNL     1       7.734  24.561  52.121  1.00  0.00     0.025 A 
HETATM    2  C   UNL     1       7.303  23.861  53.248  1.00  0.00     0.044 A 
HETATM    3  C   UNL     1       8.093  22.792  53.785  1.00  0.00     0.099 C 
HETATM    4  N   UNL     1       8.731  21.934  54.233  1.00  0.00    -0.191 NA
HETATM    5  C   UNL     1       6.104  24.227  53.866  1.00  0.00     0.025 A 
HETATM    6  C   UNL     1       5.348  25.297  53.370  1.00  0.00     0.031 A 
HETATM    7  C   UNL     1       5.775  26.005  52.243  1.00  0.00     0.036 A 
HETATM    8  C   UNL     1       6.974  25.626  51.624  1.00  0.00     0.031 A 
ENDROOT
BRANCH   7   9
HETATM    9  N   UNL     1       5.139  27.158  51.738  1.00  0.00    -0.309 N 
HETATM   10  C   UNL     1       4.662  27.440  50.498  1.00  0.00     0.321 C 
HETATM   11  N   UNL     1       5.330  26.925  49.437  1.00  0.00    -0.338 N 
HETATM   12  O   UNL     1       3.674  28.157  50.375  1.00  0.00    -0.247 OA
HETATM   13  H   UNL     1       6.306  26.719  49.627  1.00  0.00     0.164 HD
HETATM   14  H   UNL     1       4.754  27.782  52.440  1.00  0.00     0.170 HD
BRANCH  11  15
HETATM   15  C   UNL     1       4.894  26.907  48.044  1.00  0.00     0.089 C 
HETATM   16  C   UNL     1       4.626  28.285  47.399  1.00  0.00     0.058 C 
HETATM   17  C   UNL     1       3.188  28.760  47.526  1.00  0.00     0.190 C 
HETATM   18  N   UNL     1       2.247  27.658  47.115  1.00  0.00    -0.067 N 
HETATM   19  C   UNL     1       2.737  29.875  46.598  1.00  0.00     0.035 C 
HETATM   20  H   UNL     1       2.471  27.374  46.152  1.00  0.00     0.280 HD
HETATM   21  C   UNL     1       2.361  26.460  47.997  1.00  0.00     0.237 C 
HETATM   22  C   UNL     1       0.896  28.323  47.058  1.00  0.00     0.235 C 
HETATM   23  C   UNL     1       3.761  25.888  47.821  1.00  0.00     0.053 C 
HETATM   24  C   UNL     1       1.210  29.764  46.649  1.00  0.00     0.030 C 
ENDBRANCH  11  15
ENDBRANCH   7   9
TORSDOF 2
ENDMDL
MODEL 9
REMARK VINA RESULT:      -6.9      7.569     10.276
REMARK  2 active torsions:
REMARK  status: ('A' for Active; 'I' for Inactive)
REMARK    1  A    between atoms: C_7  and  N_8 
REMARK       I    between atoms: N_8  and  C_9 
REMARK       I    between atoms: C_9  and  N_10 
REMARK    2  A    between atoms: N_10  and  C_11 
ROOT
HETATM    1  C   UNL     1       5.569  24.621  52.887  1.00  0.00     0.025 A 
HETATM    2  C   UNL     1       6.819  24.310  53.421  1.00  0.00     0.044 A 
HETATM    3  C   UNL     1       7.464  23.074  53.087  1.00  0.00     0.099 C 
HETATM    4  N   UNL     1       7.998  22.082  52.814  1.00  0.00    -0.191 NA
HETATM    5  C   UNL     1       7.452  25.226  54.265  1.00  0.00     0.025 A 
HETATM    6  C   UNL     1       6.845  26.454  54.562  1.00  0.00     0.031 A 
HETATM    7  C   UNL     1       5.594  26.774  54.028  1.00  0.00     0.036 A 
HETATM    8  C   UNL     1       4.962  25.846  53.190  1.00  0.00     0.031 A 
ENDROOT
BRANCH   7   9
HETATM    9  N   UNL     1       4.956  28.022  54.185  1.00  0.00    -0.309 N 
HETATM   10  C   UNL     1       4.437  28.877  53.267  1.00  0.00     0.321 C 
HETATM   11  N   UNL     1       5.056  28.959  52.064  1.00  0.00    -0.338 N 
HETATM   12  O   UNL     1       3.456  29.555  53.554  1.00  0.00    -0.247 OA
HETATM   13  H   UNL     1       6.036  28.690  52.088  1.00  0.00     0.164 HD
HETATM   14  H   UNL     1       4.608  28.215  55.119  1.00  0.00     0.170 HD
BRANCH  11  15
HETATM   15  C   UNL     1       4.567  29.629  50.863  1.00  0.00     0.089 C 
HETATM   16  C   UNL     1       3.124  29.282  50.434  1.00  0.00     0.058 C 
HETATM   17  C   UNL     1       3.029  28.122  49.456  1.00  0.00     0.190 C 
HETATM   18  N   UNL     1       4.010  28.319  48.331  1.00  0.00    -0.067 N 
HETATM   19  C   UNL     1       1.734  27.970  48.677  1.00  0.00     0.035 C 
HETATM   20  H   UNL     1       3.813  29.220  47.874  1.00  0.00     0.280 HD
HETATM   21  C   UNL     1       5.423  28.337  48.810  1.00  0.00     0.237 C 
HETATM   22  C   UNL     1       3.654  27.249  47.333  1.00  0.00     0.235 C 
HETATM   23  C   UNL     1       5.591  29.549  49.716  1.00  0.00     0.053 C 
HETATM   24  C   UNL     1       2.144  27.068  47.509  1.00  0.00     0.030 C 
ENDBRANCH  11  15
ENDBRANCH   7   9
TORSDOF 2
ENDMDL
MODEL 10
REMARK VINA RESULT:      -6.6      3.472      9.034
REMARK  2 active torsions:
REMARK  status: ('A' for Active; 'I' for Inactive)
REMARK    1  A    between atoms: C_7  and  N_8 
REMARK       I    between atoms: N_8  and  C_9 
REMARK       I    between atoms: C_9  and  N_10 
REMARK    2  A    between atoms: N_10  and  C_11 
ROOT
HETATM    1  C   UNL     1       6.876  23.501  53.804  1.00  0.00     0.025 A 
HETATM    2  C   UNL     1       7.707  22.456  54.210  1.00  0.00     0.044 A 
HETATM    3  C   UNL     1       8.252  21.545  53.246  1.00  0.00     0.099 C 
HETATM    4  N   UNL     1       8.706  20.811  52.472  1.00  0.00    -0.191 NA
HETATM    5  C   UNL     1       8.025  22.318  55.564  1.00  0.00     0.025 A 
HETATM    6  C   UNL     1       7.528  23.230  56.505  1.00  0.00     0.031 A 
HETATM    7  C   UNL     1       6.698  24.280  56.106  1.00  0.00     0.036 A 
HETATM    8  C   UNL     1       6.377  24.406  54.748  1.00  0.00     0.031 A 
ENDROOT
BRANCH   7   9
HETATM    9  N   UNL     1       6.239  25.303  56.962  1.00  0.00    -0.309 N 
HETATM   10  C   UNL     1       6.571  26.618  57.036  1.00  0.00     0.321 C 
HETATM   11  N   UNL     1       7.852  26.958  56.753  1.00  0.00    -0.338 N 
HETATM   12  O   UNL     1       5.725  27.440  57.372  1.00  0.00    -0.247 OA
HETATM   13  H   UNL     1       8.518  26.204  56.894  1.00  0.00     0.164 HD
HETATM   14  H   UNL     1       5.362  25.109  57.435  1.00  0.00     0.170 HD
BRANCH  11  15
HETATM   15  C   UNL     1       8.384  28.303  56.554  1.00  0.00     0.089 C 
HETATM   16  C   UNL     1       8.819  29.056  57.831  1.00  0.00     0.058 C 
HETATM   17  C   UNL     1       7.724  29.910  58.450  1.00  0.00     0.190 C 
HETATM   18  N   UNL     1       7.073  30.757  57.387  1.00  0.00    -0.067 N 
HETATM   19  C   UNL     1       8.149  30.980  59.441  1.00  0.00     0.035 C 
HETATM   20  H   UNL     1       7.796  31.332  56.935  1.00  0.00     0.280 HD
HETATM   21  C   UNL     1       6.406  29.932  56.339  1.00  0.00     0.237 C 
HETATM   22  C   UNL     1       6.192  31.707  58.155  1.00  0.00     0.235 C 
HETATM   23  C   UNL     1       7.485  29.133  55.620  1.00  0.00     0.053 C 
HETATM   24  C   UNL     1       6.934  31.911  59.479  1.00  0.00     0.030 C 
ENDBRANCH  11  15
ENDBRANCH   7   9
TORSDOF 2
ENDMDL
