MODEL 1
REMARK VINA RESULT:      -9.5      0.000      0.000
REMARK  8 active torsions:
REMARK  status: ('A' for Active; 'I' for Inactive)
REMARK    1  A    between atoms: C_4  and  O_5 
REMARK    2  A    between atoms: O_5  and  C_6 
REMARK    3  A    between atoms: C_6  and  C_7 
REMARK       I    between atoms: C_7  and  N_8 
REMARK    4  A    between atoms: N_8  and  N_9 
REMARK       I    between atoms: N_9  and  C_10 
REMARK    5  A    between atoms: C_10  and  C_11 
REMARK    6  A    between atoms: C_11  and  C_12 
REMARK    7  A    between atoms: C_12  and  N_13 
REMARK    8  A    between atoms: C_12  and  C_17 
REMARK       I    between atoms: N_13  and  C_14 
REMARK       I    between atoms: C_14  and  N_15 
ROOT
HETATM    1  N   UNL     1       6.421  29.341  58.075  1.00  0.00    -0.267 N 
HETATM    2  C   UNL     1       6.146  30.633  57.670  1.00  0.00     0.238 C 
HETATM    3  O   UNL     1       5.848  30.934  56.514  1.00  0.00    -0.272 OA
HETATM    4  H   UNL     1       6.360  29.059  59.049  1.00  0.00     0.190 HD
ENDROOT
BRANCH   2   5
HETATM    5  C   UNL     1       6.245  31.667  58.770  1.00  0.00     0.134 C 
BRANCH   5   6
HETATM    6  C   UNL     1       7.466  31.434  59.679  1.00  0.00     0.129 C 
BRANCH   6   7
HETATM    7  N   UNL     1       8.684  31.946  59.064  1.00  0.00    -0.339 N 
HETATM    8  C   UNL     1       9.600  31.115  58.496  1.00  0.00     0.292 C 
HETATM    9  N   UNL     1      10.671  31.787  58.006  1.00  0.00    -0.254 NA
HETATM   10  O   UNL     1       9.511  29.899  58.413  1.00  0.00    -0.254 OA
HETATM   11  H   UNL     1      10.470  32.664  57.548  1.00  0.00     0.128 HD
HETATM   12  H   UNL     1      11.298  31.186  57.484  1.00  0.00     0.128 HD
HETATM   13  H   UNL     1       9.035  32.844  59.366  1.00  0.00     0.164 HD
ENDBRANCH   6   7
BRANCH   6  14
HETATM   14  C   UNL     1       7.324  32.057  61.068  1.00  0.00    -0.013 A 
HETATM   15  C   UNL     1       8.108  31.620  62.155  1.00  0.00     0.042 A 
HETATM   16 CL   UNL     1       9.257  30.335  62.011  1.00  0.00    -0.084 Cl
HETATM   17  C   UNL     1       8.003  32.230  63.411  1.00  0.00     0.024 A 
HETATM   18  C   UNL     1       7.122  33.289  63.608  1.00  0.00     0.002 A 
HETATM   19  C   UNL     1       6.349  33.748  62.546  1.00  0.00     0.001 A 
HETATM   20  C   UNL     1       6.455  33.146  61.289  1.00  0.00     0.011 A 
ENDBRANCH   6  14
ENDBRANCH   5   6
ENDBRANCH   2   5
BRANCH   1  21
HETATM   21  N   UNL     1       6.277  28.318  57.130  1.00  0.00    -0.266 N 
HETATM   22  C   UNL     1       7.008  27.158  57.315  1.00  0.00     0.260 C 
HETATM   23  O   UNL     1       7.921  27.063  58.135  1.00  0.00    -0.269 OA
HETATM   24  H   UNL     1       5.387  28.301  56.634  1.00  0.00     0.190 HD
BRANCH  22  25
HETATM   25  C   UNL     1       6.572  26.009  56.417  1.00  0.00     0.280 C 
BRANCH  25  26
HETATM   26  O   UNL     1       7.534  25.866  55.375  1.00  0.00    -0.342 OA
BRANCH  26  27
HETATM   27  C   UNL     1       7.660  24.602  54.869  1.00  0.00     0.069 A 
HETATM   28  C   UNL     1       7.636  23.432  55.631  1.00  0.00     0.043 A 
HETATM   29  C   UNL     1       7.758  22.179  55.010  1.00  0.00    -0.059 A 
HETATM   30  C   UNL     1       7.694  20.914  55.816  1.00  0.00     0.048 C 
HETATM   31  C   UNL     1       7.880  22.114  53.616  1.00  0.00     0.007 A 
HETATM   32  C   UNL     1       7.887  23.282  52.855  1.00  0.00     0.003 A 
HETATM   33  C   UNL     1       7.770  24.522  53.481  1.00  0.00     0.037 A 
ENDBRANCH  26  27
ENDBRANCH  25  26
ENDBRANCH  22  25
ENDBRANCH   1  21
TORSDOF 8
ENDMDL
MODEL 2
REMARK VINA RESULT:      -9.5      2.837      9.248
REMARK  8 active torsions:
REMARK  status: ('A' for Active; 'I' for Inactive)
REMARK    1  A    between atoms: C_4  and  O_5 
REMARK    2  A    between atoms: O_5  and  C_6 
REMARK    3  A    between atoms: C_6  and  C_7 
REMARK       I    between atoms: C_7  and  N_8 
REMARK    4  A    between atoms: N_8  and  N_9 
REMARK       I    between atoms: N_9  and  C_10 
REMARK    5  A    between atoms: C_10  and  C_11 
REMARK    6  A    between atoms: C_11  and  C_12 
REMARK    7  A    between atoms: C_12  and  N_13 
REMARK    8  A    between atoms: C_12  and  C_17 
REMARK       I    between atoms: N_13  and  C_14 
REMARK       I    between atoms: C_14  and  N_15 
ROOT
HETATM    1  N   UNL     1       4.902  28.049  56.921  1.00  0.00    -0.267 N 
HETATM    2  C   UNL     1       5.774  26.977  56.902  1.00  0.00     0.238 C 
HETATM    3  O   UNL     1       6.786  26.912  57.600  1.00  0.00    -0.272 OA
HETATM    4  H   UNL     1       3.944  27.968  56.594  1.00  0.00     0.190 HD
ENDROOT
BRANCH   2   5
HETATM    5  C   UNL     1       5.388  25.875  55.940  1.00  0.00     0.134 C 
BRANCH   5   6
HETATM    6  C   UNL     1       6.307  25.832  54.705  1.00  0.00     0.129 C 
BRANCH   6   7
HETATM    7  N   UNL     1       7.359  26.837  54.798  1.00  0.00    -0.339 N 
HETATM    8  C   UNL     1       7.361  27.944  54.006  1.00  0.00     0.292 C 
HETATM    9  N   UNL     1       8.437  28.736  54.232  1.00  0.00    -0.254 NA
HETATM   10  O   UNL     1       6.513  28.233  53.176  1.00  0.00    -0.254 OA
HETATM   11  H   UNL     1       8.718  28.836  55.196  1.00  0.00     0.128 HD
HETATM   12  H   UNL     1       8.383  29.614  53.727  1.00  0.00     0.128 HD
HETATM   13  H   UNL     1       8.258  26.560  55.165  1.00  0.00     0.164 HD
ENDBRANCH   6   7
BRANCH   6  14
HETATM   14  C   UNL     1       6.957  24.468  54.471  1.00  0.00    -0.013 A 
HETATM   15  C   UNL     1       7.442  24.092  53.201  1.00  0.00     0.042 A 
HETATM   16 CL   UNL     1       7.310  25.121  51.817  1.00  0.00    -0.084 Cl
HETATM   17  C   UNL     1       8.077  22.860  53.009  1.00  0.00     0.024 A 
HETATM   18  C   UNL     1       8.249  21.981  54.075  1.00  0.00     0.002 A 
HETATM   19  C   UNL     1       7.793  22.338  55.340  1.00  0.00     0.001 A 
HETATM   20  C   UNL     1       7.162  23.570  55.538  1.00  0.00     0.011 A 
ENDBRANCH   6  14
ENDBRANCH   5   6
ENDBRANCH   2   5
BRANCH   1  21
HETATM   21  N   UNL     1       5.152  29.075  57.840  1.00  0.00    -0.266 N 
HETATM   22  C   UNL     1       5.810  30.205  57.386  1.00  0.00     0.260 C 
HETATM   23  O   UNL     1       6.364  30.264  56.289  1.00  0.00    -0.269 OA
HETATM   24  H   UNL     1       4.505  29.127  58.625  1.00  0.00     0.190 HD
BRANCH  22  25
HETATM   25  C   UNL     1       5.775  31.368  58.366  1.00  0.00     0.280 C 
BRANCH  25  26
HETATM   26  O   UNL     1       7.099  31.879  58.501  1.00  0.00    -0.342 OA
BRANCH  26  27
HETATM   27  C   UNL     1       7.650  31.747  59.745  1.00  0.00     0.069 A 
HETATM   28  C   UNL     1       7.277  32.492  60.866  1.00  0.00     0.043 A 
HETATM   29  C   UNL     1       7.896  32.267  62.106  1.00  0.00    -0.059 A 
HETATM   30  C   UNL     1       7.474  33.035  63.324  1.00  0.00     0.048 C 
HETATM   31  C   UNL     1       8.875  31.271  62.212  1.00  0.00     0.007 A 
HETATM   32  C   UNL     1       9.235  30.516  61.096  1.00  0.00     0.003 A 
HETATM   33  C   UNL     1       8.618  30.750  59.868  1.00  0.00     0.037 A 
ENDBRANCH  26  27
ENDBRANCH  25  26
ENDBRANCH  22  25
ENDBRANCH   1  21
TORSDOF 8
ENDMDL
MODEL 3
REMARK VINA RESULT:      -9.3      1.917      3.075
REMARK  8 active torsions:
REMARK  status: ('A' for Active; 'I' for Inactive)
REMARK    1  A    between atoms: C_4  and  O_5 
REMARK    2  A    between atoms: O_5  and  C_6 
REMARK    3  A    between atoms: C_6  and  C_7 
REMARK       I    between atoms: C_7  and  N_8 
REMARK    4  A    between atoms: N_8  and  N_9 
REMARK       I    between atoms: N_9  and  C_10 
REMARK    5  A    between atoms: C_10  and  C_11 
REMARK    6  A    between atoms: C_11  and  C_12 
REMARK    7  A    between atoms: C_12  and  N_13 
REMARK    8  A    between atoms: C_12  and  C_17 
REMARK       I    between atoms: N_13  and  C_14 
REMARK       I    between atoms: C_14  and  N_15 
ROOT
HETATM    1  N   UNL     1       7.966  28.237  55.928  1.00  0.00    -0.267 N 
HETATM    2  C   UNL     1       8.232  28.448  57.267  1.00  0.00     0.238 C 
HETATM    3  O   UNL     1       8.111  27.578  58.130  1.00  0.00    -0.272 OA
HETATM    4  H   UNL     1       8.350  28.835  55.203  1.00  0.00     0.190 HD
ENDROOT
BRANCH   2   5
HETATM    5  C   UNL     1       8.685  29.853  57.601  1.00  0.00     0.134 C 
BRANCH   5   6
HETATM    6  C   UNL     1       7.568  30.683  58.261  1.00  0.00     0.129 C 
BRANCH   6   7
HETATM    7  N   UNL     1       6.322  29.929  58.325  1.00  0.00    -0.339 N 
HETATM    8  C   UNL     1       5.262  30.235  57.529  1.00  0.00     0.292 C 
HETATM    9  N   UNL     1       4.194  29.433  57.763  1.00  0.00    -0.254 NA
HETATM   10  O   UNL     1       5.229  31.119  56.686  1.00  0.00    -0.254 OA
HETATM   11  H   UNL     1       4.401  28.460  57.933  1.00  0.00     0.128 HD
HETATM   12  H   UNL     1       3.445  29.583  57.096  1.00  0.00     0.128 HD
HETATM   13  H   UNL     1       6.101  29.436  59.179  1.00  0.00     0.164 HD
ENDBRANCH   6   7
BRANCH   6  14
HETATM   14  C   UNL     1       7.916  31.168  59.668  1.00  0.00    -0.013 A 
HETATM   15  C   UNL     1       7.198  32.214  60.284  1.00  0.00     0.042 A 
HETATM   16 CL   UNL     1       5.903  33.042  59.491  1.00  0.00    -0.084 Cl
HETATM   17  C   UNL     1       7.494  32.619  61.591  1.00  0.00     0.024 A 
HETATM   18  C   UNL     1       8.504  31.989  62.312  1.00  0.00     0.002 A 
HETATM   19  C   UNL     1       9.215  30.944  61.731  1.00  0.00     0.001 A 
HETATM   20  C   UNL     1       8.919  30.533  60.428  1.00  0.00     0.011 A 
ENDBRANCH   6  14
ENDBRANCH   5   6
ENDBRANCH   2   5
BRANCH   1  21
HETATM   21  N   UNL     1       7.614  26.941  55.530  1.00  0.00    -0.266 N 
HETATM   22  C   UNL     1       6.272  26.667  55.333  1.00  0.00     0.260 C 
HETATM   23  O   UNL     1       5.371  27.429  55.686  1.00  0.00    -0.269 OA
HETATM   24  H   UNL     1       8.332  26.428  55.022  1.00  0.00     0.190 HD
BRANCH  22  25
HETATM   25  C   UNL     1       6.015  25.342  54.630  1.00  0.00     0.280 C 
BRANCH  25  26
HETATM   26  O   UNL     1       7.228  24.920  54.013  1.00  0.00    -0.342 OA
BRANCH  26  27
HETATM   27  C   UNL     1       7.518  23.591  54.147  1.00  0.00     0.069 A 
HETATM   28  C   UNL     1       7.638  22.921  55.367  1.00  0.00     0.043 A 
HETATM   29  C   UNL     1       7.924  21.546  55.396  1.00  0.00    -0.059 A 
HETATM   30  C   UNL     1       8.015  20.810  56.700  1.00  0.00     0.048 C 
HETATM   31  C   UNL     1       8.063  20.850  54.188  1.00  0.00     0.007 A 
HETATM   32  C   UNL     1       7.926  21.517  52.971  1.00  0.00     0.003 A 
HETATM   33  C   UNL     1       7.647  22.882  52.953  1.00  0.00     0.037 A 
ENDBRANCH  26  27
ENDBRANCH  25  26
ENDBRANCH  22  25
ENDBRANCH   1  21
TORSDOF 8
ENDMDL
MODEL 4
REMARK VINA RESULT:      -9.2      2.795      9.989
REMARK  8 active torsions:
REMARK  status: ('A' for Active; 'I' for Inactive)
REMARK    1  A    between atoms: C_4  and  O_5 
REMARK    2  A    between atoms: O_5  and  C_6 
REMARK    3  A    between atoms: C_6  and  C_7 
REMARK       I    between atoms: C_7  and  N_8 
REMARK    4  A    between atoms: N_8  and  N_9 
REMARK       I    between atoms: N_9  and  C_10 
REMARK    5  A    between atoms: C_10  and  C_11 
REMARK    6  A    between atoms: C_11  and  C_12 
REMARK    7  A    between atoms: C_12  and  N_13 
REMARK    8  A    between atoms: C_12  and  C_17 
REMARK       I    between atoms: N_13  and  C_14 
REMARK       I    between atoms: C_14  and  N_15 
ROOT
HETATM    1  N   UNL     1       8.491  27.019  56.830  1.00  0.00    -0.267 N 
HETATM    2  C   UNL     1       8.371  25.782  57.433  1.00  0.00     0.238 C 
HETATM    3  O   UNL     1       8.030  25.628  58.607  1.00  0.00    -0.272 OA
HETATM    4  H   UNL     1       8.467  27.130  55.821  1.00  0.00     0.190 HD
ENDROOT
BRANCH   2   5
HETATM    5  C   UNL     1       8.699  24.612  56.532  1.00  0.00     0.134 C 
BRANCH   5   6
HETATM    6  C   UNL     1       7.435  23.929  55.980  1.00  0.00     0.129 C 
BRANCH   6   7
HETATM    7  N   UNL     1       6.607  24.875  55.241  1.00  0.00    -0.339 N 
HETATM    8  C   UNL     1       5.470  25.398  55.776  1.00  0.00     0.292 C 
HETATM    9  N   UNL     1       4.835  26.234  54.919  1.00  0.00    -0.254 NA
HETATM   10  O   UNL     1       5.033  25.171  56.894  1.00  0.00    -0.254 OA
HETATM   11  H   UNL     1       5.428  26.838  54.369  1.00  0.00     0.128 HD
HETATM   12  H   UNL     1       4.053  26.711  55.352  1.00  0.00     0.128 HD
HETATM   13  H   UNL     1       6.654  24.870  54.232  1.00  0.00     0.164 HD
ENDBRANCH   6   7
BRANCH   6  14
HETATM   14  C   UNL     1       7.729  22.732  55.076  1.00  0.00    -0.013 A 
HETATM   15  C   UNL     1       8.071  21.472  55.611  1.00  0.00     0.042 A 
HETATM   16 CL   UNL     1       8.214  21.196  57.312  1.00  0.00    -0.084 Cl
HETATM   17  C   UNL     1       8.292  20.371  54.775  1.00  0.00     0.024 A 
HETATM   18  C   UNL     1       8.172  20.499  53.394  1.00  0.00     0.002 A 
HETATM   19  C   UNL     1       7.820  21.727  52.845  1.00  0.00     0.001 A 
HETATM   20  C   UNL     1       7.593  22.829  53.676  1.00  0.00     0.011 A 
ENDBRANCH   6  14
ENDBRANCH   5   6
ENDBRANCH   2   5
BRANCH   1  21
HETATM   21  N   UNL     1       8.132  28.147  57.579  1.00  0.00    -0.266 N 
HETATM   22  C   UNL     1       8.988  29.234  57.563  1.00  0.00     0.260 C 
HETATM   23  O   UNL     1      10.129  29.184  57.105  1.00  0.00    -0.269 OA
HETATM   24  H   UNL     1       7.133  28.270  57.733  1.00  0.00     0.190 HD
BRANCH  22  25
HETATM   25  C   UNL     1       8.383  30.498  58.157  1.00  0.00     0.280 C 
BRANCH  25  26
HETATM   26  O   UNL     1       9.332  31.069  59.053  1.00  0.00    -0.342 OA
BRANCH  26  27
HETATM   27  C   UNL     1       8.844  31.390  60.290  1.00  0.00     0.069 A 
HETATM   28  C   UNL     1       8.032  32.492  60.565  1.00  0.00     0.043 A 
HETATM   29  C   UNL     1       7.570  32.725  61.871  1.00  0.00    -0.059 A 
HETATM   30  C   UNL     1       6.665  33.884  62.169  1.00  0.00     0.048 C 
HETATM   31  C   UNL     1       7.913  31.825  62.888  1.00  0.00     0.007 A 
HETATM   32  C   UNL     1       8.711  30.717  62.609  1.00  0.00     0.003 A 
HETATM   33  C   UNL     1       9.168  30.497  61.311  1.00  0.00     0.037 A 
ENDBRANCH  26  27
ENDBRANCH  25  26
ENDBRANCH  22  25
ENDBRANCH   1  21
TORSDOF 8
ENDMDL
MODEL 5
REMARK VINA RESULT:      -9.0      6.008      9.515
REMARK  8 active torsions:
REMARK  status: ('A' for Active; 'I' for Inactive)
REMARK    1  A    between atoms: C_4  and  O_5 
REMARK    2  A    between atoms: O_5  and  C_6 
REMARK    3  A    between atoms: C_6  and  C_7 
REMARK       I    between atoms: C_7  and  N_8 
REMARK    4  A    between atoms: N_8  and  N_9 
REMARK       I    between atoms: N_9  and  C_10 
REMARK    5  A    between atoms: C_10  and  C_11 
REMARK    6  A    between atoms: C_11  and  C_12 
REMARK    7  A    between atoms: C_12  and  N_13 
REMARK    8  A    between atoms: C_12  and  C_17 
REMARK       I    between atoms: N_13  and  C_14 
REMARK       I    between atoms: C_14  and  N_15 
ROOT
HETATM    1  N   UNL     1       4.565  25.695  53.740  1.00  0.00    -0.267 N 
HETATM    2  C   UNL     1       5.489  25.805  54.762  1.00  0.00     0.238 C 
HETATM    3  O   UNL     1       6.067  26.855  55.045  1.00  0.00    -0.272 OA
HETATM    4  H   UNL     1       3.885  24.941  53.710  1.00  0.00     0.190 HD
ENDROOT
BRANCH   2   5
HETATM    5  C   UNL     1       5.745  24.518  55.514  1.00  0.00     0.134 C 
BRANCH   5   6
HETATM    6  C   UNL     1       7.240  24.148  55.542  1.00  0.00     0.129 C 
BRANCH   6   7
HETATM    7  N   UNL     1       7.733  24.059  56.911  1.00  0.00    -0.339 N 
HETATM    8  C   UNL     1       8.380  25.098  57.506  1.00  0.00     0.292 C 
HETATM    9  N   UNL     1       8.779  24.802  58.767  1.00  0.00    -0.254 NA
HETATM   10  O   UNL     1       8.598  26.189  57.003  1.00  0.00    -0.254 OA
HETATM   11  H   UNL     1       8.131  24.260  59.320  1.00  0.00     0.128 HD
HETATM   12  H   UNL     1       9.159  25.607  59.251  1.00  0.00     0.128 HD
HETATM   13  H   UNL     1       7.929  23.144  57.293  1.00  0.00     0.164 HD
ENDBRANCH   6   7
BRANCH   6  14
HETATM   14  C   UNL     1       7.561  22.838  54.823  1.00  0.00    -0.013 A 
HETATM   15  C   UNL     1       7.841  22.806  53.441  1.00  0.00     0.042 A 
HETATM   16 CL   UNL     1       7.810  24.228  52.456  1.00  0.00    -0.084 Cl
HETATM   17  C   UNL     1       8.180  21.607  52.802  1.00  0.00     0.024 A 
HETATM   18  C   UNL     1       8.254  20.420  53.525  1.00  0.00     0.002 A 
HETATM   19  C   UNL     1       7.998  20.430  54.892  1.00  0.00     0.001 A 
HETATM   20  C   UNL     1       7.664  21.626  55.536  1.00  0.00     0.011 A 
ENDBRANCH   6  14
ENDBRANCH   5   6
ENDBRANCH   2   5
BRANCH   1  21
HETATM   21  N   UNL     1       4.219  26.861  53.046  1.00  0.00    -0.266 N 
HETATM   22  C   UNL     1       4.855  27.111  51.843  1.00  0.00     0.260 C 
HETATM   23  O   UNL     1       5.842  26.482  51.462  1.00  0.00    -0.269 OA
HETATM   24  H   UNL     1       3.281  27.215  53.225  1.00  0.00     0.190 HD
BRANCH  22  25
HETATM   25  C   UNL     1       4.214  28.228  51.032  1.00  0.00     0.280 C 
BRANCH  25  26
HETATM   26  O   UNL     1       4.663  28.116  49.684  1.00  0.00    -0.342 OA
BRANCH  26  27
HETATM   27  C   UNL     1       3.801  27.480  48.835  1.00  0.00     0.069 A 
HETATM   28  C   UNL     1       2.578  27.999  48.403  1.00  0.00     0.043 A 
HETATM   29  C   UNL     1       1.772  27.270  47.514  1.00  0.00    -0.059 A 
HETATM   30  C   UNL     1       0.476  27.837  47.014  1.00  0.00     0.048 C 
HETATM   31  C   UNL     1       2.219  26.027  47.046  1.00  0.00     0.007 A 
HETATM   32  C   UNL     1       3.447  25.517  47.465  1.00  0.00     0.003 A 
HETATM   33  C   UNL     1       4.238  26.247  48.351  1.00  0.00     0.037 A 
ENDBRANCH  26  27
ENDBRANCH  25  26
ENDBRANCH  22  25
ENDBRANCH   1  21
TORSDOF 8
ENDMDL
MODEL 6
REMARK VINA RESULT:      -9.0      2.513      9.306
REMARK  8 active torsions:
REMARK  status: ('A' for Active; 'I' for Inactive)
REMARK    1  A    between atoms: C_4  and  O_5 
REMARK    2  A    between atoms: O_5  and  C_6 
REMARK    3  A    between atoms: C_6  and  C_7 
REMARK       I    between atoms: C_7  and  N_8 
REMARK    4  A    between atoms: N_8  and  N_9 
REMARK       I    between atoms: N_9  and  C_10 
REMARK    5  A    between atoms: C_10  and  C_11 
REMARK    6  A    between atoms: C_11  and  C_12 
REMARK    7  A    between atoms: C_12  and  N_13 
REMARK    8  A    between atoms: C_12  and  C_17 
REMARK       I    between atoms: N_13  and  C_14 
REMARK       I    between atoms: C_14  and  N_15 
ROOT
HETATM    1  N   UNL     1       8.947  28.796  56.427  1.00  0.00    -0.267 N 
HETATM    2  C   UNL     1       7.823  28.913  55.632  1.00  0.00     0.238 C 
HETATM    3  O   UNL     1       6.902  29.695  55.868  1.00  0.00    -0.272 OA
HETATM    4  H   UNL     1       9.812  28.396  56.078  1.00  0.00     0.190 HD
ENDROOT
BRANCH   2   5
HETATM    5  C   UNL     1       7.805  27.988  54.434  1.00  0.00     0.134 C 
BRANCH   5   6
HETATM    6  C   UNL     1       6.789  26.843  54.598  1.00  0.00     0.129 C 
BRANCH   6   7
HETATM    7  N   UNL     1       5.636  27.036  53.727  1.00  0.00    -0.339 N 
HETATM    8  C   UNL     1       4.485  27.601  54.182  1.00  0.00     0.292 C 
HETATM    9  N   UNL     1       3.529  27.665  53.223  1.00  0.00    -0.254 NA
HETATM   10  O   UNL     1       4.289  28.020  55.312  1.00  0.00    -0.254 OA
HETATM   11  H   UNL     1       3.848  27.905  52.296  1.00  0.00     0.128 HD
HETATM   12  H   UNL     1       2.713  28.186  53.524  1.00  0.00     0.128 HD
HETATM   13  H   UNL     1       5.541  26.441  52.915  1.00  0.00     0.164 HD
ENDBRANCH   6   7
BRANCH   6  14
HETATM   14  C   UNL     1       7.377  25.458  54.327  1.00  0.00    -0.013 A 
HETATM   15  C   UNL     1       7.968  24.695  55.356  1.00  0.00     0.042 A 
HETATM   16 CL   UNL     1       8.101  25.275  56.980  1.00  0.00    -0.084 Cl
HETATM   17  C   UNL     1       8.460  23.408  55.106  1.00  0.00     0.024 A 
HETATM   18  C   UNL     1       8.370  22.854  53.833  1.00  0.00     0.002 A 
HETATM   19  C   UNL     1       7.776  23.581  52.806  1.00  0.00     0.001 A 
HETATM   20  C   UNL     1       7.278  24.864  53.052  1.00  0.00     0.011 A 
ENDBRANCH   6  14
ENDBRANCH   5   6
ENDBRANCH   2   5
BRANCH   1  21
HETATM   21  N   UNL     1       9.070  29.671  57.513  1.00  0.00    -0.266 N 
HETATM   22  C   UNL     1      10.234  30.411  57.619  1.00  0.00     0.260 C 
HETATM   23  O   UNL     1      11.236  30.188  56.939  1.00  0.00    -0.269 OA
HETATM   24  H   UNL     1       8.193  30.019  57.897  1.00  0.00     0.190 HD
BRANCH  22  25
HETATM   25  C   UNL     1      10.157  31.530  58.647  1.00  0.00     0.280 C 
BRANCH  25  26
HETATM   26  O   UNL     1       8.801  31.956  58.744  1.00  0.00    -0.342 OA
BRANCH  26  27
HETATM   27  C   UNL     1       8.327  32.107  60.018  1.00  0.00     0.069 A 
HETATM   28  C   UNL     1       7.000  32.391  60.347  1.00  0.00     0.043 A 
HETATM   29  C   UNL     1       6.612  32.510  61.691  1.00  0.00    -0.059 A 
HETATM   30  C   UNL     1       5.181  32.777  62.055  1.00  0.00     0.048 C 
HETATM   31  C   UNL     1       7.565  32.316  62.698  1.00  0.00     0.007 A 
HETATM   32  C   UNL     1       8.886  32.015  62.370  1.00  0.00     0.003 A 
HETATM   33  C   UNL     1       9.263  31.904  61.032  1.00  0.00     0.037 A 
ENDBRANCH  26  27
ENDBRANCH  25  26
ENDBRANCH  22  25
ENDBRANCH   1  21
TORSDOF 8
ENDMDL
MODEL 7
REMARK VINA RESULT:      -9.0      2.483      9.211
REMARK  8 active torsions:
REMARK  status: ('A' for Active; 'I' for Inactive)
REMARK    1  A    between atoms: C_4  and  O_5 
REMARK    2  A    between atoms: O_5  and  C_6 
REMARK    3  A    between atoms: C_6  and  C_7 
REMARK       I    between atoms: C_7  and  N_8 
REMARK    4  A    between atoms: N_8  and  N_9 
REMARK       I    between atoms: N_9  and  C_10 
REMARK    5  A    between atoms: C_10  and  C_11 
REMARK    6  A    between atoms: C_11  and  C_12 
REMARK    7  A    between atoms: C_12  and  N_13 
REMARK    8  A    between atoms: C_12  and  C_17 
REMARK       I    between atoms: N_13  and  C_14 
REMARK       I    between atoms: C_14  and  N_15 
ROOT
HETATM    1  N   UNL     1       6.751  29.035  56.022  1.00  0.00    -0.267 N 
HETATM    2  C   UNL     1       7.902  28.804  55.293  1.00  0.00     0.238 C 
HETATM    3  O   UNL     1       8.983  29.338  55.543  1.00  0.00    -0.272 OA
HETATM    4  H   UNL     1       5.971  28.385  56.014  1.00  0.00     0.190 HD
ENDROOT
BRANCH   2   5
HETATM    5  C   UNL     1       7.730  27.837  54.142  1.00  0.00     0.134 C 
BRANCH   5   6
HETATM    6  C   UNL     1       6.687  26.747  54.449  1.00  0.00     0.129 C 
BRANCH   6   7
HETATM    7  N   UNL     1       5.526  26.870  53.575  1.00  0.00    -0.339 N 
HETATM    8  C   UNL     1       4.421  27.569  53.950  1.00  0.00     0.292 C 
HETATM    9  N   UNL     1       3.448  27.539  53.007  1.00  0.00    -0.254 NA
HETATM   10  O   UNL     1       4.278  28.173  55.002  1.00  0.00    -0.254 OA
HETATM   11  H   UNL     1       3.758  27.608  52.050  1.00  0.00     0.128 HD
HETATM   12  H   UNL     1       2.672  28.150  53.233  1.00  0.00     0.128 HD
HETATM   13  H   UNL     1       5.378  26.161  52.871  1.00  0.00     0.164 HD
ENDBRANCH   6   7
BRANCH   6  14
HETATM   14  C   UNL     1       7.234  25.324  54.334  1.00  0.00    -0.013 A 
HETATM   15  C   UNL     1       7.840  24.678  55.431  1.00  0.00     0.042 A 
HETATM   16 CL   UNL     1       8.040  25.448  56.967  1.00  0.00    -0.084 Cl
HETATM   17  C   UNL     1       8.296  23.358  55.328  1.00  0.00     0.024 A 
HETATM   18  C   UNL     1       8.152  22.654  54.135  1.00  0.00     0.002 A 
HETATM   19  C   UNL     1       7.542  23.266  53.045  1.00  0.00     0.001 A 
HETATM   20  C   UNL     1       7.081  24.582  53.145  1.00  0.00     0.011 A 
ENDBRANCH   6  14
ENDBRANCH   5   6
ENDBRANCH   2   5
BRANCH   1  21
HETATM   21  N   UNL     1       6.849  29.861  57.149  1.00  0.00    -0.266 N 
HETATM   22  C   UNL     1       6.032  30.977  57.205  1.00  0.00     0.260 C 
HETATM   23  O   UNL     1       5.389  31.388  56.240  1.00  0.00    -0.269 OA
HETATM   24  H   UNL     1       7.170  29.404  58.001  1.00  0.00     0.190 HD
BRANCH  22  25
HETATM   25  C   UNL     1       5.996  31.640  58.574  1.00  0.00     0.280 C 
BRANCH  25  26
HETATM   26  O   UNL     1       7.277  32.211  58.828  1.00  0.00    -0.342 OA
BRANCH  26  27
HETATM   27  C   UNL     1       7.802  31.938  60.061  1.00  0.00     0.069 A 
HETATM   28  C   UNL     1       7.484  32.629  61.233  1.00  0.00     0.043 A 
HETATM   29  C   UNL     1       8.068  32.259  62.455  1.00  0.00    -0.059 A 
HETATM   30  C   UNL     1       7.703  32.970  63.726  1.00  0.00     0.048 C 
HETATM   31  C   UNL     1       8.953  31.174  62.490  1.00  0.00     0.007 A 
HETATM   32  C   UNL     1       9.257  30.475  61.323  1.00  0.00     0.003 A 
HETATM   33  C   UNL     1       8.675  30.852  60.114  1.00  0.00     0.037 A 
ENDBRANCH  26  27
ENDBRANCH  25  26
ENDBRANCH  22  25
ENDBRANCH   1  21
TORSDOF 8
ENDMDL
MODEL 8
REMARK VINA RESULT:      -8.9      2.986      9.875
REMARK  8 active torsions:
REMARK  status: ('A' for Active; 'I' for Inactive)
REMARK    1  A    between atoms: C_4  and  O_5 
REMARK    2  A    between atoms: O_5  and  C_6 
REMARK    3  A    between atoms: C_6  and  C_7 
REMARK       I    between atoms: C_7  and  N_8 
REMARK    4  A    between atoms: N_8  and  N_9 
REMARK       I    between atoms: N_9  and  C_10 
REMARK    5  A    between atoms: C_10  and  C_11 
REMARK    6  A    between atoms: C_11  and  C_12 
REMARK    7  A    between atoms: C_12  and  N_13 
REMARK    8  A    between atoms: C_12  and  C_17 
REMARK       I    between atoms: N_13  and  C_14 
REMARK       I    between atoms: C_14  and  N_15 
ROOT
HETATM    1  N   UNL     1       7.942  28.769  55.438  1.00  0.00    -0.267 N 
HETATM    2  C   UNL     1       7.028  27.977  54.770  1.00  0.00     0.238 C 
HETATM    3  O   UNL     1       5.817  28.003  54.992  1.00  0.00    -0.272 OA
HETATM    4  H   UNL     1       8.861  28.969  55.054  1.00  0.00     0.190 HD
ENDROOT
BRANCH   2   5
HETATM    5  C   UNL     1       7.636  27.058  53.734  1.00  0.00     0.134 C 
BRANCH   5   6
HETATM    6  C   UNL     1       6.697  25.895  53.365  1.00  0.00     0.129 C 
BRANCH   6   7
HETATM    7  N   UNL     1       6.442  25.861  51.929  1.00  0.00    -0.339 N 
HETATM    8  C   UNL     1       5.410  26.550  51.371  1.00  0.00     0.292 C 
HETATM    9  N   UNL     1       5.332  26.364  50.031  1.00  0.00    -0.254 NA
HETATM   10  O   UNL     1       4.622  27.268  51.967  1.00  0.00    -0.254 OA
HETATM   11  H   UNL     1       6.212  26.333  49.537  1.00  0.00     0.128 HD
HETATM   12  H   UNL     1       4.639  26.963  49.598  1.00  0.00     0.128 HD
HETATM   13  H   UNL     1       6.776  25.067  51.400  1.00  0.00     0.164 HD
ENDBRANCH   6   7
BRANCH   6  14
HETATM   14  C   UNL     1       7.218  24.524  53.799  1.00  0.00    -0.013 A 
HETATM   15  C   UNL     1       6.953  24.010  55.085  1.00  0.00     0.042 A 
HETATM   16 CL   UNL     1       6.055  24.893  56.270  1.00  0.00    -0.084 Cl
HETATM   17  C   UNL     1       7.394  22.734  55.455  1.00  0.00     0.024 A 
HETATM   18  C   UNL     1       8.102  21.944  54.553  1.00  0.00     0.002 A 
HETATM   19  C   UNL     1       8.361  22.424  53.274  1.00  0.00     0.001 A 
HETATM   20  C   UNL     1       7.917  23.696  52.898  1.00  0.00     0.011 A 
ENDBRANCH   6  14
ENDBRANCH   5   6
ENDBRANCH   2   5
BRANCH   1  21
HETATM   21  N   UNL     1       7.448  29.699  56.360  1.00  0.00    -0.266 N 
HETATM   22  C   UNL     1       7.679  29.465  57.704  1.00  0.00     0.260 C 
HETATM   23  O   UNL     1       8.105  28.394  58.135  1.00  0.00    -0.269 OA
HETATM   24  H   UNL     1       7.334  30.648  56.007  1.00  0.00     0.190 HD
BRANCH  22  25
HETATM   25  C   UNL     1       7.367  30.658  58.596  1.00  0.00     0.280 C 
BRANCH  25  26
HETATM   26  O   UNL     1       8.172  30.563  59.768  1.00  0.00    -0.342 OA
BRANCH  26  27
HETATM   27  C   UNL     1       7.840  31.427  60.774  1.00  0.00     0.069 A 
HETATM   28  C   UNL     1       6.774  32.328  60.732  1.00  0.00     0.043 A 
HETATM   29  C   UNL     1       6.507  33.163  61.828  1.00  0.00    -0.059 A 
HETATM   30  C   UNL     1       5.339  34.106  61.807  1.00  0.00     0.048 C 
HETATM   31  C   UNL     1       7.307  33.066  62.974  1.00  0.00     0.007 A 
HETATM   32  C   UNL     1       8.361  32.155  63.021  1.00  0.00     0.003 A 
HETATM   33  C   UNL     1       8.621  31.333  61.926  1.00  0.00     0.037 A 
ENDBRANCH  26  27
ENDBRANCH  25  26
ENDBRANCH  22  25
ENDBRANCH   1  21
TORSDOF 8
ENDMDL
MODEL 9
REMARK VINA RESULT:      -8.8      2.451     10.095
REMARK  8 active torsions:
REMARK  status: ('A' for Active; 'I' for Inactive)
REMARK    1  A    between atoms: C_4  and  O_5 
REMARK    2  A    between atoms: O_5  and  C_6 
REMARK    3  A    between atoms: C_6  and  C_7 
REMARK       I    between atoms: C_7  and  N_8 
REMARK    4  A    between atoms: N_8  and  N_9 
REMARK       I    between atoms: N_9  and  C_10 
REMARK    5  A    between atoms: C_10  and  C_11 
REMARK    6  A    between atoms: C_11  and  C_12 
REMARK    7  A    between atoms: C_12  and  N_13 
REMARK    8  A    between atoms: C_12  and  C_17 
REMARK       I    between atoms: N_13  and  C_14 
REMARK       I    between atoms: C_14  and  N_15 
ROOT
HETATM    1  N   UNL     1       7.030  29.755  57.223  1.00  0.00    -0.267 N 
HETATM    2  C   UNL     1       7.589  28.492  57.188  1.00  0.00     0.238 C 
HETATM    3  O   UNL     1       7.833  27.830  58.197  1.00  0.00    -0.272 OA
HETATM    4  H   UNL     1       6.558  30.156  56.418  1.00  0.00     0.190 HD
ENDROOT
BRANCH   2   5
HETATM    5  C   UNL     1       7.889  27.979  55.797  1.00  0.00     0.134 C 
BRANCH   5   6
HETATM    6  C   UNL     1       6.751  27.102  55.242  1.00  0.00     0.129 C 
BRANCH   6   7
HETATM    7  N   UNL     1       5.835  27.887  54.424  1.00  0.00    -0.339 N 
HETATM    8  C   UNL     1       4.677  28.391  54.933  1.00  0.00     0.292 C 
HETATM    9  N   UNL     1       3.957  29.066  54.003  1.00  0.00    -0.254 NA
HETATM   10  O   UNL     1       4.291  28.276  56.086  1.00  0.00    -0.254 OA
HETATM   11  H   UNL     1       4.488  29.637  53.362  1.00  0.00     0.128 HD
HETATM   12  H   UNL     1       3.155  29.537  54.404  1.00  0.00     0.128 HD
HETATM   13  H   UNL     1       5.854  27.759  53.422  1.00  0.00     0.164 HD
ENDBRANCH   6   7
BRANCH   6  14
HETATM   14  C   UNL     1       7.241  25.912  54.418  1.00  0.00    -0.013 A 
HETATM   15  C   UNL     1       7.466  24.650  55.007  1.00  0.00     0.042 A 
HETATM   16 CL   UNL     1       7.239  24.364  56.698  1.00  0.00    -0.084 Cl
HETATM   17  C   UNL     1       7.869  23.555  54.234  1.00  0.00     0.024 A 
HETATM   18  C   UNL     1       8.050  23.691  52.860  1.00  0.00     0.002 A 
HETATM   19  C   UNL     1       7.818  24.922  52.254  1.00  0.00     0.001 A 
HETATM   20  C   UNL     1       7.411  26.017  53.022  1.00  0.00     0.011 A 
ENDBRANCH   6  14
ENDBRANCH   5   6
ENDBRANCH   2   5
BRANCH   1  21
HETATM   21  N   UNL     1       6.656  30.268  58.471  1.00  0.00    -0.266 N 
HETATM   22  C   UNL     1       7.397  31.315  58.990  1.00  0.00     0.260 C 
HETATM   23  O   UNL     1       8.476  31.673  58.518  1.00  0.00    -0.269 OA
HETATM   24  H   UNL     1       5.674  30.151  58.716  1.00  0.00     0.190 HD
BRANCH  22  25
HETATM   25  C   UNL     1       6.748  31.989  60.190  1.00  0.00     0.280 C 
BRANCH  25  26
HETATM   26  O   UNL     1       7.777  32.368  61.100  1.00  0.00    -0.342 OA
BRANCH  26  27
HETATM   27  C   UNL     1       7.354  33.056  62.203  1.00  0.00     0.069 A 
HETATM   28  C   UNL     1       6.446  34.117  62.182  1.00  0.00     0.043 A 
HETATM   29  C   UNL     1       6.064  34.748  63.376  1.00  0.00    -0.059 A 
HETATM   30  C   UNL     1       5.059  35.863  63.367  1.00  0.00     0.048 C 
HETATM   31  C   UNL     1       6.584  34.286  64.592  1.00  0.00     0.007 A 
HETATM   32  C   UNL     1       7.478  33.216  64.614  1.00  0.00     0.003 A 
HETATM   33  C   UNL     1       7.855  32.599  63.422  1.00  0.00     0.037 A 
ENDBRANCH  26  27
ENDBRANCH  25  26
ENDBRANCH  22  25
ENDBRANCH   1  21
TORSDOF 8
ENDMDL
MODEL 10
REMARK VINA RESULT:      -8.7      2.912      8.946
REMARK  8 active torsions:
REMARK  status: ('A' for Active; 'I' for Inactive)
REMARK    1  A    between atoms: C_4  and  O_5 
REMARK    2  A    between atoms: O_5  and  C_6 
REMARK    3  A    between atoms: C_6  and  C_7 
REMARK       I    between atoms: C_7  and  N_8 
REMARK    4  A    between atoms: N_8  and  N_9 
REMARK       I    between atoms: N_9  and  C_10 
REMARK    5  A    between atoms: C_10  and  C_11 
REMARK    6  A    between atoms: C_11  and  C_12 
REMARK    7  A    between atoms: C_12  and  N_13 
REMARK    8  A    between atoms: C_12  and  C_17 
REMARK       I    between atoms: N_13  and  C_14 
REMARK       I    between atoms: C_14  and  N_15 
ROOT
HETATM    1  N   UNL     1       6.135  28.368  54.570  1.00  0.00    -0.267 N 
HETATM    2  C   UNL     1       7.375  27.865  54.225  1.00  0.00     0.238 C 
HETATM    3  O   UNL     1       8.416  28.518  54.295  1.00  0.00    -0.272 OA
HETATM    4  H   UNL     1       5.355  27.762  54.803  1.00  0.00     0.190 HD
ENDROOT
BRANCH   2   5
HETATM    5  C   UNL     1       7.355  26.432  53.742  1.00  0.00     0.134 C 
BRANCH   5   6
HETATM    6  C   UNL     1       7.367  25.424  54.906  1.00  0.00     0.129 C 
BRANCH   6   7
HETATM    7  N   UNL     1       6.054  25.330  55.532  1.00  0.00    -0.339 N 
HETATM    8  C   UNL     1       5.789  25.922  56.728  1.00  0.00     0.292 C 
HETATM    9  N   UNL     1       4.520  25.692  57.147  1.00  0.00    -0.254 NA
HETATM   10  O   UNL     1       6.570  26.594  57.384  1.00  0.00    -0.254 OA
HETATM   11  H   UNL     1       3.808  25.715  56.432  1.00  0.00     0.128 HD
HETATM   12  H   UNL     1       4.285  26.223  57.977  1.00  0.00     0.128 HD
HETATM   13  H   UNL     1       5.460  24.549  55.288  1.00  0.00     0.164 HD
ENDBRANCH   6   7
BRANCH   6  14
HETATM   14  C   UNL     1       7.814  24.020  54.498  1.00  0.00    -0.013 A 
HETATM   15  C   UNL     1       8.445  23.153  55.414  1.00  0.00     0.042 A 
HETATM   16 CL   UNL     1       8.789  23.618  57.044  1.00  0.00    -0.084 Cl
HETATM   17  C   UNL     1       8.807  21.853  55.043  1.00  0.00     0.024 A 
HETATM   18  C   UNL     1       8.543  21.388  53.757  1.00  0.00     0.002 A 
HETATM   19  C   UNL     1       7.907  22.220  52.842  1.00  0.00     0.001 A 
HETATM   20  C   UNL     1       7.539  23.518  53.210  1.00  0.00     0.011 A 
ENDBRANCH   6  14
ENDBRANCH   5   6
ENDBRANCH   2   5
BRANCH   1  21
HETATM   21  N   UNL     1       6.082  29.665  55.097  1.00  0.00    -0.266 N 
HETATM   22  C   UNL     1       5.281  29.881  56.205  1.00  0.00     0.260 C 
HETATM   23  O   UNL     1       4.464  29.056  56.614  1.00  0.00    -0.269 OA
HETATM   24  H   UNL     1       6.904  30.241  54.926  1.00  0.00     0.190 HD
BRANCH  22  25
HETATM   25  C   UNL     1       5.511  31.228  56.873  1.00  0.00     0.280 C 
BRANCH  25  26
HETATM   26  O   UNL     1       5.809  31.000  58.248  1.00  0.00    -0.342 OA
BRANCH  26  27
HETATM   27  C   UNL     1       7.116  31.189  58.600  1.00  0.00     0.069 A 
HETATM   28  C   UNL     1       8.209  30.623  57.940  1.00  0.00     0.043 A 
HETATM   29  C   UNL     1       9.518  30.895  58.372  1.00  0.00    -0.059 A 
HETATM   30  C   UNL     1      10.699  30.323  57.645  1.00  0.00     0.048 C 
HETATM   31  C   UNL     1       9.715  31.758  59.457  1.00  0.00     0.007 A 
HETATM   32  C   UNL     1       8.624  32.336  60.105  1.00  0.00     0.003 A 
HETATM   33  C   UNL     1       7.329  32.057  59.671  1.00  0.00     0.037 A 
ENDBRANCH  26  27
ENDBRANCH  25  26
ENDBRANCH  22  25
ENDBRANCH   1  21
TORSDOF 8
ENDMDL
