MODEL 1
REMARK VINA RESULT:     -10.0      0.000      0.000
REMARK  10 active torsions:
REMARK  status: ('A' for Active; 'I' for Inactive)
REMARK    1  A    between atoms: O_2  and  C_3 
REMARK    2  A    between atoms: C_6  and  N_7 
REMARK       I    between atoms: N_7  and  C_8 
REMARK    3  A    between atoms: C_8  and  C_9 
REMARK    4  A    between atoms: C_9  and  C_10 
REMARK    5  A    between atoms: N_11  and  C_12 
REMARK    6  A    between atoms: C_12  and  C_13 
REMARK    7  A    between atoms: C_13  and  C_14 
REMARK    8  A    between atoms: C_16  and  O_17 
REMARK    9  A    between atoms: C_19  and  O_20 
REMARK   10  A    between atoms: N_26  and  C_27 
ROOT
HETATM    1  C   UNL     1       7.333  26.421  54.203  1.00  0.00     0.190 C 
HETATM    2  N   UNL     1       7.398  26.049  55.604  1.00  0.00    -0.319 N 
HETATM    3  C   UNL     1       7.547  24.672  55.757  1.00  0.00     0.332 C 
HETATM    4  O   UNL     1       7.367  24.113  56.829  1.00  0.00    -0.246 OA
HETATM    5  N   UNL     1       7.855  24.121  54.528  1.00  0.00    -0.232 N 
HETATM    6  C   UNL     1       7.746  25.097  53.556  1.00  0.00     0.256 C 
HETATM    7  O   UNL     1       7.877  24.986  52.342  1.00  0.00    -0.270 OA
ENDROOT
BRANCH   1   8
HETATM    8  C   UNL     1       5.921  26.789  53.746  1.00  0.00     0.138 C 
BRANCH   8   9
HETATM    9  C   UNL     1       5.821  28.248  53.375  1.00  0.00     0.224 C 
HETATM   10  N   UNL     1       5.676  28.630  52.072  1.00  0.00    -0.327 N 
HETATM   11  H   UNL     1       5.784  29.635  51.986  1.00  0.00     0.169 HD
HETATM   12  O   UNL     1       5.860  29.132  54.234  1.00  0.00    -0.273 OA
BRANCH  10  13
HETATM   13  C   UNL     1       5.367  27.944  50.883  1.00  0.00     0.034 A 
HETATM   14  C   UNL     1       4.983  26.608  50.795  1.00  0.00     0.032 A 
HETATM   15  C   UNL     1       4.634  26.047  49.560  1.00  0.00     0.039 A 
HETATM   16  C   UNL     1       4.648  26.810  48.394  1.00  0.00     0.068 A 
HETATM   17  C   UNL     1       5.042  28.142  48.468  1.00  0.00     0.039 A 
HETATM   18  C   UNL     1       5.389  28.703  49.704  1.00  0.00     0.032 A 
BRANCH  16  19
HETATM   19  O   UNL     1       4.261  26.144  47.266  1.00  0.00    -0.356 OA
HETATM   20  C   UNL     1       2.991  25.504  47.309  1.00  0.00     0.210 C 
ENDBRANCH  16  19
ENDBRANCH  10  13
ENDBRANCH   8   9
ENDBRANCH   1   8
BRANCH   2  21
HETATM   21  C   UNL     1       6.882  26.907  56.665  1.00  0.00     0.133 C 
BRANCH  21  22
HETATM   22  C   UNL     1       7.962  27.680  57.432  1.00  0.00     0.058 C 
BRANCH  22  23
HETATM   23  C   UNL     1       7.451  29.047  57.821  1.00  0.00    -0.054 A 
HETATM   24  C   UNL     1       8.313  30.012  58.361  1.00  0.00     0.046 A 
HETATM   25  C   UNL     1       7.847  31.301  58.658  1.00  0.00     0.102 A 
HETATM   26  C   UNL     1       6.500  31.632  58.401  1.00  0.00     0.101 A 
HETATM   27  C   UNL     1       5.642  30.664  57.869  1.00  0.00     0.040 A 
HETATM   28  C   UNL     1       6.116  29.384  57.579  1.00  0.00     0.010 A 
BRANCH  25  29
HETATM   29  O   UNL     1       8.624  32.307  59.176  1.00  0.00    -0.353 OA
HETATM   30  C   UNL     1       9.408  32.012  60.323  1.00  0.00     0.210 C 
ENDBRANCH  25  29
BRANCH  26  31
HETATM   31  O   UNL     1       6.125  32.917  58.706  1.00  0.00    -0.353 OA
HETATM   32  C   UNL     1       5.243  33.101  59.805  1.00  0.00     0.210 C 
ENDBRANCH  26  31
ENDBRANCH  22  23
ENDBRANCH  21  22
ENDBRANCH   2  21
BRANCH   5  33
HETATM   33  C   UNL     1       8.167  22.741  54.295  1.00  0.00     0.047 A 
HETATM   34  C   UNL     1       8.964  22.005  55.191  1.00  0.00     0.030 A 
HETATM   35  C   UNL     1       9.275  20.657  54.968  1.00  0.00     0.002 A 
HETATM   36  C   UNL     1       8.801  20.007  53.837  1.00  0.00     0.000 A 
HETATM   37  C   UNL     1       8.019  20.708  52.929  1.00  0.00     0.002 A 
HETATM   38  C   UNL     1       7.709  22.056  53.157  1.00  0.00     0.030 A 
ENDBRANCH   5  33
TORSDOF 10
ENDMDL
MODEL 2
REMARK VINA RESULT:      -9.6      1.112      1.953
REMARK  10 active torsions:
REMARK  status: ('A' for Active; 'I' for Inactive)
REMARK    1  A    between atoms: O_2  and  C_3 
REMARK    2  A    between atoms: C_6  and  N_7 
REMARK       I    between atoms: N_7  and  C_8 
REMARK    3  A    between atoms: C_8  and  C_9 
REMARK    4  A    between atoms: C_9  and  C_10 
REMARK    5  A    between atoms: N_11  and  C_12 
REMARK    6  A    between atoms: C_12  and  C_13 
REMARK    7  A    between atoms: C_13  and  C_14 
REMARK    8  A    between atoms: C_16  and  O_17 
REMARK    9  A    between atoms: C_19  and  O_20 
REMARK   10  A    between atoms: N_26  and  C_27 
ROOT
HETATM    1  C   UNL     1       7.064  26.695  53.836  1.00  0.00     0.190 C 
HETATM    2  N   UNL     1       7.748  26.665  55.115  1.00  0.00    -0.319 N 
HETATM    3  C   UNL     1       7.968  25.357  55.541  1.00  0.00     0.332 C 
HETATM    4  O   UNL     1       8.291  25.093  56.691  1.00  0.00    -0.246 OA
HETATM    5  N   UNL     1       7.708  24.498  54.490  1.00  0.00    -0.232 N 
HETATM    6  C   UNL     1       7.165  25.219  53.444  1.00  0.00     0.256 C 
HETATM    7  O   UNL     1       6.746  24.807  52.368  1.00  0.00    -0.270 OA
ENDROOT
BRANCH   1   8
HETATM    8  C   UNL     1       5.590  27.087  53.954  1.00  0.00     0.138 C 
BRANCH   8   9
HETATM    9  C   UNL     1       5.369  28.532  53.581  1.00  0.00     0.224 C 
HETATM   10  N   UNL     1       5.279  28.911  52.273  1.00  0.00    -0.327 N 
HETATM   11  H   UNL     1       5.291  29.923  52.199  1.00  0.00     0.169 HD
HETATM   12  O   UNL     1       5.257  29.407  54.444  1.00  0.00    -0.273 OA
BRANCH  10  13
HETATM   13  C   UNL     1       5.127  28.211  51.062  1.00  0.00     0.034 A 
HETATM   14  C   UNL     1       4.630  26.916  50.933  1.00  0.00     0.032 A 
HETATM   15  C   UNL     1       4.460  26.341  49.667  1.00  0.00     0.039 A 
HETATM   16  C   UNL     1       4.770  27.051  48.508  1.00  0.00     0.068 A 
HETATM   17  C   UNL     1       5.278  28.340  48.625  1.00  0.00     0.039 A 
HETATM   18  C   UNL     1       5.446  28.915  49.892  1.00  0.00     0.032 A 
BRANCH  16  19
HETATM   19  O   UNL     1       4.532  26.379  47.342  1.00  0.00    -0.356 OA
HETATM   20  C   UNL     1       3.251  25.776  47.205  1.00  0.00     0.210 C 
ENDBRANCH  16  19
ENDBRANCH  10  13
ENDBRANCH   8   9
ENDBRANCH   1   8
BRANCH   2  21
HETATM   21  C   UNL     1       7.744  27.801  56.030  1.00  0.00     0.133 C 
BRANCH  21  22
HETATM   22  C   UNL     1       8.778  28.883  55.696  1.00  0.00     0.058 C 
BRANCH  22  23
HETATM   23  C   UNL     1       8.894  29.867  56.836  1.00  0.00    -0.054 A 
HETATM   24  C   UNL     1       7.771  30.229  57.594  1.00  0.00     0.046 A 
HETATM   25  C   UNL     1       7.898  31.092  58.692  1.00  0.00     0.102 A 
HETATM   26  C   UNL     1       9.169  31.592  59.043  1.00  0.00     0.101 A 
HETATM   27  C   UNL     1      10.285  31.234  58.280  1.00  0.00     0.040 A 
HETATM   28  C   UNL     1      10.148  30.377  57.188  1.00  0.00     0.010 A 
BRANCH  25  29
HETATM   29  O   UNL     1       6.855  31.487  59.493  1.00  0.00    -0.353 OA
HETATM   30  C   UNL     1       5.863  32.325  58.920  1.00  0.00     0.210 C 
ENDBRANCH  25  29
BRANCH  26  31
HETATM   31  O   UNL     1       9.212  32.419  60.138  1.00  0.00    -0.353 OA
HETATM   32  C   UNL     1       9.681  31.867  61.360  1.00  0.00     0.210 C 
ENDBRANCH  26  31
ENDBRANCH  22  23
ENDBRANCH  21  22
ENDBRANCH   2  21
BRANCH   5  33
HETATM   33  C   UNL     1       7.903  23.078  54.515  1.00  0.00     0.047 A 
HETATM   34  C   UNL     1       8.525  22.403  53.449  1.00  0.00     0.030 A 
HETATM   35  C   UNL     1       8.717  21.014  53.465  1.00  0.00     0.002 A 
HETATM   36  C   UNL     1       8.286  20.261  54.548  1.00  0.00     0.000 A 
HETATM   37  C   UNL     1       7.662  20.897  55.612  1.00  0.00     0.002 A 
HETATM   38  C   UNL     1       7.473  22.286  55.593  1.00  0.00     0.030 A 
ENDBRANCH   5  33
TORSDOF 10
ENDMDL
MODEL 3
REMARK VINA RESULT:      -9.6      1.376      2.097
REMARK  10 active torsions:
REMARK  status: ('A' for Active; 'I' for Inactive)
REMARK    1  A    between atoms: O_2  and  C_3 
REMARK    2  A    between atoms: C_6  and  N_7 
REMARK       I    between atoms: N_7  and  C_8 
REMARK    3  A    between atoms: C_8  and  C_9 
REMARK    4  A    between atoms: C_9  and  C_10 
REMARK    5  A    between atoms: N_11  and  C_12 
REMARK    6  A    between atoms: C_12  and  C_13 
REMARK    7  A    between atoms: C_13  and  C_14 
REMARK    8  A    between atoms: C_16  and  O_17 
REMARK    9  A    between atoms: C_19  and  O_20 
REMARK   10  A    between atoms: N_26  and  C_27 
ROOT
HETATM    1  C   UNL     1       6.913  26.720  53.472  1.00  0.00     0.190 C 
HETATM    2  N   UNL     1       6.319  26.371  54.749  1.00  0.00    -0.319 N 
HETATM    3  C   UNL     1       6.456  25.010  55.016  1.00  0.00     0.332 C 
HETATM    4  O   UNL     1       5.816  24.452  55.896  1.00  0.00    -0.246 OA
HETATM    5  N   UNL     1       7.348  24.468  54.110  1.00  0.00    -0.232 N 
HETATM    6  C   UNL     1       7.662  25.422  53.162  1.00  0.00     0.256 C 
HETATM    7  O   UNL     1       8.367  25.306  52.165  1.00  0.00    -0.270 OA
ENDROOT
BRANCH   1   8
HETATM    8  C   UNL     1       5.876  26.980  52.379  1.00  0.00     0.138 C 
BRANCH   8   9
HETATM    9  C   UNL     1       5.836  28.436  51.986  1.00  0.00     0.224 C 
HETATM   10  N   UNL     1       5.234  28.831  50.827  1.00  0.00    -0.327 N 
HETATM   11  H   UNL     1       5.436  29.808  50.641  1.00  0.00     0.169 HD
HETATM   12  O   UNL     1       6.338  29.307  52.701  1.00  0.00    -0.273 OA
BRANCH  10  13
HETATM   13  C   UNL     1       4.383  28.196  49.903  1.00  0.00     0.034 A 
HETATM   14  C   UNL     1       4.699  27.062  49.158  1.00  0.00     0.032 A 
HETATM   15  C   UNL     1       3.746  26.475  48.316  1.00  0.00     0.039 A 
HETATM   16  C   UNL     1       2.459  26.999  48.212  1.00  0.00     0.068 A 
HETATM   17  C   UNL     1       2.136  28.137  48.942  1.00  0.00     0.039 A 
HETATM   18  C   UNL     1       3.089  28.723  49.786  1.00  0.00     0.032 A 
BRANCH  16  19
HETATM   19  O   UNL     1       1.625  26.313  47.374  1.00  0.00    -0.356 OA
HETATM   20  C   UNL     1       0.728  27.091  46.591  1.00  0.00     0.210 C 
ENDBRANCH  16  19
ENDBRANCH  10  13
ENDBRANCH   8   9
ENDBRANCH   1   8
BRANCH   2  21
HETATM   21  C   UNL     1       5.309  27.202  55.393  1.00  0.00     0.133 C 
BRANCH  21  22
HETATM   22  C   UNL     1       5.434  27.276  56.919  1.00  0.00     0.058 C 
BRANCH  22  23
HETATM   23  C   UNL     1       6.300  28.448  57.318  1.00  0.00    -0.054 A 
HETATM   24  C   UNL     1       5.771  29.744  57.396  1.00  0.00     0.046 A 
HETATM   25  C   UNL     1       6.565  30.814  57.832  1.00  0.00     0.102 A 
HETATM   26  C   UNL     1       7.905  30.584  58.204  1.00  0.00     0.101 A 
HETATM   27  C   UNL     1       8.431  29.291  58.118  1.00  0.00     0.040 A 
HETATM   28  C   UNL     1       7.633  28.232  57.681  1.00  0.00     0.010 A 
BRANCH  25  29
HETATM   29  O   UNL     1       6.123  32.109  57.949  1.00  0.00    -0.353 OA
HETATM   30  C   UNL     1       5.132  32.384  58.928  1.00  0.00     0.210 C 
ENDBRANCH  25  29
BRANCH  26  31
HETATM   31  O   UNL     1       8.611  31.681  58.632  1.00  0.00    -0.353 OA
HETATM   32  C   UNL     1      10.029  31.606  58.592  1.00  0.00     0.210 C 
ENDBRANCH  26  31
ENDBRANCH  22  23
ENDBRANCH  21  22
ENDBRANCH   2  21
BRANCH   5  33
HETATM   33  C   UNL     1       7.812  23.112  54.118  1.00  0.00     0.047 A 
HETATM   34  C   UNL     1       8.529  22.585  55.208  1.00  0.00     0.030 A 
HETATM   35  C   UNL     1       8.988  21.261  55.220  1.00  0.00     0.002 A 
HETATM   36  C   UNL     1       8.748  20.426  54.138  1.00  0.00     0.000 A 
HETATM   37  C   UNL     1       8.050  20.919  53.043  1.00  0.00     0.002 A 
HETATM   38  C   UNL     1       7.591  22.243  53.036  1.00  0.00     0.030 A 
ENDBRANCH   5  33
TORSDOF 10
ENDMDL
MODEL 4
REMARK VINA RESULT:      -9.5      2.143      7.111
REMARK  10 active torsions:
REMARK  status: ('A' for Active; 'I' for Inactive)
REMARK    1  A    between atoms: O_2  and  C_3 
REMARK    2  A    between atoms: C_6  and  N_7 
REMARK       I    between atoms: N_7  and  C_8 
REMARK    3  A    between atoms: C_8  and  C_9 
REMARK    4  A    between atoms: C_9  and  C_10 
REMARK    5  A    between atoms: N_11  and  C_12 
REMARK    6  A    between atoms: C_12  and  C_13 
REMARK    7  A    between atoms: C_13  and  C_14 
REMARK    8  A    between atoms: C_16  and  O_17 
REMARK    9  A    between atoms: C_19  and  O_20 
REMARK   10  A    between atoms: N_26  and  C_27 
ROOT
HETATM    1  C   UNL     1       6.834  26.402  55.260  1.00  0.00     0.190 C 
HETATM    2  N   UNL     1       7.060  26.449  53.827  1.00  0.00    -0.319 N 
HETATM    3  C   UNL     1       7.644  25.270  53.369  1.00  0.00     0.332 C 
HETATM    4  O   UNL     1       8.154  25.184  52.260  1.00  0.00    -0.246 OA
HETATM    5  N   UNL     1       7.580  24.323  54.373  1.00  0.00    -0.232 N 
HETATM    6  C   UNL     1       7.112  24.921  55.526  1.00  0.00     0.256 C 
HETATM    7  O   UNL     1       6.976  24.430  56.642  1.00  0.00    -0.270 OA
ENDROOT
BRANCH   1   8
HETATM    8  C   UNL     1       7.827  27.254  56.051  1.00  0.00     0.138 C 
BRANCH   8   9
HETATM    9  C   UNL     1       7.314  27.563  57.436  1.00  0.00     0.224 C 
HETATM   10  N   UNL     1       6.367  28.526  57.633  1.00  0.00    -0.327 N 
HETATM   11  H   UNL     1       6.256  28.712  58.624  1.00  0.00     0.169 HD
HETATM   12  O   UNL     1       7.729  26.951  58.424  1.00  0.00    -0.273 OA
BRANCH  10  13
HETATM   13  C   UNL     1       5.514  29.245  56.776  1.00  0.00     0.034 A 
HETATM   14  C   UNL     1       4.351  28.750  56.189  1.00  0.00     0.032 A 
HETATM   15  C   UNL     1       3.541  29.580  55.404  1.00  0.00     0.039 A 
HETATM   16  C   UNL     1       3.868  30.920  55.200  1.00  0.00     0.068 A 
HETATM   17  C   UNL     1       5.032  31.421  55.770  1.00  0.00     0.039 A 
HETATM   18  C   UNL     1       5.841  30.591  56.558  1.00  0.00     0.032 A 
BRANCH  16  19
HETATM   19  O   UNL     1       2.977  31.618  54.435  1.00  0.00    -0.356 OA
HETATM   20  C   UNL     1       3.182  31.584  53.028  1.00  0.00     0.210 C 
ENDBRANCH  16  19
ENDBRANCH  10  13
ENDBRANCH   8   9
ENDBRANCH   1   8
BRANCH   2  21
HETATM   21  C   UNL     1       7.135  27.703  53.088  1.00  0.00     0.133 C 
BRANCH  21  22
HETATM   22  C   UNL     1       5.771  28.302  52.723  1.00  0.00     0.058 C 
BRANCH  22  23
HETATM   23  C   UNL     1       5.359  27.861  51.338  1.00  0.00    -0.054 A 
HETATM   24  C   UNL     1       5.404  28.750  50.254  1.00  0.00     0.046 A 
HETATM   25  C   UNL     1       5.084  28.315  48.960  1.00  0.00     0.102 A 
HETATM   26  C   UNL     1       4.724  26.969  48.745  1.00  0.00     0.101 A 
HETATM   27  C   UNL     1       4.673  26.088  49.829  1.00  0.00     0.040 A 
HETATM   28  C   UNL     1       4.992  26.531  51.114  1.00  0.00     0.010 A 
BRANCH  25  29
HETATM   29  O   UNL     1       5.114  29.115  47.844  1.00  0.00    -0.353 OA
HETATM   30  C   UNL     1       4.134  30.136  47.737  1.00  0.00     0.210 C 
ENDBRANCH  25  29
BRANCH  26  31
HETATM   31  O   UNL     1       4.438  26.619  47.448  1.00  0.00    -0.353 OA
HETATM   32  C   UNL     1       3.205  25.959  47.202  1.00  0.00     0.210 C 
ENDBRANCH  26  31
ENDBRANCH  22  23
ENDBRANCH  21  22
ENDBRANCH   2  21
BRANCH   5  33
HETATM   33  C   UNL     1       8.000  22.957  54.250  1.00  0.00     0.047 A 
HETATM   34  C   UNL     1       7.611  22.163  53.157  1.00  0.00     0.030 A 
HETATM   35  C   UNL     1       8.017  20.826  53.033  1.00  0.00     0.002 A 
HETATM   36  C   UNL     1       8.820  20.246  54.004  1.00  0.00     0.000 A 
HETATM   37  C   UNL     1       9.214  21.001  55.100  1.00  0.00     0.002 A 
HETATM   38  C   UNL     1       8.807  22.338  55.219  1.00  0.00     0.030 A 
ENDBRANCH   5  33
TORSDOF 10
ENDMDL
MODEL 5
REMARK VINA RESULT:      -9.3      2.420      7.782
REMARK  10 active torsions:
REMARK  status: ('A' for Active; 'I' for Inactive)
REMARK    1  A    between atoms: O_2  and  C_3 
REMARK    2  A    between atoms: C_6  and  N_7 
REMARK       I    between atoms: N_7  and  C_8 
REMARK    3  A    between atoms: C_8  and  C_9 
REMARK    4  A    between atoms: C_9  and  C_10 
REMARK    5  A    between atoms: N_11  and  C_12 
REMARK    6  A    between atoms: C_12  and  C_13 
REMARK    7  A    between atoms: C_13  and  C_14 
REMARK    8  A    between atoms: C_16  and  O_17 
REMARK    9  A    between atoms: C_19  and  O_20 
REMARK   10  A    between atoms: N_26  and  C_27 
ROOT
HETATM    1  C   UNL     1       4.807  30.340  57.214  1.00  0.00     0.190 C 
HETATM    2  N   UNL     1       5.674  29.178  57.149  1.00  0.00    -0.319 N 
HETATM    3  C   UNL     1       6.884  29.412  57.800  1.00  0.00     0.332 C 
HETATM    4  O   UNL     1       7.853  28.680  57.654  1.00  0.00    -0.246 OA
HETATM    5  N   UNL     1       6.776  30.579  58.532  1.00  0.00    -0.232 N 
HETATM    6  C   UNL     1       5.572  31.187  58.233  1.00  0.00     0.256 C 
HETATM    7  O   UNL     1       5.141  32.265  58.629  1.00  0.00    -0.270 OA
ENDROOT
BRANCH   1   8
HETATM    8  C   UNL     1       4.723  31.098  55.888  1.00  0.00     0.138 C 
BRANCH   8   9
HETATM    9  C   UNL     1       3.295  31.252  55.427  1.00  0.00     0.224 C 
HETATM   10  N   UNL     1       2.932  30.928  54.152  1.00  0.00    -0.327 N 
HETATM   11  H   UNL     1       1.985  31.239  53.966  1.00  0.00     0.169 HD
HETATM   12  O   UNL     1       2.417  31.667  56.188  1.00  0.00    -0.273 OA
BRANCH  10  13
HETATM   13  C   UNL     1       3.564  30.231  53.105  1.00  0.00     0.034 A 
HETATM   14  C   UNL     1       4.249  30.816  52.042  1.00  0.00     0.032 A 
HETATM   15  C   UNL     1       4.899  30.020  51.090  1.00  0.00     0.039 A 
HETATM   16  C   UNL     1       4.889  28.629  51.188  1.00  0.00     0.068 A 
HETATM   17  C   UNL     1       4.198  28.035  52.238  1.00  0.00     0.039 A 
HETATM   18  C   UNL     1       3.550  28.832  53.191  1.00  0.00     0.032 A 
BRANCH  16  19
HETATM   19  O   UNL     1       5.583  27.979  50.207  1.00  0.00    -0.356 OA
HETATM   20  C   UNL     1       5.484  28.517  48.893  1.00  0.00     0.210 C 
ENDBRANCH  16  19
ENDBRANCH  10  13
ENDBRANCH   8   9
ENDBRANCH   1   8
BRANCH   2  21
HETATM   21  C   UNL     1       5.510  28.136  56.143  1.00  0.00     0.133 C 
BRANCH  21  22
HETATM   22  C   UNL     1       5.003  26.799  56.696  1.00  0.00     0.058 C 
BRANCH  22  23
HETATM   23  C   UNL     1       5.747  25.650  56.055  1.00  0.00    -0.054 A 
HETATM   24  C   UNL     1       5.710  25.450  54.668  1.00  0.00     0.046 A 
HETATM   25  C   UNL     1       6.457  24.423  54.075  1.00  0.00     0.102 A 
HETATM   26  C   UNL     1       7.260  23.589  54.879  1.00  0.00     0.101 A 
HETATM   27  C   UNL     1       7.288  23.787  56.263  1.00  0.00     0.040 A 
HETATM   28  C   UNL     1       6.540  24.812  56.845  1.00  0.00     0.010 A 
BRANCH  25  29
HETATM   29  O   UNL     1       6.487  24.166  52.726  1.00  0.00    -0.353 OA
HETATM   30  C   UNL     1       7.102  25.128  51.883  1.00  0.00     0.210 C 
ENDBRANCH  25  29
BRANCH  26  31
HETATM   31  O   UNL     1       7.971  22.615  54.222  1.00  0.00    -0.353 OA
HETATM   32  C   UNL     1       9.198  22.195  54.799  1.00  0.00     0.210 C 
ENDBRANCH  26  31
ENDBRANCH  22  23
ENDBRANCH  21  22
ENDBRANCH   2  21
BRANCH   5  33
HETATM   33  C   UNL     1       7.785  31.105  59.403  1.00  0.00     0.047 A 
HETATM   34  C   UNL     1       9.044  31.501  58.917  1.00  0.00     0.030 A 
HETATM   35  C   UNL     1      10.036  32.013  59.765  1.00  0.00     0.002 A 
HETATM   36  C   UNL     1       9.797  32.139  61.126  1.00  0.00     0.000 A 
HETATM   37  C   UNL     1       8.567  31.748  61.638  1.00  0.00     0.002 A 
HETATM   38  C   UNL     1       7.578  31.238  60.787  1.00  0.00     0.030 A 
ENDBRANCH   5  33
TORSDOF 10
ENDMDL
MODEL 6
REMARK VINA RESULT:      -9.3      1.448      8.366
REMARK  10 active torsions:
REMARK  status: ('A' for Active; 'I' for Inactive)
REMARK    1  A    between atoms: O_2  and  C_3 
REMARK    2  A    between atoms: C_6  and  N_7 
REMARK       I    between atoms: N_7  and  C_8 
REMARK    3  A    between atoms: C_8  and  C_9 
REMARK    4  A    between atoms: C_9  and  C_10 
REMARK    5  A    between atoms: N_11  and  C_12 
REMARK    6  A    between atoms: C_12  and  C_13 
REMARK    7  A    between atoms: C_13  and  C_14 
REMARK    8  A    between atoms: C_16  and  O_17 
REMARK    9  A    between atoms: C_19  and  O_20 
REMARK   10  A    between atoms: N_26  and  C_27 
ROOT
HETATM    1  C   UNL     1       5.702  26.692  54.810  1.00  0.00     0.190 C 
HETATM    2  N   UNL     1       6.515  26.701  53.609  1.00  0.00    -0.319 N 
HETATM    3  C   UNL     1       7.347  25.585  53.552  1.00  0.00     0.332 C 
HETATM    4  O   UNL     1       8.288  25.514  52.774  1.00  0.00    -0.246 OA
HETATM    5  N   UNL     1       6.947  24.684  54.520  1.00  0.00    -0.232 N 
HETATM    6  C   UNL     1       5.976  25.271  55.308  1.00  0.00     0.256 C 
HETATM    7  O   UNL     1       5.421  24.818  56.303  1.00  0.00    -0.270 OA
ENDROOT
BRANCH   1   8
HETATM    8  C   UNL     1       6.175  27.696  55.862  1.00  0.00     0.138 C 
BRANCH   8   9
HETATM    9  C   UNL     1       5.017  28.439  56.481  1.00  0.00     0.224 C 
HETATM   10  N   UNL     1       5.220  29.328  57.497  1.00  0.00    -0.327 N 
HETATM   11  H   UNL     1       4.332  29.612  57.898  1.00  0.00     0.169 HD
HETATM   12  O   UNL     1       3.862  28.271  56.084  1.00  0.00    -0.273 OA
BRANCH  10  13
HETATM   13  C   UNL     1       6.362  29.942  58.044  1.00  0.00     0.034 A 
HETATM   14  C   UNL     1       7.617  29.351  58.170  1.00  0.00     0.032 A 
HETATM   15  C   UNL     1       8.702  30.083  58.669  1.00  0.00     0.039 A 
HETATM   16  C   UNL     1       8.558  31.419  59.039  1.00  0.00     0.068 A 
HETATM   17  C   UNL     1       7.307  32.016  58.930  1.00  0.00     0.039 A 
HETATM   18  C   UNL     1       6.223  31.284  58.428  1.00  0.00     0.032 A 
BRANCH  16  19
HETATM   19  O   UNL     1       9.703  32.017  59.485  1.00  0.00    -0.356 OA
HETATM   20  C   UNL     1       9.920  32.007  60.891  1.00  0.00     0.210 C 
ENDBRANCH  16  19
ENDBRANCH  10  13
ENDBRANCH   8   9
ENDBRANCH   1   8
BRANCH   2  21
HETATM   21  C   UNL     1       6.782  27.921  52.856  1.00  0.00     0.133 C 
BRANCH  21  22
HETATM   22  C   UNL     1       5.526  28.615  52.316  1.00  0.00     0.058 C 
BRANCH  22  23
HETATM   23  C   UNL     1       5.139  28.032  50.977  1.00  0.00    -0.054 A 
HETATM   24  C   UNL     1       5.112  28.829  49.823  1.00  0.00     0.046 A 
HETATM   25  C   UNL     1       4.817  28.266  48.573  1.00  0.00     0.102 A 
HETATM   26  C   UNL     1       4.554  26.884  48.474  1.00  0.00     0.101 A 
HETATM   27  C   UNL     1       4.575  26.095  49.628  1.00  0.00     0.040 A 
HETATM   28  C   UNL     1       4.868  26.665  50.868  1.00  0.00     0.010 A 
BRANCH  25  29
HETATM   29  O   UNL     1       4.781  28.971  47.395  1.00  0.00    -0.353 OA
HETATM   30  C   UNL     1       3.679  29.839  47.177  1.00  0.00     0.210 C 
ENDBRANCH  25  29
BRANCH  26  31
HETATM   31  O   UNL     1       4.287  26.408  47.214  1.00  0.00    -0.353 OA
HETATM   32  C   UNL     1       2.992  25.878  46.973  1.00  0.00     0.210 C 
ENDBRANCH  26  31
ENDBRANCH  22  23
ENDBRANCH  21  22
ENDBRANCH   2  21
BRANCH   5  33
HETATM   33  C   UNL     1       7.505  23.377  54.715  1.00  0.00     0.047 A 
HETATM   34  C   UNL     1       7.491  22.411  53.694  1.00  0.00     0.030 A 
HETATM   35  C   UNL     1       8.032  21.131  53.879  1.00  0.00     0.002 A 
HETATM   36  C   UNL     1       8.599  20.780  55.096  1.00  0.00     0.000 A 
HETATM   37  C   UNL     1       8.621  21.710  56.127  1.00  0.00     0.002 A 
HETATM   38  C   UNL     1       8.080  22.989  55.937  1.00  0.00     0.030 A 
ENDBRANCH   5  33
TORSDOF 10
ENDMDL
MODEL 7
REMARK VINA RESULT:      -9.2      2.149      7.698
REMARK  10 active torsions:
REMARK  status: ('A' for Active; 'I' for Inactive)
REMARK    1  A    between atoms: O_2  and  C_3 
REMARK    2  A    between atoms: C_6  and  N_7 
REMARK       I    between atoms: N_7  and  C_8 
REMARK    3  A    between atoms: C_8  and  C_9 
REMARK    4  A    between atoms: C_9  and  C_10 
REMARK    5  A    between atoms: N_11  and  C_12 
REMARK    6  A    between atoms: C_12  and  C_13 
REMARK    7  A    between atoms: C_13  and  C_14 
REMARK    8  A    between atoms: C_16  and  O_17 
REMARK    9  A    between atoms: C_19  and  O_20 
REMARK   10  A    between atoms: N_26  and  C_27 
ROOT
HETATM    1  C   UNL     1       5.395  29.382  56.997  1.00  0.00     0.190 C 
HETATM    2  N   UNL     1       6.447  28.383  56.964  1.00  0.00    -0.319 N 
HETATM    3  C   UNL     1       7.580  28.818  57.648  1.00  0.00     0.332 C 
HETATM    4  O   UNL     1       8.662  28.260  57.534  1.00  0.00    -0.246 OA
HETATM    5  N   UNL     1       7.255  29.950  58.370  1.00  0.00    -0.232 N 
HETATM    6  C   UNL     1       5.975  30.346  58.034  1.00  0.00     0.256 C 
HETATM    7  O   UNL     1       5.357  31.336  58.411  1.00  0.00    -0.270 OA
ENDROOT
BRANCH   1   8
HETATM    8  C   UNL     1       5.223  30.114  55.666  1.00  0.00     0.138 C 
BRANCH   8   9
HETATM    9  C   UNL     1       3.767  30.341  55.341  1.00  0.00     0.224 C 
HETATM   10  N   UNL     1       3.263  30.009  54.117  1.00  0.00    -0.327 N 
HETATM   11  H   UNL     1       2.321  30.370  54.014  1.00  0.00     0.169 HD
HETATM   12  O   UNL     1       2.992  30.824  56.171  1.00  0.00    -0.273 OA
BRANCH  10  13
HETATM   13  C   UNL     1       3.750  29.253  53.034  1.00  0.00     0.034 A 
HETATM   14  C   UNL     1       4.277  27.966  53.117  1.00  0.00     0.032 A 
HETATM   15  C   UNL     1       4.670  27.282  51.959  1.00  0.00     0.039 A 
HETATM   16  C   UNL     1       4.533  27.862  50.700  1.00  0.00     0.068 A 
HETATM   17  C   UNL     1       4.020  29.150  50.606  1.00  0.00     0.039 A 
HETATM   18  C   UNL     1       3.624  29.834  51.764  1.00  0.00     0.032 A 
BRANCH  16  19
HETATM   19  O   UNL     1       4.932  27.073  49.658  1.00  0.00    -0.356 OA
HETATM   20  C   UNL     1       5.028  27.701  48.385  1.00  0.00     0.210 C 
ENDBRANCH  16  19
ENDBRANCH  10  13
ENDBRANCH   8   9
ENDBRANCH   1   8
BRANCH   2  21
HETATM   21  C   UNL     1       6.490  27.328  55.959  1.00  0.00     0.133 C 
BRANCH  21  22
HETATM   22  C   UNL     1       6.071  25.947  56.475  1.00  0.00     0.058 C 
BRANCH  22  23
HETATM   23  C   UNL     1       6.777  24.859  55.700  1.00  0.00    -0.054 A 
HETATM   24  C   UNL     1       7.596  23.925  56.349  1.00  0.00     0.046 A 
HETATM   25  C   UNL     1       8.194  22.879  55.632  1.00  0.00     0.102 A 
HETATM   26  C   UNL     1       7.963  22.761  54.246  1.00  0.00     0.101 A 
HETATM   27  C   UNL     1       7.152  23.699  53.601  1.00  0.00     0.040 A 
HETATM   28  C   UNL     1       6.562  24.738  54.323  1.00  0.00     0.010 A 
BRANCH  25  29
HETATM   29  O   UNL     1       8.998  21.916  56.192  1.00  0.00    -0.353 OA
HETATM   30  C   UNL     1       8.370  20.863  56.905  1.00  0.00     0.210 C 
ENDBRANCH  25  29
BRANCH  26  31
HETATM   31  O   UNL     1       8.574  21.703  53.619  1.00  0.00    -0.353 OA
HETATM   32  C   UNL     1       7.744  20.652  53.146  1.00  0.00     0.210 C 
ENDBRANCH  26  31
ENDBRANCH  22  23
ENDBRANCH  21  22
ENDBRANCH   2  21
BRANCH   5  33
HETATM   33  C   UNL     1       8.135  30.639  59.268  1.00  0.00     0.047 A 
HETATM   34  C   UNL     1       9.146  31.495  58.796  1.00  0.00     0.030 A 
HETATM   35  C   UNL     1      10.011  32.170  59.669  1.00  0.00     0.002 A 
HETATM   36  C   UNL     1       9.892  32.002  61.041  1.00  0.00     0.000 A 
HETATM   37  C   UNL     1       8.909  31.157  61.538  1.00  0.00     0.002 A 
HETATM   38  C   UNL     1       8.045  30.485  60.662  1.00  0.00     0.030 A 
ENDBRANCH   5  33
TORSDOF 10
ENDMDL
MODEL 8
REMARK VINA RESULT:      -9.2      3.090      8.371
REMARK  10 active torsions:
REMARK  status: ('A' for Active; 'I' for Inactive)
REMARK    1  A    between atoms: O_2  and  C_3 
REMARK    2  A    between atoms: C_6  and  N_7 
REMARK       I    between atoms: N_7  and  C_8 
REMARK    3  A    between atoms: C_8  and  C_9 
REMARK    4  A    between atoms: C_9  and  C_10 
REMARK    5  A    between atoms: N_11  and  C_12 
REMARK    6  A    between atoms: C_12  and  C_13 
REMARK    7  A    between atoms: C_13  and  C_14 
REMARK    8  A    between atoms: C_16  and  O_17 
REMARK    9  A    between atoms: C_19  and  O_20 
REMARK   10  A    between atoms: N_26  and  C_27 
ROOT
HETATM    1  C   UNL     1       5.874  27.829  51.860  1.00  0.00     0.190 C 
HETATM    2  N   UNL     1       5.666  26.567  51.174  1.00  0.00    -0.319 N 
HETATM    3  C   UNL     1       4.727  26.695  50.153  1.00  0.00     0.332 C 
HETATM    4  O   UNL     1       4.210  25.723  49.619  1.00  0.00    -0.246 OA
HETATM    5  N   UNL     1       4.485  28.038  49.937  1.00  0.00    -0.232 N 
HETATM    6  C   UNL     1       5.130  28.773  50.913  1.00  0.00     0.256 C 
HETATM    7  O   UNL     1       5.106  29.986  51.098  1.00  0.00    -0.270 OA
ENDROOT
BRANCH   1   8
HETATM    8  C   UNL     1       5.218  27.876  53.240  1.00  0.00     0.138 C 
BRANCH   8   9
HETATM    9  C   UNL     1       6.140  28.476  54.273  1.00  0.00     0.224 C 
HETATM   10  N   UNL     1       5.791  29.610  54.948  1.00  0.00    -0.327 N 
HETATM   11  H   UNL     1       6.581  29.960  55.479  1.00  0.00     0.169 HD
HETATM   12  O   UNL     1       7.227  27.957  54.540  1.00  0.00    -0.273 OA
BRANCH  10  13
HETATM   13  C   UNL     1       4.591  30.331  55.090  1.00  0.00     0.034 A 
HETATM   14  C   UNL     1       3.871  30.479  56.273  1.00  0.00     0.032 A 
HETATM   15  C   UNL     1       2.721  31.278  56.312  1.00  0.00     0.039 A 
HETATM   16  C   UNL     1       2.276  31.952  55.177  1.00  0.00     0.068 A 
HETATM   17  C   UNL     1       2.979  31.801  53.987  1.00  0.00     0.039 A 
HETATM   18  C   UNL     1       4.131  31.004  53.949  1.00  0.00     0.032 A 
BRANCH  16  19
HETATM   19  O   UNL     1       1.157  32.714  55.363  1.00  0.00    -0.356 OA
HETATM   20  C   UNL     1       1.364  34.100  55.609  1.00  0.00     0.210 C 
ENDBRANCH  16  19
ENDBRANCH  10  13
ENDBRANCH   8   9
ENDBRANCH   1   8
BRANCH   2  21
HETATM   21  C   UNL     1       5.999  25.285  51.781  1.00  0.00     0.133 C 
BRANCH  21  22
HETATM   22  C   UNL     1       7.499  25.071  52.021  1.00  0.00     0.058 C 
BRANCH  22  23
HETATM   23  C   UNL     1       7.716  24.102  53.159  1.00  0.00    -0.054 A 
HETATM   24  C   UNL     1       7.731  24.543  54.490  1.00  0.00     0.046 A 
HETATM   25  C   UNL     1       7.866  23.628  55.544  1.00  0.00     0.102 A 
HETATM   26  C   UNL     1       7.978  22.250  55.263  1.00  0.00     0.101 A 
HETATM   27  C   UNL     1       7.969  21.816  53.934  1.00  0.00     0.040 A 
HETATM   28  C   UNL     1       7.836  22.734  52.891  1.00  0.00     0.010 A 
BRANCH  25  29
HETATM   29  O   UNL     1       7.878  23.973  56.873  1.00  0.00    -0.353 OA
HETATM   30  C   UNL     1       8.344  25.269  57.215  1.00  0.00     0.210 C 
ENDBRANCH  25  29
BRANCH  26  31
HETATM   31  O   UNL     1       8.092  21.419  56.350  1.00  0.00    -0.353 OA
HETATM   32  C   UNL     1       9.067  20.387  56.287  1.00  0.00     0.210 C 
ENDBRANCH  26  31
ENDBRANCH  22  23
ENDBRANCH  21  22
ENDBRANCH   2  21
BRANCH   5  33
HETATM   33  C   UNL     1       3.642  28.572  48.908  1.00  0.00     0.047 A 
HETATM   34  C   UNL     1       4.171  29.301  47.828  1.00  0.00     0.030 A 
HETATM   35  C   UNL     1       3.352  29.828  46.819  1.00  0.00     0.002 A 
HETATM   36  C   UNL     1       1.977  29.644  46.867  1.00  0.00     0.000 A 
HETATM   37  C   UNL     1       1.424  28.936  47.925  1.00  0.00     0.002 A 
HETATM   38  C   UNL     1       2.247  28.410  48.930  1.00  0.00     0.030 A 
ENDBRANCH   5  33
TORSDOF 10
ENDMDL
MODEL 9
REMARK VINA RESULT:      -9.0      2.967      8.712
REMARK  10 active torsions:
REMARK  status: ('A' for Active; 'I' for Inactive)
REMARK    1  A    between atoms: O_2  and  C_3 
REMARK    2  A    between atoms: C_6  and  N_7 
REMARK       I    between atoms: N_7  and  C_8 
REMARK    3  A    between atoms: C_8  and  C_9 
REMARK    4  A    between atoms: C_9  and  C_10 
REMARK    5  A    between atoms: N_11  and  C_12 
REMARK    6  A    between atoms: C_12  and  C_13 
REMARK    7  A    between atoms: C_13  and  C_14 
REMARK    8  A    between atoms: C_16  and  O_17 
REMARK    9  A    between atoms: C_19  and  O_20 
REMARK   10  A    between atoms: N_26  and  C_27 
ROOT
HETATM    1  C   UNL     1       4.736  28.734  52.236  1.00  0.00     0.190 C 
HETATM    2  N   UNL     1       5.299  27.570  51.578  1.00  0.00    -0.319 N 
HETATM    3  C   UNL     1       4.594  27.253  50.419  1.00  0.00     0.332 C 
HETATM    4  O   UNL     1       4.725  26.178  49.851  1.00  0.00    -0.246 OA
HETATM    5  N   UNL     1       3.746  28.300  50.115  1.00  0.00    -0.232 N 
HETATM    6  C   UNL     1       3.774  29.217  51.148  1.00  0.00     0.256 C 
HETATM    7  O   UNL     1       3.115  30.243  51.279  1.00  0.00    -0.270 OA
ENDROOT
BRANCH   1   8
HETATM    8  C   UNL     1       3.942  28.385  53.495  1.00  0.00     0.138 C 
BRANCH   8   9
HETATM    9  C   UNL     1       3.868  29.552  54.447  1.00  0.00     0.224 C 
HETATM   10  N   UNL     1       4.588  29.556  55.607  1.00  0.00    -0.327 N 
HETATM   11  H   UNL     1       4.302  30.331  56.196  1.00  0.00     0.169 HD
HETATM   12  O   UNL     1       3.164  30.536  54.203  1.00  0.00    -0.273 OA
BRANCH  10  13
HETATM   13  C   UNL     1       5.639  28.764  56.106  1.00  0.00     0.034 A 
HETATM   14  C   UNL     1       5.498  27.699  56.993  1.00  0.00     0.032 A 
HETATM   15  C   UNL     1       6.611  26.936  57.370  1.00  0.00     0.039 A 
HETATM   16  C   UNL     1       7.878  27.212  56.862  1.00  0.00     0.068 A 
HETATM   17  C   UNL     1       8.032  28.281  55.986  1.00  0.00     0.039 A 
HETATM   18  C   UNL     1       6.919  29.042  55.606  1.00  0.00     0.032 A 
BRANCH  16  19
HETATM   19  O   UNL     1       8.867  26.374  57.296  1.00  0.00    -0.356 OA
HETATM   20  C   UNL     1       8.449  25.167  57.922  1.00  0.00     0.210 C 
ENDBRANCH  16  19
ENDBRANCH  10  13
ENDBRANCH   8   9
ENDBRANCH   1   8
BRANCH   2  21
HETATM   21  C   UNL     1       6.135  26.604  52.280  1.00  0.00     0.133 C 
BRANCH  21  22
HETATM   22  C   UNL     1       5.541  25.192  52.354  1.00  0.00     0.058 C 
BRANCH  22  23
HETATM   23  C   UNL     1       6.367  24.323  53.273  1.00  0.00    -0.054 A 
HETATM   24  C   UNL     1       7.259  23.372  52.759  1.00  0.00     0.046 A 
HETATM   25  C   UNL     1       8.071  22.616  53.617  1.00  0.00     0.102 A 
HETATM   26  C   UNL     1       7.995  22.821  55.010  1.00  0.00     0.101 A 
HETATM   27  C   UNL     1       7.098  23.766  55.519  1.00  0.00     0.040 A 
HETATM   28  C   UNL     1       6.293  24.512  54.657  1.00  0.00     0.010 A 
BRANCH  25  29
HETATM   29  O   UNL     1       8.978  21.675  53.197  1.00  0.00    -0.353 OA
HETATM   30  C   UNL     1       8.483  20.392  52.842  1.00  0.00     0.210 C 
ENDBRANCH  25  29
BRANCH  26  31
HETATM   31  O   UNL     1       8.831  22.052  55.781  1.00  0.00    -0.353 OA
HETATM   32  C   UNL     1       8.233  21.178  56.727  1.00  0.00     0.210 C 
ENDBRANCH  26  31
ENDBRANCH  22  23
ENDBRANCH  21  22
ENDBRANCH   2  21
BRANCH   5  33
HETATM   33  C   UNL     1       2.919  28.382  48.947  1.00  0.00     0.047 A 
HETATM   34  C   UNL     1       1.809  27.537  48.769  1.00  0.00     0.030 A 
HETATM   35  C   UNL     1       0.998  27.610  47.628  1.00  0.00     0.002 A 
HETATM   36  C   UNL     1       1.279  28.530  46.628  1.00  0.00     0.000 A 
HETATM   37  C   UNL     1       2.372  29.374  46.770  1.00  0.00     0.002 A 
HETATM   38  C   UNL     1       3.179  29.298  47.913  1.00  0.00     0.030 A 
ENDBRANCH   5  33
TORSDOF 10
ENDMDL
MODEL 10
REMARK VINA RESULT:      -8.9      2.625      8.952
REMARK  10 active torsions:
REMARK  status: ('A' for Active; 'I' for Inactive)
REMARK    1  A    between atoms: O_2  and  C_3 
REMARK    2  A    between atoms: C_6  and  N_7 
REMARK       I    between atoms: N_7  and  C_8 
REMARK    3  A    between atoms: C_8  and  C_9 
REMARK    4  A    between atoms: C_9  and  C_10 
REMARK    5  A    between atoms: N_11  and  C_12 
REMARK    6  A    between atoms: C_12  and  C_13 
REMARK    7  A    between atoms: C_13  and  C_14 
REMARK    8  A    between atoms: C_16  and  O_17 
REMARK    9  A    between atoms: C_19  and  O_20 
REMARK   10  A    between atoms: N_26  and  C_27 
ROOT
HETATM    1  C   UNL     1       6.620  27.374  55.037  1.00  0.00     0.190 C 
HETATM    2  N   UNL     1       5.653  27.104  53.989  1.00  0.00    -0.319 N 
HETATM    3  C   UNL     1       4.619  28.038  54.002  1.00  0.00     0.332 C 
HETATM    4  O   UNL     1       3.576  27.863  53.388  1.00  0.00    -0.246 OA
HETATM    5  N   UNL     1       4.975  29.083  54.833  1.00  0.00    -0.232 N 
HETATM    6  C   UNL     1       6.150  28.760  55.484  1.00  0.00     0.256 C 
HETATM    7  O   UNL     1       6.748  29.397  56.344  1.00  0.00    -0.270 OA
ENDROOT
BRANCH   1   8
HETATM    8  C   UNL     1       6.517  26.401  56.212  1.00  0.00     0.138 C 
BRANCH   8   9
HETATM    9  C   UNL     1       7.847  26.218  56.900  1.00  0.00     0.224 C 
HETATM   10  N   UNL     1       8.494  25.017  56.865  1.00  0.00    -0.327 N 
HETATM   11  H   UNL     1       9.283  25.023  57.502  1.00  0.00     0.169 HD
HETATM   12  O   UNL     1       8.389  27.147  57.504  1.00  0.00    -0.273 OA
BRANCH  10  13
HETATM   13  C   UNL     1       8.323  23.838  56.115  1.00  0.00     0.034 A 
HETATM   14  C   UNL     1       8.303  23.760  54.724  1.00  0.00     0.032 A 
HETATM   15  C   UNL     1       8.194  22.520  54.082  1.00  0.00     0.039 A 
HETATM   16  C   UNL     1       8.115  21.336  54.814  1.00  0.00     0.068 A 
HETATM   17  C   UNL     1       8.121  21.403  56.202  1.00  0.00     0.039 A 
HETATM   18  C   UNL     1       8.233  22.644  56.844  1.00  0.00     0.032 A 
BRANCH  16  19
HETATM   19  O   UNL     1       8.037  20.199  54.060  1.00  0.00    -0.356 OA
HETATM   20  C   UNL     1       8.368  20.324  52.682  1.00  0.00     0.210 C 
ENDBRANCH  16  19
ENDBRANCH  10  13
ENDBRANCH   8   9
ENDBRANCH   1   8
BRANCH   2  21
HETATM   21  C   UNL     1       5.521  25.792  53.367  1.00  0.00     0.133 C 
BRANCH  21  22
HETATM   22  C   UNL     1       6.276  25.645  52.041  1.00  0.00     0.058 C 
BRANCH  22  23
HETATM   23  C   UNL     1       5.584  26.433  50.953  1.00  0.00    -0.054 A 
HETATM   24  C   UNL     1       4.557  25.861  50.189  1.00  0.00     0.046 A 
HETATM   25  C   UNL     1       3.875  26.621  49.228  1.00  0.00     0.102 A 
HETATM   26  C   UNL     1       4.219  27.974  49.034  1.00  0.00     0.101 A 
HETATM   27  C   UNL     1       5.249  28.538  49.793  1.00  0.00     0.040 A 
HETATM   28  C   UNL     1       5.923  27.774  50.746  1.00  0.00     0.010 A 
BRANCH  25  29
HETATM   29  O   UNL     1       2.851  26.143  48.447  1.00  0.00    -0.353 OA
HETATM   30  C   UNL     1       3.171  25.184  47.451  1.00  0.00     0.210 C 
ENDBRANCH  25  29
BRANCH  26  31
HETATM   31  O   UNL     1       3.496  28.652  48.084  1.00  0.00    -0.353 OA
HETATM   32  C   UNL     1       4.181  29.621  47.304  1.00  0.00     0.210 C 
ENDBRANCH  26  31
ENDBRANCH  22  23
ENDBRANCH  21  22
ENDBRANCH   2  21
BRANCH   5  33
HETATM   33  C   UNL     1       4.207  30.276  55.037  1.00  0.00     0.047 A 
HETATM   34  C   UNL     1       3.549  30.529  56.254  1.00  0.00     0.030 A 
HETATM   35  C   UNL     1       2.794  31.693  56.459  1.00  0.00     0.002 A 
HETATM   36  C   UNL     1       2.672  32.635  55.447  1.00  0.00     0.000 A 
HETATM   37  C   UNL     1       3.304  32.411  54.231  1.00  0.00     0.002 A 
HETATM   38  C   UNL     1       4.058  31.246  54.031  1.00  0.00     0.030 A 
ENDBRANCH   5  33
TORSDOF 10
ENDMDL
