MODEL 1
REMARK VINA RESULT:     -10.1      0.000      0.000
REMARK  7 active torsions:
REMARK  status: ('A' for Active; 'I' for Inactive)
REMARK    1  A    between atoms: C_2  and  O_3 
REMARK    2  A    between atoms: O_3  and  C_4 
REMARK    3  A    between atoms: C_5  and  O_6 
REMARK    4  A    between atoms: C_9  and  C_10 
REMARK    5  A    between atoms: C_14  and  C_15 
REMARK       I    between atoms: C_15  and  N_16 
REMARK    6  A    between atoms: N_16  and  N_17 
REMARK    7  A    between atoms: C_18  and  C_19 
ROOT
HETATM    1  C   UNL     1       7.517  31.722  62.349  1.00  0.00     0.089 A 
HETATM    2  N   UNL     1       8.416  30.769  62.640  1.00  0.00    -0.174 NA
HETATM    3  N   UNL     1       8.770  30.254  61.455  1.00  0.00    -0.272 N 
HETATM    4  H   UNL     1       9.452  29.500  61.426  1.00  0.00     0.189 HD
HETATM    5  C   UNL     1       8.145  30.829  60.385  1.00  0.00     0.121 A 
HETATM    6  C   UNL     1       7.324  31.792  60.938  1.00  0.00     0.071 A 
ENDROOT
BRANCH   5   7
HETATM    7  C   UNL     1       8.411  30.385  59.039  1.00  0.00     0.289 C 
HETATM    8  N   UNL     1       7.641  29.308  58.624  1.00  0.00    -0.242 N 
HETATM    9  H   UNL     1       6.958  28.899  59.246  1.00  0.00     0.192 HD
HETATM   10  O   UNL     1       9.257  30.941  58.344  1.00  0.00    -0.264 OA
BRANCH   8  11
HETATM   11  N   UNL     1       7.806  28.781  57.373  1.00  0.00    -0.183 NA
HETATM   12  C   UNL     1       7.230  27.641  57.165  1.00  0.00     0.152 C 
BRANCH  12  13
HETATM   13  C   UNL     1       7.350  26.998  55.875  1.00  0.00     0.011 A 
HETATM   14  C   UNL     1       7.395  25.590  55.607  1.00  0.00     0.004 A 
HETATM   15  C   UNL     1       7.518  25.435  54.224  1.00  0.00     0.043 A 
HETATM   16  C   UNL     1       7.344  24.431  56.409  1.00  0.00     0.014 A 
HETATM   17  C   UNL     1       7.593  24.181  53.605  1.00  0.00     0.030 A 
HETATM   18  N   UNL     1       7.545  26.695  53.673  1.00  0.00    -0.364 N 
HETATM   19  C   UNL     1       7.539  23.049  54.424  1.00  0.00     0.002 A 
HETATM   20  C   UNL     1       7.417  23.170  55.806  1.00  0.00     0.001 A 
HETATM   21  H   UNL     1       7.628  26.889  52.685  1.00  0.00     0.165 HD
HETATM   22  C   UNL     1       7.444  27.640  54.656  1.00  0.00     0.102 A 
ENDBRANCH  12  13
ENDBRANCH   8  11
ENDBRANCH   5   7
BRANCH   1  23
HETATM   23  C   UNL     1       6.878  32.525  63.403  1.00  0.00    -0.003 A 
HETATM   24  C   UNL     1       5.482  32.703  63.444  1.00  0.00     0.053 A 
HETATM   25  C   UNL     1       4.870  33.464  64.453  1.00  0.00     0.102 A 
HETATM   26  C   UNL     1       5.672  34.034  65.456  1.00  0.00     0.102 A 
HETATM   27  C   UNL     1       7.059  33.889  65.406  1.00  0.00     0.040 A 
HETATM   28  C   UNL     1       7.657  33.136  64.395  1.00  0.00     0.017 A 
BRANCH  25  29
HETATM   29  O   UNL     1       3.523  33.706  64.517  1.00  0.00    -0.353 OA
HETATM   30  C   UNL     1       2.857  34.113  63.330  1.00  0.00     0.210 C 
ENDBRANCH  25  29
BRANCH  26  31
HETATM   31  O   UNL     1       5.225  34.806  66.497  1.00  0.00    -0.349 OA
BRANCH  31  32
HETATM   32  C   UNL     1       4.966  34.093  67.709  1.00  0.00     0.171 C 
HETATM   33  C   UNL     1       5.800  34.728  68.809  1.00  0.00     0.034 C 
ENDBRANCH  31  32
ENDBRANCH  26  31
ENDBRANCH   1  23
TORSDOF 7
ENDMDL
MODEL 2
REMARK VINA RESULT:      -9.8      1.728      2.511
REMARK  7 active torsions:
REMARK  status: ('A' for Active; 'I' for Inactive)
REMARK    1  A    between atoms: C_2  and  O_3 
REMARK    2  A    between atoms: O_3  and  C_4 
REMARK    3  A    between atoms: C_5  and  O_6 
REMARK    4  A    between atoms: C_9  and  C_10 
REMARK    5  A    between atoms: C_14  and  C_15 
REMARK       I    between atoms: C_15  and  N_16 
REMARK    6  A    between atoms: N_16  and  N_17 
REMARK    7  A    between atoms: C_18  and  C_19 
ROOT
HETATM    1  C   UNL     1       8.364  31.797  60.207  1.00  0.00     0.089 A 
HETATM    2  N   UNL     1       9.317  32.411  59.489  1.00  0.00    -0.174 NA
HETATM    3  N   UNL     1       9.644  31.537  58.529  1.00  0.00    -0.272 N 
HETATM    4  H   UNL     1      10.362  31.788  57.853  1.00  0.00     0.189 HD
HETATM    5  C   UNL     1       8.946  30.364  58.577  1.00  0.00     0.121 A 
HETATM    6  C   UNL     1       8.101  30.506  59.660  1.00  0.00     0.071 A 
ENDROOT
BRANCH   5   7
HETATM    7  C   UNL     1       9.184  29.314  57.617  1.00  0.00     0.289 C 
HETATM    8  N   UNL     1       8.270  28.271  57.666  1.00  0.00    -0.242 N 
HETATM    9  H   UNL     1       7.511  28.288  58.333  1.00  0.00     0.192 HD
HETATM   10  O   UNL     1      10.129  29.371  56.835  1.00  0.00    -0.264 OA
BRANCH   8  11
HETATM   11  N   UNL     1       8.391  27.204  56.819  1.00  0.00    -0.183 NA
HETATM   12  C   UNL     1       7.952  26.075  57.273  1.00  0.00     0.152 C 
BRANCH  12  13
HETATM   13  C   UNL     1       8.041  24.885  56.455  1.00  0.00     0.011 A 
HETATM   14  C   UNL     1       7.868  24.793  55.035  1.00  0.00     0.004 A 
HETATM   15  C   UNL     1       8.040  23.452  54.682  1.00  0.00     0.043 A 
HETATM   16  C   UNL     1       7.582  25.723  54.013  1.00  0.00     0.014 A 
HETATM   17  C   UNL     1       7.939  22.996  53.363  1.00  0.00     0.030 A 
HETATM   18  N   UNL     1       8.306  22.758  55.840  1.00  0.00    -0.364 N 
HETATM   19  C   UNL     1       7.654  23.938  52.370  1.00  0.00     0.002 A 
HETATM   20  C   UNL     1       7.478  25.282  52.688  1.00  0.00     0.001 A 
HETATM   21  H   UNL     1       8.475  21.762  55.887  1.00  0.00     0.165 HD
HETATM   22  C   UNL     1       8.309  23.609  56.909  1.00  0.00     0.102 A 
ENDBRANCH  12  13
ENDBRANCH   8  11
ENDBRANCH   5   7
BRANCH   1  23
HETATM   23  C   UNL     1       7.743  32.442  61.374  1.00  0.00    -0.003 A 
HETATM   24  C   UNL     1       6.544  33.171  61.258  1.00  0.00     0.053 A 
HETATM   25  C   UNL     1       5.947  33.782  62.372  1.00  0.00     0.102 A 
HETATM   26  C   UNL     1       6.551  33.636  63.632  1.00  0.00     0.102 A 
HETATM   27  C   UNL     1       7.756  32.942  63.752  1.00  0.00     0.040 A 
HETATM   28  C   UNL     1       8.344  32.345  62.636  1.00  0.00     0.017 A 
BRANCH  25  29
HETATM   29  O   UNL     1       4.806  34.538  62.310  1.00  0.00    -0.353 OA
HETATM   30  C   UNL     1       3.555  33.864  62.285  1.00  0.00     0.210 C 
ENDBRANCH  25  29
BRANCH  26  31
HETATM   31  O   UNL     1       6.096  34.178  64.807  1.00  0.00    -0.349 OA
BRANCH  31  32
HETATM   32  C   UNL     1       6.870  33.849  65.962  1.00  0.00     0.171 C 
HETATM   33  C   UNL     1       6.101  34.316  67.186  1.00  0.00     0.034 C 
ENDBRANCH  31  32
ENDBRANCH  26  31
ENDBRANCH   1  23
TORSDOF 7
ENDMDL
MODEL 3
REMARK VINA RESULT:      -9.5      3.135     11.758
REMARK  7 active torsions:
REMARK  status: ('A' for Active; 'I' for Inactive)
REMARK    1  A    between atoms: C_2  and  O_3 
REMARK    2  A    between atoms: O_3  and  C_4 
REMARK    3  A    between atoms: C_5  and  O_6 
REMARK    4  A    between atoms: C_9  and  C_10 
REMARK    5  A    between atoms: C_14  and  C_15 
REMARK       I    between atoms: C_15  and  N_16 
REMARK    6  A    between atoms: N_16  and  N_17 
REMARK    7  A    between atoms: C_18  and  C_19 
ROOT
HETATM    1  C   UNL     1       7.678  27.283  56.302  1.00  0.00     0.089 A 
HETATM    2  N   UNL     1       7.864  28.339  55.495  1.00  0.00    -0.174 NA
HETATM    3  N   UNL     1       7.888  29.400  56.313  1.00  0.00    -0.272 N 
HETATM    4  H   UNL     1       8.017  30.328  55.919  1.00  0.00     0.189 HD
HETATM    5  C   UNL     1       7.727  29.092  57.635  1.00  0.00     0.121 A 
HETATM    6  C   UNL     1       7.591  27.718  57.657  1.00  0.00     0.071 A 
ENDROOT
BRANCH   5   7
HETATM    7  C   UNL     1       7.722  30.120  58.646  1.00  0.00     0.289 C 
HETATM    8  N   UNL     1       6.895  31.199  58.366  1.00  0.00    -0.242 N 
HETATM    9  H   UNL     1       6.354  31.220  57.513  1.00  0.00     0.192 HD
HETATM   10  O   UNL     1       8.407  30.016  59.660  1.00  0.00    -0.264 OA
BRANCH   8  11
HETATM   11  N   UNL     1       6.811  32.250  59.238  1.00  0.00    -0.183 NA
HETATM   12  C   UNL     1       5.869  32.171  60.121  1.00  0.00     0.152 C 
BRANCH  12  13
HETATM   13  C   UNL     1       5.694  33.236  61.085  1.00  0.00     0.011 A 
HETATM   14  C   UNL     1       6.307  33.349  62.376  1.00  0.00     0.004 A 
HETATM   15  C   UNL     1       5.845  34.534  62.953  1.00  0.00     0.043 A 
HETATM   16  C   UNL     1       7.213  32.555  63.111  1.00  0.00     0.014 A 
HETATM   17  C   UNL     1       6.241  34.963  64.225  1.00  0.00     0.030 A 
HETATM   18  N   UNL     1       4.986  35.118  62.051  1.00  0.00    -0.364 N 
HETATM   19  C   UNL     1       7.140  34.158  64.931  1.00  0.00     0.002 A 
HETATM   20  C   UNL     1       7.620  32.971  64.384  1.00  0.00     0.001 A 
HETATM   21  H   UNL     1       4.500  35.992  62.201  1.00  0.00     0.165 HD
HETATM   22  C   UNL     1       4.889  34.347  60.926  1.00  0.00     0.102 A 
ENDBRANCH  12  13
ENDBRANCH   8  11
ENDBRANCH   5   7
BRANCH   1  23
HETATM   23  C   UNL     1       7.588  25.915  55.770  1.00  0.00    -0.003 A 
HETATM   24  C   UNL     1       6.961  25.646  54.539  1.00  0.00     0.053 A 
HETATM   25  C   UNL     1       6.879  24.340  54.028  1.00  0.00     0.102 A 
HETATM   26  C   UNL     1       7.463  23.289  54.753  1.00  0.00     0.102 A 
HETATM   27  C   UNL     1       8.060  23.541  55.989  1.00  0.00     0.040 A 
HETATM   28  C   UNL     1       8.128  24.841  56.491  1.00  0.00     0.017 A 
BRANCH  25  29
HETATM   29  O   UNL     1       6.244  24.017  52.858  1.00  0.00    -0.353 OA
HETATM   30  C   UNL     1       5.210  24.874  52.396  1.00  0.00     0.210 C 
ENDBRANCH  25  29
BRANCH  26  31
HETATM   31  O   UNL     1       7.458  21.966  54.391  1.00  0.00    -0.349 OA
BRANCH  31  32
HETATM   32  C   UNL     1       8.651  21.514  53.746  1.00  0.00     0.171 C 
HETATM   33  C   UNL     1       8.257  20.464  52.721  1.00  0.00     0.034 C 
ENDBRANCH  31  32
ENDBRANCH  26  31
ENDBRANCH   1  23
TORSDOF 7
ENDMDL
MODEL 4
REMARK VINA RESULT:      -9.4      2.658     11.466
REMARK  7 active torsions:
REMARK  status: ('A' for Active; 'I' for Inactive)
REMARK    1  A    between atoms: C_2  and  O_3 
REMARK    2  A    between atoms: O_3  and  C_4 
REMARK    3  A    between atoms: C_5  and  O_6 
REMARK    4  A    between atoms: C_9  and  C_10 
REMARK    5  A    between atoms: C_14  and  C_15 
REMARK       I    between atoms: C_15  and  N_16 
REMARK    6  A    between atoms: N_16  and  N_17 
REMARK    7  A    between atoms: C_18  and  C_19 
ROOT
HETATM    1  C   UNL     1       8.362  28.349  57.262  1.00  0.00     0.089 A 
HETATM    2  N   UNL     1       9.543  28.923  56.986  1.00  0.00    -0.174 NA
HETATM    3  N   UNL     1       9.580  30.023  57.751  1.00  0.00    -0.272 N 
HETATM    4  H   UNL     1      10.395  30.629  57.707  1.00  0.00     0.189 HD
HETATM    5  C   UNL     1       8.471  30.204  58.527  1.00  0.00     0.121 A 
HETATM    6  C   UNL     1       7.660  29.125  58.231  1.00  0.00     0.071 A 
ENDROOT
BRANCH   5   7
HETATM    7  C   UNL     1       8.350  31.343  59.402  1.00  0.00     0.289 C 
HETATM    8  N   UNL     1       7.407  31.198  60.410  1.00  0.00    -0.242 N 
HETATM    9  H   UNL     1       6.872  30.344  60.489  1.00  0.00     0.192 HD
HETATM   10  O   UNL     1       9.042  32.344  59.239  1.00  0.00    -0.264 OA
BRANCH   8  11
HETATM   11  N   UNL     1       7.183  32.212  61.299  1.00  0.00    -0.183 NA
HETATM   12  C   UNL     1       7.088  31.859  62.540  1.00  0.00     0.152 C 
BRANCH  12  13
HETATM   13  C   UNL     1       6.846  32.858  63.558  1.00  0.00     0.011 A 
HETATM   14  C   UNL     1       5.618  33.548  63.824  1.00  0.00     0.004 A 
HETATM   15  C   UNL     1       5.854  34.419  64.890  1.00  0.00     0.043 A 
HETATM   16  C   UNL     1       4.326  33.515  63.258  1.00  0.00     0.014 A 
HETATM   17  C   UNL     1       4.864  35.258  65.417  1.00  0.00     0.030 A 
HETATM   18  N   UNL     1       7.170  34.266  65.258  1.00  0.00    -0.364 N 
HETATM   19  C   UNL     1       3.593  35.205  64.838  1.00  0.00     0.002 A 
HETATM   20  C   UNL     1       3.325  34.347  63.775  1.00  0.00     0.001 A 
HETATM   21  H   UNL     1       7.621  34.773  66.007  1.00  0.00     0.165 HD
HETATM   22  C   UNL     1       7.775  33.330  64.465  1.00  0.00     0.102 A 
ENDBRANCH  12  13
ENDBRANCH   8  11
ENDBRANCH   5   7
BRANCH   1  23
HETATM   23  C   UNL     1       7.941  27.101  56.606  1.00  0.00    -0.003 A 
HETATM   24  C   UNL     1       7.365  27.107  55.322  1.00  0.00     0.053 A 
HETATM   25  C   UNL     1       6.968  25.916  54.692  1.00  0.00     0.102 A 
HETATM   26  C   UNL     1       7.177  24.695  55.354  1.00  0.00     0.102 A 
HETATM   27  C   UNL     1       7.718  24.682  56.640  1.00  0.00     0.040 A 
HETATM   28  C   UNL     1       8.103  25.872  57.259  1.00  0.00     0.017 A 
BRANCH  25  29
HETATM   29  O   UNL     1       6.365  25.866  53.463  1.00  0.00    -0.353 OA
HETATM   30  C   UNL     1       5.046  26.381  53.341  1.00  0.00     0.210 C 
ENDBRANCH  25  29
BRANCH  26  31
HETATM   31  O   UNL     1       6.837  23.455  54.875  1.00  0.00    -0.349 OA
BRANCH  31  32
HETATM   32  C   UNL     1       7.919  22.526  54.785  1.00  0.00     0.171 C 
HETATM   33  C   UNL     1       8.322  22.421  53.324  1.00  0.00     0.034 C 
ENDBRANCH  31  32
ENDBRANCH  26  31
ENDBRANCH   1  23
TORSDOF 7
ENDMDL
MODEL 5
REMARK VINA RESULT:      -8.9      3.092     11.725
REMARK  7 active torsions:
REMARK  status: ('A' for Active; 'I' for Inactive)
REMARK    1  A    between atoms: C_2  and  O_3 
REMARK    2  A    between atoms: O_3  and  C_4 
REMARK    3  A    between atoms: C_5  and  O_6 
REMARK    4  A    between atoms: C_9  and  C_10 
REMARK    5  A    between atoms: C_14  and  C_15 
REMARK       I    between atoms: C_15  and  N_16 
REMARK    6  A    between atoms: N_16  and  N_17 
REMARK    7  A    between atoms: C_18  and  C_19 
ROOT
HETATM    1  C   UNL     1       7.299  27.749  57.216  1.00  0.00     0.089 A 
HETATM    2  N   UNL     1       6.042  28.216  57.166  1.00  0.00    -0.174 NA
HETATM    3  N   UNL     1       6.087  29.398  57.794  1.00  0.00    -0.272 N 
HETATM    4  H   UNL     1       5.233  29.945  57.884  1.00  0.00     0.189 HD
HETATM    5  C   UNL     1       7.325  29.740  58.259  1.00  0.00     0.121 A 
HETATM    6  C   UNL     1       8.137  28.684  57.893  1.00  0.00     0.071 A 
ENDROOT
BRANCH   5   7
HETATM    7  C   UNL     1       7.542  30.979  58.964  1.00  0.00     0.289 C 
HETATM    8  N   UNL     1       6.590  31.267  59.931  1.00  0.00    -0.242 N 
HETATM    9  H   UNL     1       5.824  30.630  60.098  1.00  0.00     0.192 HD
HETATM   10  O   UNL     1       8.504  31.697  58.702  1.00  0.00    -0.264 OA
BRANCH   8  11
HETATM   11  N   UNL     1       6.672  32.420  60.661  1.00  0.00    -0.183 NA
HETATM   12  C   UNL     1       6.146  32.374  61.842  1.00  0.00     0.152 C 
BRANCH  12  13
HETATM   13  C   UNL     1       6.177  33.546  62.691  1.00  0.00     0.011 A 
HETATM   14  C   UNL     1       5.553  34.812  62.446  1.00  0.00     0.004 A 
HETATM   15  C   UNL     1       5.852  35.640  63.530  1.00  0.00     0.043 A 
HETATM   16  C   UNL     1       4.760  35.337  61.403  1.00  0.00     0.014 A 
HETATM   17  C   UNL     1       5.401  36.962  63.624  1.00  0.00     0.030 A 
HETATM   18  N   UNL     1       6.626  34.907  64.400  1.00  0.00    -0.364 N 
HETATM   19  C   UNL     1       4.617  37.456  62.576  1.00  0.00     0.002 A 
HETATM   20  C   UNL     1       4.300  36.657  61.481  1.00  0.00     0.001 A 
HETATM   21  H   UNL     1       6.992  35.253  65.277  1.00  0.00     0.165 HD
HETATM   22  C   UNL     1       6.826  33.648  63.905  1.00  0.00     0.102 A 
ENDBRANCH  12  13
ENDBRANCH   8  11
ENDBRANCH   5   7
BRANCH   1  23
HETATM   23  C   UNL     1       7.662  26.450  56.630  1.00  0.00    -0.003 A 
HETATM   24  C   UNL     1       7.335  26.128  55.299  1.00  0.00     0.053 A 
HETATM   25  C   UNL     1       7.687  24.890  54.737  1.00  0.00     0.102 A 
HETATM   26  C   UNL     1       8.403  23.968  55.518  1.00  0.00     0.102 A 
HETATM   27  C   UNL     1       8.704  24.265  56.848  1.00  0.00     0.040 A 
HETATM   28  C   UNL     1       8.344  25.496  57.398  1.00  0.00     0.017 A 
BRANCH  25  29
HETATM   29  O   UNL     1       7.357  24.508  53.463  1.00  0.00    -0.353 OA
HETATM   30  C   UNL     1       7.982  25.180  52.379  1.00  0.00     0.210 C 
ENDBRANCH  25  29
BRANCH  26  31
HETATM   31  O   UNL     1       8.808  22.721  55.116  1.00  0.00    -0.349 OA
BRANCH  31  32
HETATM   32  C   UNL     1       8.761  21.716  56.131  1.00  0.00     0.171 C 
HETATM   33  C   UNL     1       7.653  20.742  55.771  1.00  0.00     0.034 C 
ENDBRANCH  31  32
ENDBRANCH  26  31
ENDBRANCH   1  23
TORSDOF 7
ENDMDL
MODEL 6
REMARK VINA RESULT:      -8.9      8.938     13.021
REMARK  7 active torsions:
REMARK  status: ('A' for Active; 'I' for Inactive)
REMARK    1  A    between atoms: C_2  and  O_3 
REMARK    2  A    between atoms: O_3  and  C_4 
REMARK    3  A    between atoms: C_5  and  O_6 
REMARK    4  A    between atoms: C_9  and  C_10 
REMARK    5  A    between atoms: C_14  and  C_15 
REMARK       I    between atoms: C_15  and  N_16 
REMARK    6  A    between atoms: N_16  and  N_17 
REMARK    7  A    between atoms: C_18  and  C_19 
ROOT
HETATM    1  C   UNL     1       6.228  24.946  52.716  1.00  0.00     0.089 A 
HETATM    2  N   UNL     1       4.967  25.107  53.144  1.00  0.00    -0.174 NA
HETATM    3  N   UNL     1       4.402  25.935  52.254  1.00  0.00    -0.272 N 
HETATM    4  H   UNL     1       3.430  26.206  52.377  1.00  0.00     0.189 HD
HETATM    5  C   UNL     1       5.237  26.332  51.249  1.00  0.00     0.121 A 
HETATM    6  C   UNL     1       6.435  25.700  51.522  1.00  0.00     0.071 A 
ENDROOT
BRANCH   5   7
HETATM    7  C   UNL     1       4.786  27.228  50.213  1.00  0.00     0.289 C 
HETATM    8  N   UNL     1       3.563  26.892  49.653  1.00  0.00    -0.242 N 
HETATM    9  H   UNL     1       3.060  26.078  49.976  1.00  0.00     0.192 HD
HETATM   10  O   UNL     1       5.458  28.202  49.881  1.00  0.00    -0.264 OA
BRANCH   8  11
HETATM   11  N   UNL     1       3.029  27.653  48.649  1.00  0.00    -0.183 NA
HETATM   12  C   UNL     1       2.010  28.378  48.977  1.00  0.00     0.152 C 
BRANCH  12  13
HETATM   13  C   UNL     1       1.371  29.214  47.984  1.00  0.00     0.011 A 
HETATM   14  C   UNL     1       0.601  28.786  46.854  1.00  0.00     0.004 A 
HETATM   15  C   UNL     1       0.186  29.934  46.175  1.00  0.00     0.043 A 
HETATM   16  C   UNL     1       0.217  27.529  46.339  1.00  0.00     0.014 A 
HETATM   17  C   UNL     1      -0.592  29.889  45.012  1.00  0.00     0.030 A 
HETATM   18  N   UNL     1       0.681  31.016  46.865  1.00  0.00    -0.364 N 
HETATM   19  C   UNL     1      -0.958  28.630  44.525  1.00  0.00     0.002 A 
HETATM   20  C   UNL     1      -0.561  27.467  45.177  1.00  0.00     0.001 A 
HETATM   21  H   UNL     1       0.536  31.982  46.602  1.00  0.00     0.165 HD
HETATM   22  C   UNL     1       1.394  30.595  47.953  1.00  0.00     0.102 A 
ENDBRANCH  12  13
ENDBRANCH   8  11
ENDBRANCH   5   7
BRANCH   1  23
HETATM   23  C   UNL     1       7.186  24.098  53.442  1.00  0.00    -0.003 A 
HETATM   24  C   UNL     1       7.688  24.473  54.702  1.00  0.00     0.053 A 
HETATM   25  C   UNL     1       8.598  23.661  55.399  1.00  0.00     0.102 A 
HETATM   26  C   UNL     1       8.989  22.437  54.832  1.00  0.00     0.102 A 
HETATM   27  C   UNL     1       8.521  22.072  53.569  1.00  0.00     0.040 A 
HETATM   28  C   UNL     1       7.623  22.890  52.882  1.00  0.00     0.017 A 
BRANCH  25  29
HETATM   29  O   UNL     1       9.150  23.996  56.608  1.00  0.00    -0.353 OA
HETATM   30  C   UNL     1       8.515  25.005  57.379  1.00  0.00     0.210 C 
ENDBRANCH  25  29
BRANCH  26  31
HETATM   31  O   UNL     1       9.872  21.545  55.384  1.00  0.00    -0.349 OA
BRANCH  31  32
HETATM   32  C   UNL     1       9.300  20.294  55.774  1.00  0.00     0.171 C 
HETATM   33  C   UNL     1       8.319  20.564  56.902  1.00  0.00     0.034 C 
ENDBRANCH  31  32
ENDBRANCH  26  31
ENDBRANCH   1  23
TORSDOF 7
ENDMDL
MODEL 7
REMARK VINA RESULT:      -8.6      9.517     15.010
REMARK  7 active torsions:
REMARK  status: ('A' for Active; 'I' for Inactive)
REMARK    1  A    between atoms: C_2  and  O_3 
REMARK    2  A    between atoms: O_3  and  C_4 
REMARK    3  A    between atoms: C_5  and  O_6 
REMARK    4  A    between atoms: C_9  and  C_10 
REMARK    5  A    between atoms: C_14  and  C_15 
REMARK       I    between atoms: C_15  and  N_16 
REMARK    6  A    between atoms: N_16  and  N_17 
REMARK    7  A    between atoms: C_18  and  C_19 
ROOT
HETATM    1  C   UNL     1       2.153  27.564  47.688  1.00  0.00     0.089 A 
HETATM    2  N   UNL     1       2.233  26.224  47.677  1.00  0.00    -0.174 NA
HETATM    3  N   UNL     1       3.167  25.926  48.589  1.00  0.00    -0.272 N 
HETATM    4  H   UNL     1       3.404  24.951  48.756  1.00  0.00     0.189 HD
HETATM    5  C   UNL     1       3.713  27.014  49.209  1.00  0.00     0.121 A 
HETATM    6  C   UNL     1       3.068  28.096  48.643  1.00  0.00     0.071 A 
ENDROOT
BRANCH   5   7
HETATM    7  C   UNL     1       4.738  26.865  50.213  1.00  0.00     0.289 C 
HETATM    8  N   UNL     1       4.703  25.659  50.898  1.00  0.00    -0.242 N 
HETATM    9  H   UNL     1       4.002  24.967  50.676  1.00  0.00     0.192 HD
HETATM   10  O   UNL     1       5.558  27.756  50.418  1.00  0.00    -0.264 OA
BRANCH   8  11
HETATM   11  N   UNL     1       5.611  25.398  51.886  1.00  0.00    -0.183 NA
HETATM   12  C   UNL     1       5.125  24.900  52.976  1.00  0.00     0.152 C 
BRANCH  12  13
HETATM   13  C   UNL     1       6.004  24.594  54.084  1.00  0.00     0.011 A 
HETATM   14  C   UNL     1       7.089  23.658  54.100  1.00  0.00     0.004 A 
HETATM   15  C   UNL     1       7.651  23.693  55.378  1.00  0.00     0.043 A 
HETATM   16  C   UNL     1       7.649  22.780  53.147  1.00  0.00     0.014 A 
HETATM   17  C   UNL     1       8.741  22.898  55.750  1.00  0.00     0.030 A 
HETATM   18  N   UNL     1       6.938  24.614  56.110  1.00  0.00    -0.364 N 
HETATM   19  C   UNL     1       9.276  22.037  54.787  1.00  0.00     0.002 A 
HETATM   20  C   UNL     1       8.739  21.978  53.503  1.00  0.00     0.001 A 
HETATM   21  H   UNL     1       7.123  24.850  57.076  1.00  0.00     0.165 HD
HETATM   22  C   UNL     1       5.947  25.161  55.343  1.00  0.00     0.102 A 
ENDBRANCH  12  13
ENDBRANCH   8  11
ENDBRANCH   5   7
BRANCH   1  23
HETATM   23  C   UNL     1       1.227  28.287  46.803  1.00  0.00    -0.003 A 
HETATM   24  C   UNL     1       0.317  27.603  45.976  1.00  0.00     0.053 A 
HETATM   25  C   UNL     1      -0.572  28.293  45.135  1.00  0.00     0.102 A 
HETATM   26  C   UNL     1      -0.564  29.697  45.145  1.00  0.00     0.102 A 
HETATM   27  C   UNL     1       0.356  30.384  45.938  1.00  0.00     0.040 A 
HETATM   28  C   UNL     1       1.239  29.688  46.764  1.00  0.00     0.017 A 
BRANCH  25  29
HETATM   29  O   UNL     1      -1.448  27.677  44.280  1.00  0.00    -0.353 OA
HETATM   30  C   UNL     1      -1.028  27.442  42.944  1.00  0.00     0.210 C 
ENDBRANCH  25  29
BRANCH  26  31
HETATM   31  O   UNL     1      -1.361  30.508  44.378  1.00  0.00    -0.349 OA
BRANCH  31  32
HETATM   32  C   UNL     1      -0.715  31.674  43.862  1.00  0.00     0.171 C 
HETATM   33  C   UNL     1      -0.461  31.448  42.381  1.00  0.00     0.034 C 
ENDBRANCH  31  32
ENDBRANCH  26  31
ENDBRANCH   1  23
TORSDOF 7
ENDMDL
MODEL 8
REMARK VINA RESULT:      -8.5      2.600     11.730
REMARK  7 active torsions:
REMARK  status: ('A' for Active; 'I' for Inactive)
REMARK    1  A    between atoms: C_2  and  O_3 
REMARK    2  A    between atoms: O_3  and  C_4 
REMARK    3  A    between atoms: C_5  and  O_6 
REMARK    4  A    between atoms: C_9  and  C_10 
REMARK    5  A    between atoms: C_14  and  C_15 
REMARK       I    between atoms: C_15  and  N_16 
REMARK    6  A    between atoms: N_16  and  N_17 
REMARK    7  A    between atoms: C_18  and  C_19 
ROOT
HETATM    1  C   UNL     1       7.098  29.490  57.349  1.00  0.00     0.089 A 
HETATM    2  N   UNL     1       6.270  30.465  56.944  1.00  0.00    -0.174 NA
HETATM    3  N   UNL     1       6.384  31.424  57.872  1.00  0.00    -0.272 N 
HETATM    4  H   UNL     1       5.837  32.276  57.775  1.00  0.00     0.189 HD
HETATM    5  C   UNL     1       7.257  31.128  58.880  1.00  0.00     0.121 A 
HETATM    6  C   UNL     1       7.740  29.873  58.563  1.00  0.00     0.071 A 
ENDROOT
BRANCH   5   7
HETATM    7  C   UNL     1       7.490  32.052  59.962  1.00  0.00     0.289 C 
HETATM    8  N   UNL     1       6.515  32.041  60.949  1.00  0.00    -0.242 N 
HETATM    9  H   UNL     1       5.724  31.417  60.878  1.00  0.00     0.192 HD
HETATM   10  O   UNL     1       8.483  32.775  59.976  1.00  0.00    -0.264 OA
BRANCH   8  11
HETATM   11  N   UNL     1       6.609  32.882  62.024  1.00  0.00    -0.183 NA
HETATM   12  C   UNL     1       6.235  32.385  63.158  1.00  0.00     0.152 C 
BRANCH  12  13
HETATM   13  C   UNL     1       6.292  33.197  64.355  1.00  0.00     0.011 A 
HETATM   14  C   UNL     1       5.221  33.940  64.952  1.00  0.00     0.004 A 
HETATM   15  C   UNL     1       5.736  34.572  66.086  1.00  0.00     0.043 A 
HETATM   16  C   UNL     1       3.860  34.136  64.635  1.00  0.00     0.014 A 
HETATM   17  C   UNL     1       4.960  35.389  66.917  1.00  0.00     0.030 A 
HETATM   18  N   UNL     1       7.065  34.228  66.175  1.00  0.00    -0.364 N 
HETATM   19  C   UNL     1       3.614  35.566  66.580  1.00  0.00     0.002 A 
HETATM   20  C   UNL     1       3.070  34.950  65.457  1.00  0.00     0.001 A 
HETATM   21  H   UNL     1       7.693  34.542  66.903  1.00  0.00     0.165 HD
HETATM   22  C   UNL     1       7.408  33.403  65.141  1.00  0.00     0.102 A 
ENDBRANCH  12  13
ENDBRANCH   8  11
ENDBRANCH   5   7
BRANCH   1  23
HETATM   23  C   UNL     1       7.250  28.242  56.585  1.00  0.00    -0.003 A 
HETATM   24  C   UNL     1       7.310  26.992  57.227  1.00  0.00     0.053 A 
HETATM   25  C   UNL     1       7.450  25.799  56.498  1.00  0.00     0.102 A 
HETATM   26  C   UNL     1       7.503  25.863  55.096  1.00  0.00     0.102 A 
HETATM   27  C   UNL     1       7.476  27.100  54.452  1.00  0.00     0.040 A 
HETATM   28  C   UNL     1       7.344  28.279  55.187  1.00  0.00     0.017 A 
BRANCH  25  29
HETATM   29  O   UNL     1       7.556  24.560  57.073  1.00  0.00    -0.353 OA
HETATM   30  C   UNL     1       8.839  24.126  57.500  1.00  0.00     0.210 C 
ENDBRANCH  25  29
BRANCH  26  31
HETATM   31  O   UNL     1       7.645  24.792  54.251  1.00  0.00    -0.349 OA
BRANCH  31  32
HETATM   32  C   UNL     1       6.778  24.802  53.114  1.00  0.00     0.171 C 
HETATM   33  C   UNL     1       7.646  24.836  51.867  1.00  0.00     0.034 C 
ENDBRANCH  31  32
ENDBRANCH  26  31
ENDBRANCH   1  23
TORSDOF 7
ENDMDL
MODEL 9
REMARK VINA RESULT:      -8.5      9.356     12.485
REMARK  7 active torsions:
REMARK  status: ('A' for Active; 'I' for Inactive)
REMARK    1  A    between atoms: C_2  and  O_3 
REMARK    2  A    between atoms: O_3  and  C_4 
REMARK    3  A    between atoms: C_5  and  O_6 
REMARK    4  A    between atoms: C_9  and  C_10 
REMARK    5  A    between atoms: C_14  and  C_15 
REMARK       I    between atoms: C_15  and  N_16 
REMARK    6  A    between atoms: N_16  and  N_17 
REMARK    7  A    between atoms: C_18  and  C_19 
ROOT
HETATM    1  C   UNL     1       4.887  28.861  49.800  1.00  0.00     0.089 A 
HETATM    2  N   UNL     1       3.933  28.030  49.356  1.00  0.00    -0.174 NA
HETATM    3  N   UNL     1       3.991  26.968  50.171  1.00  0.00    -0.272 N 
HETATM    4  H   UNL     1       3.350  26.193  50.022  1.00  0.00     0.189 HD
HETATM    5  C   UNL     1       4.947  27.060  51.143  1.00  0.00     0.121 A 
HETATM    6  C   UNL     1       5.545  28.286  50.927  1.00  0.00     0.071 A 
ENDROOT
BRANCH   5   7
HETATM    7  C   UNL     1       5.144  25.998  52.098  1.00  0.00     0.289 C 
HETATM    8  N   UNL     1       5.834  26.373  53.242  1.00  0.00    -0.242 N 
HETATM    9  H   UNL     1       6.151  27.325  53.358  1.00  0.00     0.192 HD
HETATM   10  O   UNL     1       4.722  24.865  51.883  1.00  0.00    -0.264 OA
BRANCH   8  11
HETATM   11  N   UNL     1       6.101  25.455  54.221  1.00  0.00    -0.183 NA
HETATM   12  C   UNL     1       7.352  25.182  54.406  1.00  0.00     0.152 C 
BRANCH  12  13
HETATM   13  C   UNL     1       7.738  24.219  55.415  1.00  0.00     0.011 A 
HETATM   14  C   UNL     1       7.916  22.807  55.246  1.00  0.00     0.004 A 
HETATM   15  C   UNL     1       8.285  22.283  56.487  1.00  0.00     0.043 A 
HETATM   16  C   UNL     1       7.799  21.922  54.153  1.00  0.00     0.014 A 
HETATM   17  C   UNL     1       8.541  20.922  56.690  1.00  0.00     0.030 A 
HETATM   18  N   UNL     1       8.330  23.333  57.375  1.00  0.00    -0.364 N 
HETATM   19  C   UNL     1       8.418  20.067  55.590  1.00  0.00     0.002 A 
HETATM   20  C   UNL     1       8.052  20.558  54.339  1.00  0.00     0.001 A 
HETATM   21  H   UNL     1       8.571  23.249  58.353  1.00  0.00     0.165 HD
HETATM   22  C   UNL     1       8.004  24.500  56.741  1.00  0.00     0.102 A 
ENDBRANCH  12  13
ENDBRANCH   8  11
ENDBRANCH   5   7
BRANCH   1  23
HETATM   23  C   UNL     1       5.145  30.156  49.151  1.00  0.00    -0.003 A 
HETATM   24  C   UNL     1       4.479  30.528  47.968  1.00  0.00     0.053 A 
HETATM   25  C   UNL     1       4.719  31.766  47.351  1.00  0.00     0.102 A 
HETATM   26  C   UNL     1       5.626  32.658  47.946  1.00  0.00     0.102 A 
HETATM   27  C   UNL     1       6.315  32.285  49.102  1.00  0.00     0.040 A 
HETATM   28  C   UNL     1       6.073  31.049  49.703  1.00  0.00     0.017 A 
BRANCH  25  29
HETATM   29  O   UNL     1       4.132  32.162  46.178  1.00  0.00    -0.353 OA
HETATM   30  C   UNL     1       4.515  31.503  44.979  1.00  0.00     0.210 C 
ENDBRANCH  25  29
BRANCH  26  31
HETATM   31  O   UNL     1       5.971  33.893  47.461  1.00  0.00    -0.349 OA
BRANCH  31  32
HETATM   32  C   UNL     1       7.371  34.183  47.491  1.00  0.00     0.171 C 
HETATM   33  C   UNL     1       7.734  34.858  46.179  1.00  0.00     0.034 C 
ENDBRANCH  31  32
ENDBRANCH  26  31
ENDBRANCH   1  23
TORSDOF 7
ENDMDL
MODEL 10
REMARK VINA RESULT:      -8.4      3.022     11.607
REMARK  7 active torsions:
REMARK  status: ('A' for Active; 'I' for Inactive)
REMARK    1  A    between atoms: C_2  and  O_3 
REMARK    2  A    between atoms: O_3  and  C_4 
REMARK    3  A    between atoms: C_5  and  O_6 
REMARK    4  A    between atoms: C_9  and  C_10 
REMARK    5  A    between atoms: C_14  and  C_15 
REMARK       I    between atoms: C_15  and  N_16 
REMARK    6  A    between atoms: N_16  and  N_17 
REMARK    7  A    between atoms: C_18  and  C_19 
ROOT
HETATM    1  C   UNL     1       7.120  28.464  57.231  1.00  0.00     0.089 A 
HETATM    2  N   UNL     1       6.048  29.150  56.807  1.00  0.00    -0.174 NA
HETATM    3  N   UNL     1       6.066  30.290  57.511  1.00  0.00    -0.272 N 
HETATM    4  H   UNL     1       5.334  30.979  57.357  1.00  0.00     0.189 HD
HETATM    5  C   UNL     1       7.109  30.391  58.387  1.00  0.00     0.121 A 
HETATM    6  C   UNL     1       7.815  29.215  58.225  1.00  0.00     0.071 A 
ENDROOT
BRANCH   5   7
HETATM    7  C   UNL     1       7.269  31.554  59.226  1.00  0.00     0.289 C 
HETATM    8  N   UNL     1       6.193  31.814  60.062  1.00  0.00    -0.242 N 
HETATM    9  H   UNL     1       5.384  31.210  60.055  1.00  0.00     0.192 HD
HETATM   10  O   UNL     1       8.290  32.235  59.176  1.00  0.00    -0.264 OA
BRANCH   8  11
HETATM   11  N   UNL     1       6.212  32.897  60.897  1.00  0.00    -0.183 NA
HETATM   12  C   UNL     1       5.054  33.363  61.236  1.00  0.00     0.152 C 
BRANCH  12  13
HETATM   13  C   UNL     1       4.968  34.511  62.113  1.00  0.00     0.011 A 
HETATM   14  C   UNL     1       4.868  34.507  63.542  1.00  0.00     0.004 A 
HETATM   15  C   UNL     1       4.806  35.839  63.959  1.00  0.00     0.043 A 
HETATM   16  C   UNL     1       4.823  33.495  64.526  1.00  0.00     0.014 A 
HETATM   17  C   UNL     1       4.701  36.209  65.305  1.00  0.00     0.030 A 
HETATM   18  N   UNL     1       4.866  36.621  62.829  1.00  0.00    -0.364 N 
HETATM   19  C   UNL     1       4.659  35.187  66.258  1.00  0.00     0.002 A 
HETATM   20  C   UNL     1       4.719  33.849  65.876  1.00  0.00     0.001 A 
HETATM   21  H   UNL     1       4.842  37.632  62.827  1.00  0.00     0.165 HD
HETATM   22  C   UNL     1       4.964  35.834  61.715  1.00  0.00     0.102 A 
ENDBRANCH  12  13
ENDBRANCH   8  11
ENDBRANCH   5   7
BRANCH   1  23
HETATM   23  C   UNL     1       7.447  27.135  56.693  1.00  0.00    -0.003 A 
HETATM   24  C   UNL     1       7.098  26.770  55.379  1.00  0.00     0.053 A 
HETATM   25  C   UNL     1       7.415  25.503  54.861  1.00  0.00     0.102 A 
HETATM   26  C   UNL     1       8.118  24.596  55.670  1.00  0.00     0.102 A 
HETATM   27  C   UNL     1       8.441  24.936  56.984  1.00  0.00     0.040 A 
HETATM   28  C   UNL     1       8.115  26.195  57.490  1.00  0.00     0.017 A 
BRANCH  25  29
HETATM   29  O   UNL     1       7.062  25.081  53.606  1.00  0.00    -0.353 OA
HETATM   30  C   UNL     1       5.714  24.695  53.382  1.00  0.00     0.210 C 
ENDBRANCH  25  29
BRANCH  26  31
HETATM   31  O   UNL     1       8.490  23.325  55.312  1.00  0.00    -0.349 OA
BRANCH  31  32
HETATM   32  C   UNL     1       7.576  22.297  55.702  1.00  0.00     0.171 C 
HETATM   33  C   UNL     1       8.373  21.203  56.390  1.00  0.00     0.034 C 
ENDBRANCH  31  32
ENDBRANCH  26  31
ENDBRANCH   1  23
TORSDOF 7
ENDMDL
