MODEL 1
REMARK VINA RESULT:      -9.1      0.000      0.000
REMARK  5 active torsions:
REMARK  status: ('A' for Active; 'I' for Inactive)
REMARK    1  A    between atoms: C_9  and  C_10 
REMARK       I    between atoms: C_10  and  N_11 
REMARK    2  A    between atoms: N_11  and  C_12 
REMARK    3  A    between atoms: C_12  and  C_13 
REMARK    4  A    between atoms: C_16  and  N_17 
REMARK       I    between atoms: N_17  and  C_18 
REMARK    5  A    between atoms: C_18  and  O_19 
ROOT
HETATM    1  C   UNL     1       7.217  25.684  55.462  1.00  0.00     0.273 C 
HETATM    2  N   UNL     1       5.853  25.715  55.277  1.00  0.00    -0.351 N 
HETATM    3  O   UNL     1       7.964  26.581  55.078  1.00  0.00    -0.266 OA
HETATM    4  H   UNL     1       5.326  24.973  55.731  1.00  0.00     0.163 HD
ENDROOT
BRANCH   2   5
HETATM    5  C   UNL     1       5.197  26.882  54.757  1.00  0.00     0.161 C 
BRANCH   5   6
HETATM    6  C   UNL     1       5.133  26.857  53.255  1.00  0.00    -0.040 A 
HETATM    7  C   UNL     1       5.163  28.045  52.517  1.00  0.00     0.011 A 
HETATM    8  C   UNL     1       5.117  28.024  51.116  1.00  0.00     0.030 A 
HETATM    9  C   UNL     1       5.033  26.814  50.426  1.00  0.00     0.036 A 
HETATM   10  C   UNL     1       4.975  25.627  51.169  1.00  0.00     0.030 A 
HETATM   11  C   UNL     1       5.020  25.645  52.567  1.00  0.00     0.011 A 
BRANCH   9  12
HETATM   12  N   UNL     1       5.001  26.681  49.027  1.00  0.00    -0.303 N 
HETATM   13  C   UNL     1       3.980  26.725  48.115  1.00  0.00     0.364 C 
HETATM   14  O   UNL     1       4.218  26.584  46.919  1.00  0.00    -0.238 OA
HETATM   15  H   UNL     1       5.888  26.540  48.563  1.00  0.00     0.171 HD
BRANCH  13  16
HETATM   16  O   UNL     1       2.742  26.939  48.622  1.00  0.00    -0.309 OA
HETATM   17  C   UNL     1       1.683  26.773  47.678  1.00  0.00     0.215 C 
ENDBRANCH  13  16
ENDBRANCH   9  12
ENDBRANCH   5   6
ENDBRANCH   2   5
BRANCH   1  18
HETATM   18  C   UNL     1       7.687  24.487  56.177  1.00  0.00     0.157 A 
HETATM   19  C   UNL     1       7.880  23.181  55.636  1.00  0.00     0.029 A 
HETATM   20  C   UNL     1       7.721  22.569  54.377  1.00  0.00     0.023 A 
HETATM   21  C   UNL     1       8.340  22.414  56.700  1.00  0.00     0.063 A 
HETATM   22  C   UNL     1       8.028  21.206  54.224  1.00  0.00    -0.061 A 
HETATM   23  C   UNL     1       7.869  20.536  52.890  1.00  0.00     0.048 C 
HETATM   24  C   UNL     1       8.489  20.469  55.323  1.00  0.00     0.009 A 
HETATM   25  C   UNL     1       8.654  21.057  56.583  1.00  0.00     0.032 A 
HETATM   26  N   UNL     1       8.390  23.269  57.765  1.00  0.00    -0.277 N 
HETATM   27  H   UNL     1       8.680  23.051  58.712  1.00  0.00     0.189 HD
HETATM   28  N   UNL     1       8.010  24.529  57.489  1.00  0.00    -0.168 NA
ENDBRANCH   1  18
TORSDOF 5
ENDMDL
MODEL 2
REMARK VINA RESULT:      -8.7      4.522      7.600
REMARK  5 active torsions:
REMARK  status: ('A' for Active; 'I' for Inactive)
REMARK    1  A    between atoms: C_9  and  C_10 
REMARK       I    between atoms: C_10  and  N_11 
REMARK    2  A    between atoms: N_11  and  C_12 
REMARK    3  A    between atoms: C_12  and  C_13 
REMARK    4  A    between atoms: C_16  and  N_17 
REMARK       I    between atoms: N_17  and  C_18 
REMARK    5  A    between atoms: C_18  and  O_19 
ROOT
HETATM    1  C   UNL     1       5.985  25.282  55.861  1.00  0.00     0.273 C 
HETATM    2  N   UNL     1       5.599  26.574  55.581  1.00  0.00    -0.351 N 
HETATM    3  O   UNL     1       5.913  24.792  56.986  1.00  0.00    -0.266 OA
HETATM    4  H   UNL     1       5.600  26.835  54.599  1.00  0.00     0.163 HD
ENDROOT
BRANCH   2   5
HETATM    5  C   UNL     1       4.939  27.385  56.566  1.00  0.00     0.161 C 
BRANCH   5   6
HETATM    6  C   UNL     1       5.868  28.414  57.147  1.00  0.00    -0.040 A 
HETATM    7  C   UNL     1       7.207  28.104  57.409  1.00  0.00     0.011 A 
HETATM    8  C   UNL     1       8.078  29.066  57.938  1.00  0.00     0.030 A 
HETATM    9  C   UNL     1       7.626  30.354  58.224  1.00  0.00     0.036 A 
HETATM   10  C   UNL     1       6.277  30.654  57.987  1.00  0.00     0.030 A 
HETATM   11  C   UNL     1       5.406  29.696  57.459  1.00  0.00     0.011 A 
BRANCH   9  12
HETATM   12  N   UNL     1       8.418  31.396  58.736  1.00  0.00    -0.303 N 
HETATM   13  C   UNL     1       8.717  31.791  60.013  1.00  0.00     0.364 C 
HETATM   14  O   UNL     1       9.458  32.752  60.202  1.00  0.00    -0.238 OA
HETATM   15  H   UNL     1       8.892  31.982  58.062  1.00  0.00     0.171 HD
BRANCH  13  16
HETATM   16  O   UNL     1       8.157  31.057  61.006  1.00  0.00    -0.309 OA
HETATM   17  C   UNL     1       9.096  30.513  61.934  1.00  0.00     0.215 C 
ENDBRANCH  13  16
ENDBRANCH   9  12
ENDBRANCH   5   6
ENDBRANCH   2   5
BRANCH   1  18
HETATM   18  C   UNL     1       6.470  24.544  54.684  1.00  0.00     0.157 A 
HETATM   19  C   UNL     1       7.150  23.290  54.673  1.00  0.00     0.029 A 
HETATM   20  C   UNL     1       7.591  22.365  55.640  1.00  0.00     0.023 A 
HETATM   21  C   UNL     1       7.382  23.017  53.330  1.00  0.00     0.063 A 
HETATM   22  C   UNL     1       8.250  21.193  55.230  1.00  0.00    -0.061 A 
HETATM   23  C   UNL     1       8.723  20.193  56.245  1.00  0.00     0.048 C 
HETATM   24  C   UNL     1       8.462  20.956  53.866  1.00  0.00     0.009 A 
HETATM   25  C   UNL     1       8.034  21.862  52.888  1.00  0.00     0.032 A 
HETATM   26  N   UNL     1       6.851  24.077  52.650  1.00  0.00    -0.277 N 
HETATM   27  H   UNL     1       6.840  24.216  51.646  1.00  0.00     0.189 HD
HETATM   28  N   UNL     1       6.286  25.015  53.430  1.00  0.00    -0.168 NA
ENDBRANCH   1  18
TORSDOF 5
ENDMDL
MODEL 3
REMARK VINA RESULT:      -8.7      4.132      7.272
REMARK  5 active torsions:
REMARK  status: ('A' for Active; 'I' for Inactive)
REMARK    1  A    between atoms: C_9  and  C_10 
REMARK       I    between atoms: C_10  and  N_11 
REMARK    2  A    between atoms: N_11  and  C_12 
REMARK    3  A    between atoms: C_12  and  C_13 
REMARK    4  A    between atoms: C_16  and  N_17 
REMARK       I    between atoms: N_17  and  C_18 
REMARK    5  A    between atoms: C_18  and  O_19 
ROOT
HETATM    1  C   UNL     1       7.251  25.291  55.319  1.00  0.00     0.273 C 
HETATM    2  N   UNL     1       6.356  26.026  56.063  1.00  0.00    -0.351 N 
HETATM    3  O   UNL     1       7.641  25.639  54.207  1.00  0.00    -0.266 OA
HETATM    4  H   UNL     1       6.190  25.697  57.011  1.00  0.00     0.163 HD
ENDROOT
BRANCH   2   5
HETATM    5  C   UNL     1       5.938  27.335  55.646  1.00  0.00     0.161 C 
BRANCH   5   6
HETATM    6  C   UNL     1       6.576  28.412  56.478  1.00  0.00    -0.040 A 
HETATM    7  C   UNL     1       7.958  28.423  56.697  1.00  0.00     0.011 A 
HETATM    8  C   UNL     1       8.558  29.434  57.460  1.00  0.00     0.030 A 
HETATM    9  C   UNL     1       7.786  30.449  58.027  1.00  0.00     0.036 A 
HETATM   10  C   UNL     1       6.399  30.420  57.830  1.00  0.00     0.030 A 
HETATM   11  C   UNL     1       5.798  29.412  57.068  1.00  0.00     0.011 A 
BRANCH   9  12
HETATM   12  N   UNL     1       8.288  31.517  58.792  1.00  0.00    -0.303 N 
HETATM   13  C   UNL     1       8.965  31.568  59.981  1.00  0.00     0.364 C 
HETATM   14  O   UNL     1       9.308  32.650  60.448  1.00  0.00    -0.238 OA
HETATM   15  H   UNL     1       8.160  32.446  58.414  1.00  0.00     0.171 HD
BRANCH  13  16
HETATM   16  O   UNL     1       9.220  30.373  60.569  1.00  0.00    -0.309 OA
HETATM   17  C   UNL     1       9.322  30.428  61.992  1.00  0.00     0.215 C 
ENDBRANCH  13  16
ENDBRANCH   9  12
ENDBRANCH   5   6
ENDBRANCH   2   5
BRANCH   1  18
HETATM   18  C   UNL     1       7.708  24.064  55.991  1.00  0.00     0.157 A 
HETATM   19  C   UNL     1       7.969  22.798  55.388  1.00  0.00     0.029 A 
HETATM   20  C   UNL     1       7.904  22.258  54.088  1.00  0.00     0.023 A 
HETATM   21  C   UNL     1       8.382  21.979  56.432  1.00  0.00     0.063 A 
HETATM   22  C   UNL     1       8.255  20.915  53.875  1.00  0.00    -0.061 A 
HETATM   23  C   UNL     1       8.197  20.322  52.497  1.00  0.00     0.048 C 
HETATM   24  C   UNL     1       8.667  20.124  54.956  1.00  0.00     0.009 A 
HETATM   25  C   UNL     1       8.739  20.639  56.257  1.00  0.00     0.032 A 
HETATM   26  N   UNL     1       8.343  22.770  57.546  1.00  0.00    -0.277 N 
HETATM   27  H   UNL     1       8.580  22.502  58.495  1.00  0.00     0.189 HD
HETATM   28  N   UNL     1       7.948  24.035  57.321  1.00  0.00    -0.168 NA
ENDBRANCH   1  18
TORSDOF 5
ENDMDL
MODEL 4
REMARK VINA RESULT:      -8.6      7.898     10.977
REMARK  5 active torsions:
REMARK  status: ('A' for Active; 'I' for Inactive)
REMARK    1  A    between atoms: C_9  and  C_10 
REMARK       I    between atoms: C_10  and  N_11 
REMARK    2  A    between atoms: N_11  and  C_12 
REMARK    3  A    between atoms: C_12  and  C_13 
REMARK    4  A    between atoms: C_16  and  N_17 
REMARK       I    between atoms: N_17  and  C_18 
REMARK    5  A    between atoms: C_18  and  O_19 
ROOT
HETATM    1  C   UNL     1       7.927  29.777  58.259  1.00  0.00     0.273 C 
HETATM    2  N   UNL     1       7.705  30.188  59.554  1.00  0.00    -0.351 N 
HETATM    3  O   UNL     1       8.915  30.113  57.611  1.00  0.00    -0.266 OA
HETATM    4  H   UNL     1       6.913  29.761  60.027  1.00  0.00     0.163 HD
ENDROOT
BRANCH   2   5
HETATM    5  C   UNL     1       8.703  30.917  60.286  1.00  0.00     0.161 C 
BRANCH   5   6
HETATM    6  C   UNL     1       8.084  31.820  61.317  1.00  0.00    -0.040 A 
HETATM    7  C   UNL     1       7.066  32.713  60.967  1.00  0.00     0.011 A 
HETATM    8  C   UNL     1       6.478  33.546  61.930  1.00  0.00     0.030 A 
HETATM    9  C   UNL     1       6.901  33.507  63.258  1.00  0.00     0.036 A 
HETATM   10  C   UNL     1       7.941  32.630  63.600  1.00  0.00     0.030 A 
HETATM   11  C   UNL     1       8.529  31.798  62.642  1.00  0.00     0.011 A 
BRANCH   9  12
HETATM   12  N   UNL     1       6.367  34.282  64.302  1.00  0.00    -0.303 N 
HETATM   13  C   UNL     1       5.126  34.330  64.879  1.00  0.00     0.364 C 
HETATM   14  O   UNL     1       4.907  35.108  65.803  1.00  0.00    -0.238 OA
HETATM   15  H   UNL     1       6.996  34.933  64.754  1.00  0.00     0.171 HD
BRANCH  13  16
HETATM   16  O   UNL     1       4.204  33.476  64.372  1.00  0.00    -0.309 OA
HETATM   17  C   UNL     1       3.141  34.114  63.662  1.00  0.00     0.215 C 
ENDBRANCH  13  16
ENDBRANCH   9  12
ENDBRANCH   5   6
ENDBRANCH   2   5
BRANCH   1  18
HETATM   18  C   UNL     1       6.879  28.885  57.738  1.00  0.00     0.157 A 
HETATM   19  C   UNL     1       7.012  27.504  57.404  1.00  0.00     0.029 A 
HETATM   20  C   UNL     1       8.048  26.549  57.421  1.00  0.00     0.023 A 
HETATM   21  C   UNL     1       5.749  27.114  56.972  1.00  0.00     0.063 A 
HETATM   22  C   UNL     1       7.786  25.233  57.003  1.00  0.00    -0.061 A 
HETATM   23  C   UNL     1       8.875  24.200  57.017  1.00  0.00     0.048 C 
HETATM   24  C   UNL     1       6.499  24.882  56.576  1.00  0.00     0.009 A 
HETATM   25  C   UNL     1       5.454  25.815  56.550  1.00  0.00     0.032 A 
HETATM   26  N   UNL     1       4.974  28.236  57.068  1.00  0.00    -0.277 N 
HETATM   27  H   UNL     1       3.991  28.322  56.833  1.00  0.00     0.189 HD
HETATM   28  N   UNL     1       5.617  29.322  57.532  1.00  0.00    -0.168 NA
ENDBRANCH   1  18
TORSDOF 5
ENDMDL
MODEL 5
REMARK VINA RESULT:      -8.6      3.857      7.336
REMARK  5 active torsions:
REMARK  status: ('A' for Active; 'I' for Inactive)
REMARK    1  A    between atoms: C_9  and  C_10 
REMARK       I    between atoms: C_10  and  N_11 
REMARK    2  A    between atoms: N_11  and  C_12 
REMARK    3  A    between atoms: C_12  and  C_13 
REMARK    4  A    between atoms: C_16  and  N_17 
REMARK       I    between atoms: N_17  and  C_18 
REMARK    5  A    between atoms: C_18  and  O_19 
ROOT
HETATM    1  C   UNL     1       5.716  28.530  54.817  1.00  0.00     0.273 C 
HETATM    2  N   UNL     1       6.819  27.934  54.247  1.00  0.00    -0.351 N 
HETATM    3  O   UNL     1       4.624  28.587  54.257  1.00  0.00    -0.266 OA
HETATM    4  H   UNL     1       7.637  27.849  54.845  1.00  0.00     0.163 HD
ENDROOT
BRANCH   2   5
HETATM    5  C   UNL     1       6.718  27.201  53.016  1.00  0.00     0.161 C 
BRANCH   5   6
HETATM    6  C   UNL     1       7.016  25.742  53.215  1.00  0.00    -0.040 A 
HETATM    7  C   UNL     1       6.571  25.069  54.358  1.00  0.00     0.011 A 
HETATM    8  C   UNL     1       6.835  23.704  54.539  1.00  0.00     0.030 A 
HETATM    9  C   UNL     1       7.557  22.987  53.585  1.00  0.00     0.036 A 
HETATM   10  C   UNL     1       8.027  23.670  52.454  1.00  0.00     0.030 A 
HETATM   11  C   UNL     1       7.764  25.032  52.271  1.00  0.00     0.011 A 
BRANCH   9  12
HETATM   12  N   UNL     1       7.860  21.617  53.659  1.00  0.00    -0.303 N 
HETATM   13  C   UNL     1       8.538  20.866  54.582  1.00  0.00     0.364 C 
HETATM   14  O   UNL     1       8.663  19.656  54.419  1.00  0.00    -0.238 OA
HETATM   15  H   UNL     1       7.510  21.032  52.912  1.00  0.00     0.171 HD
BRANCH  13  16
HETATM   16  O   UNL     1       9.030  21.542  55.649  1.00  0.00    -0.309 OA
HETATM   17  C   UNL     1       8.519  21.104  56.909  1.00  0.00     0.215 C 
ENDBRANCH  13  16
ENDBRANCH   9  12
ENDBRANCH   5   6
ENDBRANCH   2   5
BRANCH   1  18
HETATM   18  C   UNL     1       5.968  29.069  56.163  1.00  0.00     0.157 A 
HETATM   19  C   UNL     1       7.236  29.359  56.751  1.00  0.00     0.029 A 
HETATM   20  C   UNL     1       8.585  29.260  56.357  1.00  0.00     0.023 A 
HETATM   21  C   UNL     1       6.943  29.854  58.016  1.00  0.00     0.063 A 
HETATM   22  C   UNL     1       9.598  29.661  57.244  1.00  0.00    -0.061 A 
HETATM   23  C   UNL     1      11.042  29.567  56.842  1.00  0.00     0.048 C 
HETATM   24  C   UNL     1       9.259  30.155  58.510  1.00  0.00     0.009 A 
HETATM   25  C   UNL     1       7.925  30.261  58.923  1.00  0.00     0.032 A 
HETATM   26  N   UNL     1       5.579  29.830  58.104  1.00  0.00    -0.277 N 
HETATM   27  H   UNL     1       5.012  30.120  58.893  1.00  0.00     0.189 HD
HETATM   28  N   UNL     1       4.955  29.370  57.005  1.00  0.00    -0.168 NA
ENDBRANCH   1  18
TORSDOF 5
ENDMDL
MODEL 6
REMARK VINA RESULT:      -8.5      4.796      7.978
REMARK  5 active torsions:
REMARK  status: ('A' for Active; 'I' for Inactive)
REMARK    1  A    between atoms: C_9  and  C_10 
REMARK       I    between atoms: C_10  and  N_11 
REMARK    2  A    between atoms: N_11  and  C_12 
REMARK    3  A    between atoms: C_12  and  C_13 
REMARK    4  A    between atoms: C_16  and  N_17 
REMARK       I    between atoms: N_17  and  C_18 
REMARK    5  A    between atoms: C_18  and  O_19 
ROOT
HETATM    1  C   UNL     1       7.209  28.565  56.315  1.00  0.00     0.273 C 
HETATM    2  N   UNL     1       7.341  28.019  55.058  1.00  0.00    -0.351 N 
HETATM    3  O   UNL     1       6.218  28.389  57.020  1.00  0.00    -0.266 OA
HETATM    4  H   UNL     1       8.247  28.142  54.613  1.00  0.00     0.163 HD
ENDROOT
BRANCH   2   5
HETATM    5  C   UNL     1       6.385  27.075  54.551  1.00  0.00     0.161 C 
BRANCH   5   6
HETATM    6  C   UNL     1       7.014  25.735  54.291  1.00  0.00    -0.040 A 
HETATM    7  C   UNL     1       7.691  25.053  55.308  1.00  0.00     0.011 A 
HETATM    8  C   UNL     1       8.267  23.797  55.072  1.00  0.00     0.030 A 
HETATM    9  C   UNL     1       8.183  23.202  53.813  1.00  0.00     0.036 A 
HETATM   10  C   UNL     1       7.527  23.899  52.789  1.00  0.00     0.030 A 
HETATM   11  C   UNL     1       6.952  25.153  53.022  1.00  0.00     0.011 A 
BRANCH   9  12
HETATM   12  N   UNL     1       8.706  21.941  53.477  1.00  0.00    -0.303 N 
HETATM   13  C   UNL     1       8.435  20.675  53.924  1.00  0.00     0.364 C 
HETATM   14  O   UNL     1       9.039  19.715  53.456  1.00  0.00    -0.238 OA
HETATM   15  H   UNL     1       9.412  21.920  52.753  1.00  0.00     0.171 HD
BRANCH  13  16
HETATM   16  O   UNL     1       7.479  20.578  54.880  1.00  0.00    -0.309 OA
HETATM   17  C   UNL     1       7.982  20.306  56.189  1.00  0.00     0.215 C 
ENDBRANCH  13  16
ENDBRANCH   9  12
ENDBRANCH   5   6
ENDBRANCH   2   5
BRANCH   1  18
HETATM   18  C   UNL     1       8.374  29.359  56.737  1.00  0.00     0.157 A 
HETATM   19  C   UNL     1       8.467  30.215  57.874  1.00  0.00     0.029 A 
HETATM   20  C   UNL     1       7.610  30.613  58.919  1.00  0.00     0.023 A 
HETATM   21  C   UNL     1       9.761  30.721  57.841  1.00  0.00     0.063 A 
HETATM   22  C   UNL     1       8.077  31.507  59.898  1.00  0.00    -0.061 A 
HETATM   23  C   UNL     1       7.180  31.940  61.022  1.00  0.00     0.048 C 
HETATM   24  C   UNL     1       9.389  31.993  59.827  1.00  0.00     0.009 A 
HETATM   25  C   UNL     1      10.258  31.611  58.797  1.00  0.00     0.032 A 
HETATM   26  N   UNL     1      10.337  30.163  56.734  1.00  0.00    -0.277 N 
HETATM   27  H   UNL     1      11.282  30.310  56.396  1.00  0.00     0.189 HD
HETATM   28  N   UNL     1       9.535  29.331  56.046  1.00  0.00    -0.168 NA
ENDBRANCH   1  18
TORSDOF 5
ENDMDL
MODEL 7
REMARK VINA RESULT:      -8.5      6.649      9.846
REMARK  5 active torsions:
REMARK  status: ('A' for Active; 'I' for Inactive)
REMARK    1  A    between atoms: C_9  and  C_10 
REMARK       I    between atoms: C_10  and  N_11 
REMARK    2  A    between atoms: N_11  and  C_12 
REMARK    3  A    between atoms: C_12  and  C_13 
REMARK    4  A    between atoms: C_16  and  N_17 
REMARK       I    between atoms: N_17  and  C_18 
REMARK    5  A    between atoms: C_18  and  O_19 
ROOT
HETATM    1  C   UNL     1       7.110  28.140  57.270  1.00  0.00     0.273 C 
HETATM    2  N   UNL     1       7.918  28.943  58.043  1.00  0.00    -0.351 N 
HETATM    3  O   UNL     1       6.151  28.572  56.634  1.00  0.00    -0.266 OA
HETATM    4  H   UNL     1       8.743  28.497  58.436  1.00  0.00     0.163 HD
ENDROOT
BRANCH   2   5
HETATM    5  C   UNL     1       7.781  30.373  58.030  1.00  0.00     0.161 C 
BRANCH   5   6
HETATM    6  C   UNL     1       7.895  30.953  59.412  1.00  0.00    -0.040 A 
HETATM    7  C   UNL     1       8.764  30.391  60.354  1.00  0.00     0.011 A 
HETATM    8  C   UNL     1       8.884  30.939  61.639  1.00  0.00     0.030 A 
HETATM    9  C   UNL     1       8.131  32.054  62.009  1.00  0.00     0.036 A 
HETATM   10  C   UNL     1       7.241  32.597  61.072  1.00  0.00     0.030 A 
HETATM   11  C   UNL     1       7.120  32.053  59.790  1.00  0.00     0.011 A 
BRANCH   9  12
HETATM   12  N   UNL     1       8.189  32.691  63.261  1.00  0.00    -0.303 N 
HETATM   13  C   UNL     1       7.232  32.989  64.194  1.00  0.00     0.364 C 
HETATM   14  O   UNL     1       7.546  33.558  65.236  1.00  0.00    -0.238 OA
HETATM   15  H   UNL     1       9.102  32.987  63.579  1.00  0.00     0.171 HD
BRANCH  13  16
HETATM   16  O   UNL     1       5.967  32.611  63.887  1.00  0.00    -0.309 OA
HETATM   17  C   UNL     1       4.952  33.340  64.578  1.00  0.00     0.215 C 
ENDBRANCH  13  16
ENDBRANCH   9  12
ENDBRANCH   5   6
ENDBRANCH   2   5
BRANCH   1  18
HETATM   18  C   UNL     1       7.517  26.726  57.266  1.00  0.00     0.157 A 
HETATM   19  C   UNL     1       7.670  25.877  56.129  1.00  0.00     0.029 A 
HETATM   20  C   UNL     1       7.512  26.008  54.734  1.00  0.00     0.023 A 
HETATM   21  C   UNL     1       8.077  24.653  56.644  1.00  0.00     0.063 A 
HETATM   22  C   UNL     1       7.767  24.906  53.901  1.00  0.00    -0.061 A 
HETATM   23  C   UNL     1       7.608  25.026  52.413  1.00  0.00     0.048 C 
HETATM   24  C   UNL     1       8.176  23.689  54.462  1.00  0.00     0.009 A 
HETATM   25  C   UNL     1       8.339  23.537  55.845  1.00  0.00     0.032 A 
HETATM   26  N   UNL     1       8.139  24.835  57.997  1.00  0.00    -0.277 N 
HETATM   27  H   UNL     1       8.401  24.148  58.696  1.00  0.00     0.189 HD
HETATM   28  N   UNL     1       7.815  26.073  58.410  1.00  0.00    -0.168 NA
ENDBRANCH   1  18
TORSDOF 5
ENDMDL
MODEL 8
REMARK VINA RESULT:      -8.4      3.634      6.457
REMARK  5 active torsions:
REMARK  status: ('A' for Active; 'I' for Inactive)
REMARK    1  A    between atoms: C_9  and  C_10 
REMARK       I    between atoms: C_10  and  N_11 
REMARK    2  A    between atoms: N_11  and  C_12 
REMARK    3  A    between atoms: C_12  and  C_13 
REMARK    4  A    between atoms: C_16  and  N_17 
REMARK       I    between atoms: N_17  and  C_18 
REMARK    5  A    between atoms: C_18  and  O_19 
ROOT
HETATM    1  C   UNL     1       7.114  25.396  54.891  1.00  0.00     0.273 C 
HETATM    2  N   UNL     1       5.850  25.817  55.238  1.00  0.00    -0.351 N 
HETATM    3  O   UNL     1       7.774  25.926  54.001  1.00  0.00    -0.266 OA
HETATM    4  H   UNL     1       5.444  25.376  56.059  1.00  0.00     0.163 HD
ENDROOT
BRANCH   2   5
HETATM    5  C   UNL     1       5.283  27.012  54.678  1.00  0.00     0.161 C 
BRANCH   5   6
HETATM    6  C   UNL     1       5.519  28.204  55.563  1.00  0.00    -0.040 A 
HETATM    7  C   UNL     1       4.487  28.728  56.349  1.00  0.00     0.011 A 
HETATM    8  C   UNL     1       4.708  29.831  57.186  1.00  0.00     0.030 A 
HETATM    9  C   UNL     1       5.964  30.436  57.248  1.00  0.00     0.036 A 
HETATM   10  C   UNL     1       6.989  29.926  56.438  1.00  0.00     0.030 A 
HETATM   11  C   UNL     1       6.770  28.826  55.603  1.00  0.00     0.011 A 
BRANCH   9  12
HETATM   12  N   UNL     1       6.297  31.530  58.065  1.00  0.00    -0.303 N 
HETATM   13  C   UNL     1       7.123  31.660  59.149  1.00  0.00     0.364 C 
HETATM   14  O   UNL     1       7.252  32.750  59.697  1.00  0.00    -0.238 OA
HETATM   15  H   UNL     1       5.877  32.419  57.828  1.00  0.00     0.171 HD
BRANCH  13  16
HETATM   16  O   UNL     1       7.765  30.532  59.542  1.00  0.00    -0.309 OA
HETATM   17  C   UNL     1       9.189  30.622  59.499  1.00  0.00     0.215 C 
ENDBRANCH  13  16
ENDBRANCH   9  12
ENDBRANCH   5   6
ENDBRANCH   2   5
BRANCH   1  18
HETATM   18  C   UNL     1       7.600  24.268  55.701  1.00  0.00     0.157 A 
HETATM   19  C   UNL     1       7.923  22.955  55.243  1.00  0.00     0.029 A 
HETATM   20  C   UNL     1       7.909  22.277  54.008  1.00  0.00     0.023 A 
HETATM   21  C   UNL     1       8.342  22.270  56.378  1.00  0.00     0.063 A 
HETATM   22  C   UNL     1       8.315  20.934  53.949  1.00  0.00    -0.061 A 
HETATM   23  C   UNL     1       8.311  20.195  52.642  1.00  0.00     0.048 C 
HETATM   24  C   UNL     1       8.731  20.281  55.116  1.00  0.00     0.009 A 
HETATM   25  C   UNL     1       8.753  20.934  56.355  1.00  0.00     0.032 A 
HETATM   26  N   UNL     1       8.248  23.174  57.399  1.00  0.00    -0.277 N 
HETATM   27  H   UNL     1       8.472  23.019  58.376  1.00  0.00     0.189 HD
HETATM   28  N   UNL     1       7.811  24.391  57.030  1.00  0.00    -0.168 NA
ENDBRANCH   1  18
TORSDOF 5
ENDMDL
MODEL 9
REMARK VINA RESULT:      -8.4      6.696      9.648
REMARK  5 active torsions:
REMARK  status: ('A' for Active; 'I' for Inactive)
REMARK    1  A    between atoms: C_9  and  C_10 
REMARK       I    between atoms: C_10  and  N_11 
REMARK    2  A    between atoms: N_11  and  C_12 
REMARK    3  A    between atoms: C_12  and  C_13 
REMARK    4  A    between atoms: C_16  and  N_17 
REMARK       I    between atoms: N_17  and  C_18 
REMARK    5  A    between atoms: C_18  and  O_19 
ROOT
HETATM    1  C   UNL     1       7.344  31.164  59.105  1.00  0.00     0.273 C 
HETATM    2  N   UNL     1       7.288  29.849  58.702  1.00  0.00    -0.351 N 
HETATM    3  O   UNL     1       7.005  32.100  58.384  1.00  0.00    -0.266 OA
HETATM    4  H   UNL     1       7.489  29.155  59.417  1.00  0.00     0.163 HD
ENDROOT
BRANCH   2   5
HETATM    5  C   UNL     1       6.679  29.477  57.455  1.00  0.00     0.161 C 
BRANCH   5   6
HETATM    6  C   UNL     1       6.839  28.008  57.178  1.00  0.00    -0.040 A 
HETATM    7  C   UNL     1       8.084  27.384  57.318  1.00  0.00     0.011 A 
HETATM    8  C   UNL     1       8.232  26.012  57.074  1.00  0.00     0.030 A 
HETATM    9  C   UNL     1       7.142  25.238  56.677  1.00  0.00     0.036 A 
HETATM   10  C   UNL     1       5.902  25.871  56.511  1.00  0.00     0.030 A 
HETATM   11  C   UNL     1       5.751  27.240  56.754  1.00  0.00     0.011 A 
BRANCH   9  12
HETATM   12  N   UNL     1       7.178  23.856  56.427  1.00  0.00    -0.303 N 
HETATM   13  C   UNL     1       7.506  23.123  55.317  1.00  0.00     0.364 C 
HETATM   14  O   UNL     1       7.464  21.897  55.355  1.00  0.00    -0.238 OA
HETATM   15  H   UNL     1       6.937  23.246  57.198  1.00  0.00     0.171 HD
BRANCH  13  16
HETATM   16  O   UNL     1       7.875  23.836  54.225  1.00  0.00    -0.309 OA
HETATM   17  C   UNL     1       7.960  23.069  53.023  1.00  0.00     0.215 C 
ENDBRANCH  13  16
ENDBRANCH   9  12
ENDBRANCH   5   6
ENDBRANCH   2   5
BRANCH   1  18
HETATM   18  C   UNL     1       7.827  31.336  60.485  1.00  0.00     0.157 A 
HETATM   19  C   UNL     1       7.347  32.265  61.456  1.00  0.00     0.029 A 
HETATM   20  C   UNL     1       6.359  33.268  61.501  1.00  0.00     0.023 A 
HETATM   21  C   UNL     1       8.113  32.027  62.591  1.00  0.00     0.063 A 
HETATM   22  C   UNL     1       6.170  34.003  62.684  1.00  0.00    -0.061 A 
HETATM   23  C   UNL     1       5.119  35.073  62.754  1.00  0.00     0.048 C 
HETATM   24  C   UNL     1       6.963  33.730  63.806  1.00  0.00     0.009 A 
HETATM   25  C   UNL     1       7.951  32.738  63.784  1.00  0.00     0.032 A 
HETATM   26  N   UNL     1       8.967  31.018  62.245  1.00  0.00    -0.277 N 
HETATM   27  H   UNL     1       9.674  30.587  62.830  1.00  0.00     0.189 HD
HETATM   28  N   UNL     1       8.821  30.570  60.985  1.00  0.00    -0.168 NA
ENDBRANCH   1  18
TORSDOF 5
ENDMDL
MODEL 10
REMARK VINA RESULT:      -8.3      8.656     12.076
REMARK  5 active torsions:
REMARK  status: ('A' for Active; 'I' for Inactive)
REMARK    1  A    between atoms: C_9  and  C_10 
REMARK       I    between atoms: C_10  and  N_11 
REMARK    2  A    between atoms: N_11  and  C_12 
REMARK    3  A    between atoms: C_12  and  C_13 
REMARK    4  A    between atoms: C_16  and  N_17 
REMARK       I    between atoms: N_17  and  C_18 
REMARK    5  A    between atoms: C_18  and  O_19 
ROOT
HETATM    1  C   UNL     1       8.162  30.677  59.107  1.00  0.00     0.273 C 
HETATM    2  N   UNL     1       7.941  30.540  60.459  1.00  0.00    -0.351 N 
HETATM    3  O   UNL     1       8.789  31.617  58.624  1.00  0.00    -0.266 OA
HETATM    4  H   UNL     1       7.505  29.669  60.753  1.00  0.00     0.163 HD
ENDROOT
BRANCH   2   5
HETATM    5  C   UNL     1       8.568  31.415  61.410  1.00  0.00     0.161 C 
BRANCH   5   6
HETATM    6  C   UNL     1       7.577  31.957  62.401  1.00  0.00    -0.040 A 
HETATM    7  C   UNL     1       8.006  32.675  63.523  1.00  0.00     0.011 A 
HETATM    8  C   UNL     1       7.083  33.194  64.442  1.00  0.00     0.030 A 
HETATM    9  C   UNL     1       5.714  32.997  64.261  1.00  0.00     0.036 A 
HETATM   10  C   UNL     1       5.288  32.253  63.152  1.00  0.00     0.030 A 
HETATM   11  C   UNL     1       6.207  31.735  62.234  1.00  0.00     0.011 A 
BRANCH   9  12
HETATM   12  N   UNL     1       4.706  33.490  65.110  1.00  0.00    -0.303 N 
HETATM   13  C   UNL     1       3.943  34.626  65.080  1.00  0.00     0.364 C 
HETATM   14  O   UNL     1       3.105  34.828  65.954  1.00  0.00    -0.238 OA
HETATM   15  H   UNL     1       4.454  32.911  65.900  1.00  0.00     0.171 HD
BRANCH  13  16
HETATM   16  O   UNL     1       4.175  35.468  64.043  1.00  0.00    -0.309 OA
HETATM   17  C   UNL     1       4.971  36.606  64.377  1.00  0.00     0.215 C 
ENDBRANCH  13  16
ENDBRANCH   9  12
ENDBRANCH   5   6
ENDBRANCH   2   5
BRANCH   1  18
HETATM   18  C   UNL     1       7.593  29.583  58.304  1.00  0.00     0.157 A 
HETATM   19  C   UNL     1       6.338  29.574  57.626  1.00  0.00     0.029 A 
HETATM   20  C   UNL     1       5.264  30.472  57.465  1.00  0.00     0.023 A 
HETATM   21  C   UNL     1       6.269  28.331  57.010  1.00  0.00     0.063 A 
HETATM   22  C   UNL     1       4.154  30.094  56.691  1.00  0.00    -0.061 A 
HETATM   23  C   UNL     1       3.001  31.038  56.503  1.00  0.00     0.048 C 
HETATM   24  C   UNL     1       4.125  28.831  56.086  1.00  0.00     0.009 A 
HETATM   25  C   UNL     1       5.181  27.923  56.233  1.00  0.00     0.032 A 
HETATM   26  N   UNL     1       7.434  27.699  57.343  1.00  0.00    -0.277 N 
HETATM   27  H   UNL     1       7.725  26.767  57.068  1.00  0.00     0.189 HD
HETATM   28  N   UNL     1       8.262  28.423  58.117  1.00  0.00    -0.168 NA
ENDBRANCH   1  18
TORSDOF 5
ENDMDL
