MODEL 1
REMARK VINA RESULT:      -9.0      0.000      0.000
REMARK  1 active torsions:
REMARK  status: ('A' for Active; 'I' for Inactive)
REMARK    1  A    between atoms: C_6  and  N_7 
ROOT
HETATM    1  N   UNL     1       6.795  25.736  56.122  1.00  0.00    -0.320 N 
HETATM    2  C   UNL     1       5.512  26.074  56.637  1.00  0.00     0.141 C 
HETATM    3  N   UNL     1       4.616  25.170  56.912  1.00  0.00    -0.380 N 
HETATM    4  H   UNL     1       3.716  25.450  57.274  1.00  0.00     0.158 HD
HETATM    5  H   UNL     1       4.845  24.196  56.763  1.00  0.00     0.158 HD
HETATM    6  S   UNL     1       5.270  27.760  56.825  1.00  0.00    -0.086 SA
HETATM    7  C   UNL     1       6.746  28.133  55.783  1.00  0.00     0.093 C 
HETATM    8  C   UNL     1       7.684  26.913  55.956  1.00  0.00     0.121 C 
HETATM    9  C   UNL     1       7.490  29.396  56.160  1.00  0.00     0.158 C 
HETATM   10  S   UNL     1       8.732  28.907  57.328  1.00  0.00     0.147 S 
HETATM   11  O   UNL     1       8.335  29.349  58.646  1.00  0.00    -0.228 OA
HETATM   12  O   UNL     1      10.027  29.218  56.761  1.00  0.00    -0.228 OA
HETATM   13  C   UNL     1       8.498  27.155  57.227  1.00  0.00     0.167 C 
ENDROOT
BRANCH   1  14
HETATM   14  C   UNL     1       7.094  24.601  55.337  1.00  0.00     0.048 A 
HETATM   15  C   UNL     1       7.892  23.550  55.856  1.00  0.00    -0.034 A 
HETATM   16  C   UNL     1       8.236  22.458  55.036  1.00  0.00     0.015 A 
HETATM   17  C   UNL     1       8.424  23.541  57.265  1.00  0.00     0.050 C 
HETATM   18  C   UNL     1       7.788  22.373  53.719  1.00  0.00    -0.061 A 
HETATM   19  C   UNL     1       8.129  21.184  52.869  1.00  0.00     0.048 C 
HETATM   20  C   UNL     1       6.971  23.387  53.222  1.00  0.00     0.015 A 
HETATM   21  C   UNL     1       6.639  24.511  54.001  1.00  0.00    -0.034 A 
HETATM   22  C   UNL     1       5.791  25.569  53.349  1.00  0.00     0.050 C 
ENDBRANCH   1  14
TORSDOF 1
ENDMDL
MODEL 2
REMARK VINA RESULT:      -9.0      0.091      1.952
REMARK  1 active torsions:
REMARK  status: ('A' for Active; 'I' for Inactive)
REMARK    1  A    between atoms: C_6  and  N_7 
ROOT
HETATM    1  N   UNL     1       6.813  25.749  56.064  1.00  0.00    -0.320 N 
HETATM    2  C   UNL     1       5.518  26.086  56.547  1.00  0.00     0.141 C 
HETATM    3  N   UNL     1       4.611  25.182  56.786  1.00  0.00    -0.380 N 
HETATM    4  H   UNL     1       3.702  25.461  57.126  1.00  0.00     0.158 HD
HETATM    5  H   UNL     1       4.841  24.209  56.632  1.00  0.00     0.158 HD
HETATM    6  S   UNL     1       5.276  27.770  56.749  1.00  0.00    -0.086 SA
HETATM    7  C   UNL     1       6.782  28.150  55.753  1.00  0.00     0.093 C 
HETATM    8  C   UNL     1       7.711  26.925  55.938  1.00  0.00     0.121 C 
HETATM    9  C   UNL     1       7.520  29.406  56.166  1.00  0.00     0.158 C 
HETATM   10  S   UNL     1       8.727  28.898  57.363  1.00  0.00     0.147 S 
HETATM   11  O   UNL     1       8.294  29.325  58.675  1.00  0.00    -0.228 OA
HETATM   12  O   UNL     1      10.038  29.211  56.837  1.00  0.00    -0.228 OA
HETATM   13  C   UNL     1       8.490  27.148  57.234  1.00  0.00     0.167 C 
ENDROOT
BRANCH   1  14
HETATM   14  C   UNL     1       7.130  24.623  55.274  1.00  0.00     0.048 A 
HETATM   15  C   UNL     1       6.693  24.533  53.928  1.00  0.00    -0.034 A 
HETATM   16  C   UNL     1       6.961  23.374  53.178  1.00  0.00     0.015 A 
HETATM   17  C   UNL     1       5.921  25.630  53.241  1.00  0.00     0.050 C 
HETATM   18  C   UNL     1       7.673  22.306  53.724  1.00  0.00    -0.061 A 
HETATM   19  C   UNL     1       7.986  21.092  52.899  1.00  0.00     0.048 C 
HETATM   20  C   UNL     1       8.136  22.411  55.034  1.00  0.00     0.015 A 
HETATM   21  C   UNL     1       7.854  23.540  55.825  1.00  0.00    -0.034 A 
HETATM   22  C   UNL     1       8.361  23.527  57.241  1.00  0.00     0.050 C 
ENDBRANCH   1  14
TORSDOF 1
ENDMDL
MODEL 3
REMARK VINA RESULT:      -7.3      8.702     10.381
REMARK  1 active torsions:
REMARK  status: ('A' for Active; 'I' for Inactive)
REMARK    1  A    between atoms: C_6  and  N_7 
ROOT
HETATM    1  N   UNL     1       5.540  33.286  62.184  1.00  0.00    -0.320 N 
HETATM    2  C   UNL     1       4.310  32.632  62.474  1.00  0.00     0.141 C 
HETATM    3  N   UNL     1       4.206  31.334  62.503  1.00  0.00    -0.380 N 
HETATM    4  H   UNL     1       3.315  30.907  62.710  1.00  0.00     0.158 HD
HETATM    5  H   UNL     1       5.029  30.775  62.323  1.00  0.00     0.158 HD
HETATM    6  S   UNL     1       3.006  33.709  62.747  1.00  0.00    -0.086 SA
HETATM    7  C   UNL     1       3.963  35.116  62.034  1.00  0.00     0.093 C 
HETATM    8  C   UNL     1       5.450  34.764  62.283  1.00  0.00     0.121 C 
HETATM    9  C   UNL     1       3.659  36.468  62.643  1.00  0.00     0.158 C 
HETATM   10  S   UNL     1       4.804  36.675  63.981  1.00  0.00     0.147 S 
HETATM   11  O   UNL     1       4.097  36.514  65.233  1.00  0.00    -0.228 OA
HETATM   12  O   UNL     1       5.623  37.835  63.695  1.00  0.00    -0.228 OA
HETATM   13  C   UNL     1       5.786  35.230  63.699  1.00  0.00     0.167 C 
ENDROOT
BRANCH   1  14
HETATM   14  C   UNL     1       6.580  32.767  61.382  1.00  0.00     0.048 A 
HETATM   15  C   UNL     1       7.839  32.440  61.946  1.00  0.00    -0.034 A 
HETATM   16  C   UNL     1       8.884  31.988  61.120  1.00  0.00     0.015 A 
HETATM   17  C   UNL     1       8.137  32.569  63.417  1.00  0.00     0.050 C 
HETATM   18  C   UNL     1       8.704  31.830  59.746  1.00  0.00    -0.061 A 
HETATM   19  C   UNL     1       9.815  31.310  58.882  1.00  0.00     0.048 C 
HETATM   20  C   UNL     1       7.454  32.115  59.197  1.00  0.00     0.015 A 
HETATM   21  C   UNL     1       6.399  32.604  59.989  1.00  0.00    -0.034 A 
HETATM   22  C   UNL     1       5.109  32.924  59.285  1.00  0.00     0.050 C 
ENDBRANCH   1  14
TORSDOF 1
ENDMDL
MODEL 4
REMARK VINA RESULT:      -7.2      3.301      4.090
REMARK  1 active torsions:
REMARK  status: ('A' for Active; 'I' for Inactive)
REMARK    1  A    between atoms: C_6  and  N_7 
ROOT
HETATM    1  N   UNL     1       6.579  26.649  54.255  1.00  0.00    -0.320 N 
HETATM    2  C   UNL     1       6.950  27.700  55.138  1.00  0.00     0.141 C 
HETATM    3  N   UNL     1       8.025  27.641  55.872  1.00  0.00    -0.380 N 
HETATM    4  H   UNL     1       8.254  28.406  56.488  1.00  0.00     0.158 HD
HETATM    5  H   UNL     1       8.619  26.825  55.801  1.00  0.00     0.158 HD
HETATM    6  S   UNL     1       5.844  29.008  55.155  1.00  0.00    -0.086 SA
HETATM    7  C   UNL     1       4.567  27.996  54.290  1.00  0.00     0.093 C 
HETATM    8  C   UNL     1       5.364  26.959  53.460  1.00  0.00     0.121 C 
HETATM    9  C   UNL     1       3.649  28.775  53.373  1.00  0.00     0.158 C 
HETATM   10  S   UNL     1       4.413  28.749  51.772  1.00  0.00     0.147 S 
HETATM   11  O   UNL     1       4.969  30.056  51.498  1.00  0.00    -0.228 OA
HETATM   12  O   UNL     1       3.514  28.080  50.857  1.00  0.00    -0.228 OA
HETATM   13  C   UNL     1       5.741  27.639  52.144  1.00  0.00     0.167 C 
ENDROOT
BRANCH   1  14
HETATM   14  C   UNL     1       6.894  25.283  54.421  1.00  0.00     0.048 A 
HETATM   15  C   UNL     1       6.491  24.580  55.585  1.00  0.00    -0.034 A 
HETATM   16  C   UNL     1       6.873  23.238  55.764  1.00  0.00     0.015 A 
HETATM   17  C   UNL     1       5.670  25.210  56.680  1.00  0.00     0.050 C 
HETATM   18  C   UNL     1       7.628  22.566  54.804  1.00  0.00    -0.061 A 
HETATM   19  C   UNL     1       7.995  21.123  54.989  1.00  0.00     0.048 C 
HETATM   20  C   UNL     1       7.991  23.245  53.642  1.00  0.00     0.015 A 
HETATM   21  C   UNL     1       7.659  24.598  53.448  1.00  0.00    -0.034 A 
HETATM   22  C   UNL     1       8.143  25.246  52.179  1.00  0.00     0.050 C 
ENDBRANCH   1  14
TORSDOF 1
ENDMDL
MODEL 5
REMARK VINA RESULT:      -7.2      3.033      3.995
REMARK  1 active torsions:
REMARK  status: ('A' for Active; 'I' for Inactive)
REMARK    1  A    between atoms: C_6  and  N_7 
ROOT
HETATM    1  N   UNL     1       6.739  26.722  54.744  1.00  0.00    -0.320 N 
HETATM    2  C   UNL     1       7.375  27.699  55.560  1.00  0.00     0.141 C 
HETATM    3  N   UNL     1       8.619  27.590  55.929  1.00  0.00    -0.380 N 
HETATM    4  H   UNL     1       9.034  28.303  56.510  1.00  0.00     0.158 HD
HETATM    5  H   UNL     1       9.151  26.788  55.616  1.00  0.00     0.158 HD
HETATM    6  S   UNL     1       6.345  28.990  56.016  1.00  0.00    -0.086 SA
HETATM    7  C   UNL     1       4.852  28.041  55.493  1.00  0.00     0.093 C 
HETATM    8  C   UNL     1       5.347  27.086  54.379  1.00  0.00     0.121 C 
HETATM    9  C   UNL     1       3.713  28.885  54.961  1.00  0.00     0.158 C 
HETATM   10  S   UNL     1       3.962  29.001  53.209  1.00  0.00     0.147 S 
HETATM   11  O   UNL     1       4.431  30.332  52.890  1.00  0.00    -0.228 OA
HETATM   12  O   UNL     1       2.819  28.402  52.553  1.00  0.00    -0.228 OA
HETATM   13  C   UNL     1       5.323  27.877  53.072  1.00  0.00     0.167 C 
ENDROOT
BRANCH   1  14
HETATM   14  C   UNL     1       7.069  25.350  54.694  1.00  0.00     0.048 A 
HETATM   15  C   UNL     1       7.636  24.782  53.525  1.00  0.00    -0.034 A 
HETATM   16  C   UNL     1       7.895  23.400  53.470  1.00  0.00     0.015 A 
HETATM   17  C   UNL     1       7.969  25.590  52.297  1.00  0.00     0.050 C 
HETATM   18  C   UNL     1       7.626  22.569  54.556  1.00  0.00    -0.061 A 
HETATM   19  C   UNL     1       7.944  21.103  54.498  1.00  0.00     0.048 C 
HETATM   20  C   UNL     1       7.105  23.134  55.719  1.00  0.00     0.015 A 
HETATM   21  C   UNL     1       6.799  24.506  55.795  1.00  0.00    -0.034 A 
HETATM   22  C   UNL     1       6.196  25.001  57.081  1.00  0.00     0.050 C 
ENDBRANCH   1  14
TORSDOF 1
ENDMDL
MODEL 6
REMARK VINA RESULT:      -7.0      3.579      5.221
REMARK  1 active torsions:
REMARK  status: ('A' for Active; 'I' for Inactive)
REMARK    1  A    between atoms: C_6  and  N_7 
ROOT
HETATM    1  N   UNL     1       6.269  25.466  54.543  1.00  0.00    -0.320 N 
HETATM    2  C   UNL     1       5.800  25.629  55.876  1.00  0.00     0.141 C 
HETATM    3  N   UNL     1       4.697  26.266  56.149  1.00  0.00    -0.380 N 
HETATM    4  H   UNL     1       4.398  26.362  57.108  1.00  0.00     0.158 HD
HETATM    5  H   UNL     1       4.153  26.647  55.386  1.00  0.00     0.158 HD
HETATM    6  S   UNL     1       6.830  24.938  57.057  1.00  0.00    -0.086 SA
HETATM    7  C   UNL     1       8.200  24.778  55.832  1.00  0.00     0.093 C 
HETATM    8  C   UNL     1       7.500  24.641  54.457  1.00  0.00     0.121 C 
HETATM    9  C   UNL     1       9.115  23.591  56.049  1.00  0.00     0.158 C 
HETATM   10  S   UNL     1       8.428  22.258  55.102  1.00  0.00     0.147 S 
HETATM   11  O   UNL     1       7.814  21.310  56.006  1.00  0.00    -0.228 OA
HETATM   12  O   UNL     1       9.405  21.865  54.109  1.00  0.00    -0.228 OA
HETATM   13  C   UNL     1       7.147  23.164  54.282  1.00  0.00     0.167 C 
ENDROOT
BRANCH   1  14
HETATM   14  C   UNL     1       6.022  26.348  53.469  1.00  0.00     0.048 A 
HETATM   15  C   UNL     1       6.543  27.667  53.478  1.00  0.00    -0.034 A 
HETATM   16  C   UNL     1       6.230  28.554  52.431  1.00  0.00     0.015 A 
HETATM   17  C   UNL     1       7.420  28.196  54.583  1.00  0.00     0.050 C 
HETATM   18  C   UNL     1       5.429  28.157  51.361  1.00  0.00    -0.061 A 
HETATM   19  C   UNL     1       5.136  29.101  50.232  1.00  0.00     0.048 C 
HETATM   20  C   UNL     1       4.949  26.848  51.333  1.00  0.00     0.015 A 
HETATM   21  C   UNL     1       5.212  25.948  52.382  1.00  0.00    -0.034 A 
HETATM   22  C   UNL     1       4.605  24.575  52.272  1.00  0.00     0.050 C 
ENDBRANCH   1  14
TORSDOF 1
ENDMDL
MODEL 7
REMARK VINA RESULT:      -6.9      9.145     10.790
REMARK  1 active torsions:
REMARK  status: ('A' for Active; 'I' for Inactive)
REMARK    1  A    between atoms: C_6  and  N_7 
ROOT
HETATM    1  N   UNL     1       4.989  33.723  61.954  1.00  0.00    -0.320 N 
HETATM    2  C   UNL     1       3.655  33.228  61.957  1.00  0.00     0.141 C 
HETATM    3  N   UNL     1       3.347  32.070  62.469  1.00  0.00    -0.380 N 
HETATM    4  H   UNL     1       2.389  31.753  62.450  1.00  0.00     0.158 HD
HETATM    5  H   UNL     1       4.080  31.511  62.885  1.00  0.00     0.158 HD
HETATM    6  S   UNL     1       2.529  34.281  61.210  1.00  0.00    -0.086 SA
HETATM    7  C   UNL     1       3.890  35.261  60.441  1.00  0.00     0.093 C 
HETATM    8  C   UNL     1       5.099  35.093  61.394  1.00  0.00     0.121 C 
HETATM    9  C   UNL     1       3.593  36.735  60.264  1.00  0.00     0.158 C 
HETATM   10  S   UNL     1       4.166  37.536  61.739  1.00  0.00     0.147 S 
HETATM   11  O   UNL     1       3.023  37.918  62.539  1.00  0.00    -0.228 OA
HETATM   12  O   UNL     1       5.201  38.476  61.364  1.00  0.00    -0.228 OA
HETATM   13  C   UNL     1       4.945  36.139  62.498  1.00  0.00     0.167 C 
ENDROOT
BRANCH   1  14
HETATM   14  C   UNL     1       6.160  32.935  61.934  1.00  0.00     0.048 A 
HETATM   15  C   UNL     1       6.557  32.255  60.754  1.00  0.00    -0.034 A 
HETATM   16  C   UNL     1       7.690  31.420  60.772  1.00  0.00     0.015 A 
HETATM   17  C   UNL     1       5.806  32.362  59.452  1.00  0.00     0.050 C 
HETATM   18  C   UNL     1       8.453  31.259  61.927  1.00  0.00    -0.061 A 
HETATM   19  C   UNL     1       9.681  30.396  61.921  1.00  0.00     0.048 C 
HETATM   20  C   UNL     1       8.084  31.958  63.076  1.00  0.00     0.015 A 
HETATM   21  C   UNL     1       6.937  32.771  63.104  1.00  0.00    -0.034 A 
HETATM   22  C   UNL     1       6.605  33.441  64.410  1.00  0.00     0.050 C 
ENDBRANCH   1  14
TORSDOF 1
ENDMDL
MODEL 8
REMARK VINA RESULT:      -6.8      9.186     10.701
REMARK  1 active torsions:
REMARK  status: ('A' for Active; 'I' for Inactive)
REMARK    1  A    between atoms: C_6  and  N_7 
ROOT
HETATM    1  N   UNL     1       5.002  33.831  61.954  1.00  0.00    -0.320 N 
HETATM    2  C   UNL     1       3.642  33.419  61.995  1.00  0.00     0.141 C 
HETATM    3  N   UNL     1       3.269  32.315  62.577  1.00  0.00    -0.380 N 
HETATM    4  H   UNL     1       2.294  32.055  62.583  1.00  0.00     0.158 HD
HETATM    5  H   UNL     1       3.972  31.738  63.022  1.00  0.00     0.158 HD
HETATM    6  S   UNL     1       2.574  34.492  61.193  1.00  0.00    -0.086 SA
HETATM    7  C   UNL     1       3.984  35.341  60.359  1.00  0.00     0.093 C 
HETATM    8  C   UNL     1       5.190  35.157  61.313  1.00  0.00     0.121 C 
HETATM    9  C   UNL     1       3.774  36.817  60.095  1.00  0.00     0.158 C 
HETATM   10  S   UNL     1       4.409  37.668  61.516  1.00  0.00     0.147 S 
HETATM   11  O   UNL     1       3.299  38.165  62.299  1.00  0.00    -0.228 OA
HETATM   12  O   UNL     1       5.495  38.519  61.079  1.00  0.00    -0.228 OA
HETATM   13  C   UNL     1       5.109  36.274  62.353  1.00  0.00     0.167 C 
ENDROOT
BRANCH   1  14
HETATM   14  C   UNL     1       6.124  32.973  61.974  1.00  0.00     0.048 A 
HETATM   15  C   UNL     1       6.929  32.857  63.136  1.00  0.00    -0.034 A 
HETATM   16  C   UNL     1       8.081  32.049  63.114  1.00  0.00     0.015 A 
HETATM   17  C   UNL     1       6.626  33.583  64.421  1.00  0.00     0.050 C 
HETATM   18  C   UNL     1       8.443  31.334  61.974  1.00  0.00    -0.061 A 
HETATM   19  C   UNL     1       9.652  30.445  61.978  1.00  0.00     0.048 C 
HETATM   20  C   UNL     1       7.629  31.418  60.844  1.00  0.00     0.015 A 
HETATM   21  C   UNL     1       6.492  32.246  60.819  1.00  0.00    -0.034 A 
HETATM   22  C   UNL     1       5.713  32.298  59.533  1.00  0.00     0.050 C 
ENDBRANCH   1  14
TORSDOF 1
ENDMDL
MODEL 9
REMARK VINA RESULT:      -6.7      2.473      3.195
REMARK  1 active torsions:
REMARK  status: ('A' for Active; 'I' for Inactive)
REMARK    1  A    between atoms: C_6  and  N_7 
ROOT
HETATM    1  N   UNL     1       5.226  27.376  55.102  1.00  0.00    -0.320 N 
HETATM    2  C   UNL     1       4.283  27.747  54.103  1.00  0.00     0.141 C 
HETATM    3  N   UNL     1       3.703  26.868  53.338  1.00  0.00    -0.380 N 
HETATM    4  H   UNL     1       3.041  27.171  52.638  1.00  0.00     0.158 HD
HETATM    5  H   UNL     1       3.923  25.889  53.466  1.00  0.00     0.158 HD
HETATM    6  S   UNL     1       4.021  29.437  53.999  1.00  0.00    -0.086 SA
HETATM    7  C   UNL     1       5.526  29.776  55.011  1.00  0.00     0.093 C 
HETATM    8  C   UNL     1       5.702  28.527  55.909  1.00  0.00     0.121 C 
HETATM    9  C   UNL     1       5.444  31.012  55.882  1.00  0.00     0.158 C 
HETATM   10  S   UNL     1       4.803  30.473  57.445  1.00  0.00     0.147 S 
HETATM   11  O   UNL     1       3.430  30.913  57.564  1.00  0.00    -0.228 OA
HETATM   12  O   UNL     1       5.799  30.751  58.458  1.00  0.00    -0.228 OA
HETATM   13  C   UNL     1       4.811  28.730  57.134  1.00  0.00     0.167 C 
ENDROOT
BRANCH   1  14
HETATM   14  C   UNL     1       6.065  26.241  55.061  1.00  0.00     0.048 A 
HETATM   15  C   UNL     1       5.944  25.213  56.032  1.00  0.00    -0.034 A 
HETATM   16  C   UNL     1       6.834  24.123  56.015  1.00  0.00     0.015 A 
HETATM   17  C   UNL     1       4.903  25.230  57.120  1.00  0.00     0.050 C 
HETATM   18  C   UNL     1       7.828  24.014  55.044  1.00  0.00    -0.061 A 
HETATM   19  C   UNL     1       8.745  22.826  55.015  1.00  0.00     0.048 C 
HETATM   20  C   UNL     1       7.922  25.005  54.067  1.00  0.00     0.015 A 
HETATM   21  C   UNL     1       7.073  26.127  54.077  1.00  0.00    -0.034 A 
HETATM   22  C   UNL     1       7.293  27.159  53.004  1.00  0.00     0.050 C 
ENDBRANCH   1  14
TORSDOF 1
ENDMDL
MODEL 10
REMARK VINA RESULT:      -6.7      9.644     11.622
REMARK  1 active torsions:
REMARK  status: ('A' for Active; 'I' for Inactive)
REMARK    1  A    between atoms: C_6  and  N_7 
ROOT
HETATM    1  N   UNL     1       4.190  33.289  61.845  1.00  0.00    -0.320 N 
HETATM    2  C   UNL     1       3.778  32.016  61.360  1.00  0.00     0.141 C 
HETATM    3  N   UNL     1       3.498  31.028  62.160  1.00  0.00    -0.380 N 
HETATM    4  H   UNL     1       3.211  30.139  61.778  1.00  0.00     0.158 HD
HETATM    5  H   UNL     1       3.566  31.175  63.159  1.00  0.00     0.158 HD
HETATM    6  S   UNL     1       3.719  31.918  59.650  1.00  0.00    -0.086 SA
HETATM    7  C   UNL     1       4.693  33.476  59.484  1.00  0.00     0.093 C 
HETATM    8  C   UNL     1       4.380  34.289  60.765  1.00  0.00     0.121 C 
HETATM    9  C   UNL     1       4.357  34.310  58.266  1.00  0.00     0.158 C 
HETATM   10  S   UNL     1       3.085  35.437  58.775  1.00  0.00     0.147 S 
HETATM   11  O   UNL     1       1.826  35.010  58.205  1.00  0.00    -0.228 OA
HETATM   12  O   UNL     1       3.592  36.784  58.619  1.00  0.00    -0.228 OA
HETATM   13  C   UNL     1       3.082  35.051  60.502  1.00  0.00     0.167 C 
ENDROOT
BRANCH   1  14
HETATM   14  C   UNL     1       4.877  33.526  63.055  1.00  0.00     0.048 A 
HETATM   15  C   UNL     1       6.259  33.233  63.176  1.00  0.00    -0.034 A 
HETATM   16  C   UNL     1       6.911  33.413  64.410  1.00  0.00     0.015 A 
HETATM   17  C   UNL     1       7.090  32.709  62.033  1.00  0.00     0.050 C 
HETATM   18  C   UNL     1       6.229  33.898  65.525  1.00  0.00    -0.061 A 
HETATM   19  C   UNL     1       6.947  34.122  66.824  1.00  0.00     0.048 C 
HETATM   20  C   UNL     1       4.880  34.223  65.396  1.00  0.00     0.015 A 
HETATM   21  C   UNL     1       4.188  34.020  64.187  1.00  0.00    -0.034 A 
HETATM   22  C   UNL     1       2.722  34.359  64.173  1.00  0.00     0.050 C 
ENDBRANCH   1  14
TORSDOF 1
ENDMDL
