MODEL 1
REMARK VINA RESULT:     -10.1      0.000      0.000
REMARK  6 active torsions:
REMARK  status: ('A' for Active; 'I' for Inactive)
REMARK    1  A    between atoms: C_2  and  C_3 
REMARK    2  A    between atoms: C_3  and  C_4 
REMARK    3  A    between atoms: C_6  and  N_7 
REMARK    4  A    between atoms: C_9  and  C_10 
REMARK    5  A    between atoms: C_16  and  N_17 
REMARK       I    between atoms: N_17  and  C_18 
REMARK    6  A    between atoms: C_18  and  C_19 
ROOT
HETATM    1  N   UNL     1       6.963  28.707  56.062  1.00  0.00    -0.044 N 
HETATM    2  N   UNL     1       6.920  29.872  56.764  1.00  0.00    -0.150 NA
HETATM    3  C   UNL     1       7.745  29.659  57.800  1.00  0.00     0.099 A 
HETATM    4  C   UNL     1       8.317  28.365  57.760  1.00  0.00     0.086 A 
HETATM    5  C   UNL     1       7.787  27.760  56.645  1.00  0.00     0.152 A 
ENDROOT
BRANCH   5   6
HETATM    6  N   UNL     1       7.983  26.466  56.173  1.00  0.00    -0.305 N 
HETATM    7  C   UNL     1       7.171  25.339  56.523  1.00  0.00     0.281 C 
HETATM    8  O   UNL     1       6.324  25.423  57.399  1.00  0.00    -0.265 OA
HETATM    9  H   UNL     1       8.777  26.305  55.547  1.00  0.00     0.170 HD
BRANCH   7  10
HETATM   10  C   UNL     1       7.477  24.157  55.761  1.00  0.00     0.144 A 
HETATM   11  O   UNL     1       7.728  22.983  56.425  1.00  0.00    -0.304 OA
HETATM   12  C   UNL     1       8.061  22.056  55.481  1.00  0.00     0.086 A 
HETATM   13  C   UNL     1       7.988  22.611  54.209  1.00  0.00     0.001 A 
HETATM   14  C   UNL     1       8.433  20.740  55.737  1.00  0.00     0.038 A 
HETATM   15  C   UNL     1       7.612  23.965  54.399  1.00  0.00     0.057 A 
HETATM   16  C   UNL     1       8.290  21.800  53.102  1.00  0.00     0.014 A 
HETATM   17  C   UNL     1       8.663  20.467  53.328  1.00  0.00     0.001 A 
HETATM   18  C   UNL     1       8.736  19.950  54.623  1.00  0.00     0.003 A 
ENDBRANCH   7  10
ENDBRANCH   5   6
BRANCH   1  19
HETATM   19  C   UNL     1       6.239  28.572  54.868  1.00  0.00     0.732 A 
HETATM   20  N   UNL     1       6.539  27.686  53.970  1.00  0.00    -0.067 NA
HETATM   21  C   UNL     1       5.749  27.698  52.836  1.00  0.00     0.059 A 
HETATM   22  C   UNL     1       4.731  28.553  52.644  1.00  0.00     0.102 A 
HETATM   23  C   UNL     1       4.412  29.534  53.695  1.00  0.00     0.261 A 
HETATM   24  N   UNL     1       5.220  29.479  54.784  1.00  0.00    -0.152 N 
HETATM   25  O   UNL     1       3.494  30.332  53.573  1.00  0.00    -0.268 OA
HETATM   26  H   UNL     1       5.061  30.139  55.540  1.00  0.00     0.187 HD
BRANCH  21  27
HETATM   27  C   UNL     1       6.119  26.701  51.761  1.00  0.00     0.060 C 
BRANCH  27  28
HETATM   28  C   UNL     1       4.986  25.712  51.484  1.00  0.00     0.002 C 
HETATM   29  C   UNL     1       4.722  24.825  52.691  1.00  0.00     0.005 C 
ENDBRANCH  27  28
ENDBRANCH  21  27
ENDBRANCH   1  19
BRANCH   3  30
HETATM   30  C   UNL     1       7.982  30.703  58.852  1.00  0.00     0.035 A 
HETATM   31  S   UNL     1       6.833  31.883  59.311  1.00  0.00    -0.100 SA
HETATM   32  C   UNL     1       7.902  32.571  60.457  1.00  0.00     0.050 A 
HETATM   33  C   UNL     1       9.111  31.914  60.492  1.00  0.00     0.008 A 
HETATM   34  C   UNL     1       9.157  30.832  59.564  1.00  0.00     0.022 A 
ENDBRANCH   3  30
TORSDOF 6
ENDMDL
MODEL 2
REMARK VINA RESULT:      -9.8      3.552      6.379
REMARK  6 active torsions:
REMARK  status: ('A' for Active; 'I' for Inactive)
REMARK    1  A    between atoms: C_2  and  C_3 
REMARK    2  A    between atoms: C_3  and  C_4 
REMARK    3  A    between atoms: C_6  and  N_7 
REMARK    4  A    between atoms: C_9  and  C_10 
REMARK    5  A    between atoms: C_16  and  N_17 
REMARK       I    between atoms: N_17  and  C_18 
REMARK    6  A    between atoms: C_18  and  C_19 
ROOT
HETATM    1  N   UNL     1       4.894  27.098  52.483  1.00  0.00    -0.044 N 
HETATM    2  N   UNL     1       4.424  28.078  51.664  1.00  0.00    -0.150 NA
HETATM    3  C   UNL     1       4.513  27.549  50.436  1.00  0.00     0.099 A 
HETATM    4  C   UNL     1       5.035  26.232  50.466  1.00  0.00     0.086 A 
HETATM    5  C   UNL     1       5.291  25.967  51.791  1.00  0.00     0.152 A 
ENDROOT
BRANCH   5   6
HETATM    6  N   UNL     1       5.854  24.830  52.364  1.00  0.00    -0.305 N 
HETATM    7  C   UNL     1       7.260  24.572  52.448  1.00  0.00     0.281 C 
HETATM    8  O   UNL     1       8.066  25.286  51.871  1.00  0.00    -0.265 OA
HETATM    9  H   UNL     1       5.216  24.120  52.733  1.00  0.00     0.170 HD
BRANCH   7  10
HETATM   10  C   UNL     1       7.581  23.416  53.244  1.00  0.00     0.144 A 
HETATM   11  O   UNL     1       7.486  23.500  54.609  1.00  0.00    -0.304 OA
HETATM   12  C   UNL     1       7.914  22.306  55.111  1.00  0.00     0.086 A 
HETATM   13  C   UNL     1       8.247  21.437  54.079  1.00  0.00     0.001 A 
HETATM   14  C   UNL     1       8.020  21.988  56.463  1.00  0.00     0.038 A 
HETATM   15  C   UNL     1       8.030  22.161  52.880  1.00  0.00     0.057 A 
HETATM   16  C   UNL     1       8.704  20.149  54.405  1.00  0.00     0.014 A 
HETATM   17  C   UNL     1       8.815  19.797  55.758  1.00  0.00     0.001 A 
HETATM   18  C   UNL     1       8.483  20.703  56.766  1.00  0.00     0.003 A 
ENDBRANCH   7  10
ENDBRANCH   5   6
BRANCH   1  19
HETATM   19  C   UNL     1       4.914  27.284  53.873  1.00  0.00     0.732 A 
HETATM   20  N   UNL     1       5.463  26.430  54.681  1.00  0.00    -0.067 NA
HETATM   21  C   UNL     1       5.375  26.742  56.024  1.00  0.00     0.059 A 
HETATM   22  C   UNL     1       4.771  27.845  56.498  1.00  0.00     0.102 A 
HETATM   23  C   UNL     1       4.174  28.797  55.547  1.00  0.00     0.261 A 
HETATM   24  N   UNL     1       4.287  28.441  54.242  1.00  0.00    -0.152 N 
HETATM   25  O   UNL     1       3.616  29.818  55.924  1.00  0.00    -0.268 OA
HETATM   26  H   UNL     1       3.883  29.050  53.536  1.00  0.00     0.187 HD
BRANCH  21  27
HETATM   27  C   UNL     1       5.970  25.730  56.979  1.00  0.00     0.060 C 
BRANCH  27  28
HETATM   28  C   UNL     1       7.200  26.281  57.702  1.00  0.00     0.002 C 
HETATM   29  C   UNL     1       8.469  25.583  57.240  1.00  0.00     0.005 C 
ENDBRANCH  27  28
ENDBRANCH  21  27
ENDBRANCH   1  19
BRANCH   3  30
HETATM   30  C   UNL     1       4.107  28.315  49.211  1.00  0.00     0.035 A 
HETATM   31  S   UNL     1       2.669  28.030  48.333  1.00  0.00    -0.100 SA
HETATM   32  C   UNL     1       3.038  29.260  47.202  1.00  0.00     0.050 A 
HETATM   33  C   UNL     1       4.234  29.879  47.488  1.00  0.00     0.008 A 
HETATM   34  C   UNL     1       4.852  29.333  48.652  1.00  0.00     0.022 A 
ENDBRANCH   3  30
TORSDOF 6
ENDMDL
MODEL 3
REMARK VINA RESULT:      -9.7      2.795      8.021
REMARK  6 active torsions:
REMARK  status: ('A' for Active; 'I' for Inactive)
REMARK    1  A    between atoms: C_2  and  C_3 
REMARK    2  A    between atoms: C_3  and  C_4 
REMARK    3  A    between atoms: C_6  and  N_7 
REMARK    4  A    between atoms: C_9  and  C_10 
REMARK    5  A    between atoms: C_16  and  N_17 
REMARK       I    between atoms: N_17  and  C_18 
REMARK    6  A    between atoms: C_18  and  C_19 
ROOT
HETATM    1  N   UNL     1       6.598  27.087  55.650  1.00  0.00    -0.044 N 
HETATM    2  N   UNL     1       6.747  25.996  54.851  1.00  0.00    -0.150 NA
HETATM    3  C   UNL     1       7.577  25.198  55.538  1.00  0.00     0.099 A 
HETATM    4  C   UNL     1       7.956  25.773  56.775  1.00  0.00     0.086 A 
HETATM    5  C   UNL     1       7.331  26.997  56.820  1.00  0.00     0.152 A 
ENDROOT
BRANCH   5   6
HETATM    6  N   UNL     1       7.408  27.983  57.800  1.00  0.00    -0.305 N 
HETATM    7  C   UNL     1       8.429  28.985  57.868  1.00  0.00     0.281 C 
HETATM    8  O   UNL     1       9.405  28.938  57.136  1.00  0.00    -0.265 OA
HETATM    9  H   UNL     1       6.693  27.980  58.532  1.00  0.00     0.170 HD
BRANCH   7  10
HETATM   10  C   UNL     1       8.177  29.989  58.869  1.00  0.00     0.144 A 
HETATM   11  O   UNL     1       8.880  29.948  60.045  1.00  0.00    -0.304 OA
HETATM   12  C   UNL     1       8.397  30.952  60.832  1.00  0.00     0.086 A 
HETATM   13  C   UNL     1       7.414  31.666  60.158  1.00  0.00     0.001 A 
HETATM   14  C   UNL     1       8.810  31.230  62.132  1.00  0.00     0.038 A 
HETATM   15  C   UNL     1       7.278  31.038  58.894  1.00  0.00     0.057 A 
HETATM   16  C   UNL     1       6.802  32.750  60.811  1.00  0.00     0.014 A 
HETATM   17  C   UNL     1       7.201  33.059  62.119  1.00  0.00     0.001 A 
HETATM   18  C   UNL     1       8.184  32.308  62.767  1.00  0.00     0.003 A 
ENDBRANCH   7  10
ENDBRANCH   5   6
BRANCH   1  19
HETATM   19  C   UNL     1       5.751  28.137  55.266  1.00  0.00     0.732 A 
HETATM   20  N   UNL     1       5.801  29.309  55.822  1.00  0.00    -0.067 NA
HETATM   21  C   UNL     1       4.881  30.227  55.354  1.00  0.00     0.059 A 
HETATM   22  C   UNL     1       3.984  29.962  54.390  1.00  0.00     0.102 A 
HETATM   23  C   UNL     1       3.971  28.625  53.773  1.00  0.00     0.261 A 
HETATM   24  N   UNL     1       4.892  27.763  54.272  1.00  0.00    -0.152 N 
HETATM   25  O   UNL     1       3.178  28.332  52.890  1.00  0.00    -0.268 OA
HETATM   26  H   UNL     1       4.926  26.818  53.898  1.00  0.00     0.187 HD
BRANCH  21  27
HETATM   27  C   UNL     1       4.897  31.582  56.027  1.00  0.00     0.060 C 
BRANCH  27  28
HETATM   28  C   UNL     1       3.629  31.828  56.846  1.00  0.00     0.002 C 
HETATM   29  C   UNL     1       3.618  30.984  58.111  1.00  0.00     0.005 C 
ENDBRANCH  27  28
ENDBRANCH  21  27
ENDBRANCH   1  19
BRANCH   3  30
HETATM   30  C   UNL     1       8.025  23.870  55.001  1.00  0.00     0.035 A 
HETATM   31  S   UNL     1       8.542  22.564  55.975  1.00  0.00    -0.100 SA
HETATM   32  C   UNL     1       8.840  21.578  54.609  1.00  0.00     0.050 A 
HETATM   33  C   UNL     1       8.550  22.229  53.432  1.00  0.00     0.008 A 
HETATM   34  C   UNL     1       8.077  23.556  53.658  1.00  0.00     0.022 A 
ENDBRANCH   3  30
TORSDOF 6
ENDMDL
MODEL 4
REMARK VINA RESULT:      -9.5      2.012      5.628
REMARK  6 active torsions:
REMARK  status: ('A' for Active; 'I' for Inactive)
REMARK    1  A    between atoms: C_2  and  C_3 
REMARK    2  A    between atoms: C_3  and  C_4 
REMARK    3  A    between atoms: C_6  and  N_7 
REMARK    4  A    between atoms: C_9  and  C_10 
REMARK    5  A    between atoms: C_16  and  N_17 
REMARK       I    between atoms: N_17  and  C_18 
REMARK    6  A    between atoms: C_18  and  C_19 
ROOT
HETATM    1  N   UNL     1       7.225  27.889  56.381  1.00  0.00    -0.044 N 
HETATM    2  N   UNL     1       7.449  28.435  57.607  1.00  0.00    -0.150 NA
HETATM    3  C   UNL     1       7.056  29.710  57.473  1.00  0.00     0.099 A 
HETATM    4  C   UNL     1       6.579  29.980  56.167  1.00  0.00     0.086 A 
HETATM    5  C   UNL     1       6.714  28.800  55.474  1.00  0.00     0.152 A 
ENDROOT
BRANCH   5   6
HETATM    6  N   UNL     1       6.435  28.534  54.136  1.00  0.00    -0.305 N 
HETATM    7  C   UNL     1       5.123  28.314  53.606  1.00  0.00     0.281 C 
HETATM    8  O   UNL     1       4.158  28.194  54.346  1.00  0.00    -0.265 OA
HETATM    9  H   UNL     1       7.227  28.473  53.490  1.00  0.00     0.170 HD
BRANCH   7  10
HETATM   10  C   UNL     1       5.094  28.238  52.169  1.00  0.00     0.144 A 
HETATM   11  O   UNL     1       4.626  27.096  51.571  1.00  0.00    -0.304 OA
HETATM   12  C   UNL     1       4.779  27.260  50.226  1.00  0.00     0.086 A 
HETATM   13  C   UNL     1       5.305  28.516  49.947  1.00  0.00     0.001 A 
HETATM   14  C   UNL     1       4.468  26.312  49.255  1.00  0.00     0.038 A 
HETATM   15  C   UNL     1       5.505  29.139  51.205  1.00  0.00     0.057 A 
HETATM   16  C   UNL     1       5.526  28.871  48.605  1.00  0.00     0.014 A 
HETATM   17  C   UNL     1       5.217  27.939  47.604  1.00  0.00     0.001 A 
HETATM   18  C   UNL     1       4.701  26.682  47.926  1.00  0.00     0.003 A 
ENDBRANCH   7  10
ENDBRANCH   5   6
BRANCH   1  19
HETATM   19  C   UNL     1       7.488  26.530  56.152  1.00  0.00     0.732 A 
HETATM   20  N   UNL     1       7.093  25.917  55.078  1.00  0.00    -0.067 NA
HETATM   21  C   UNL     1       7.403  24.572  55.014  1.00  0.00     0.059 A 
HETATM   22  C   UNL     1       8.068  23.912  55.977  1.00  0.00     0.102 A 
HETATM   23  C   UNL     1       8.513  24.647  57.172  1.00  0.00     0.261 A 
HETATM   24  N   UNL     1       8.180  25.963  57.184  1.00  0.00    -0.152 N 
HETATM   25  O   UNL     1       9.124  24.096  58.076  1.00  0.00    -0.268 OA
HETATM   26  H   UNL     1       8.446  26.524  57.989  1.00  0.00     0.187 HD
BRANCH  21  27
HETATM   27  C   UNL     1       6.907  23.837  53.789  1.00  0.00     0.060 C 
BRANCH  27  28
HETATM   28  C   UNL     1       8.051  23.184  53.011  1.00  0.00     0.002 C 
HETATM   29  C   UNL     1       7.935  21.668  53.030  1.00  0.00     0.005 C 
ENDBRANCH  27  28
ENDBRANCH  21  27
ENDBRANCH   1  19
BRANCH   3  30
HETATM   30  C   UNL     1       7.149  30.692  58.605  1.00  0.00     0.035 A 
HETATM   31  S   UNL     1       8.383  30.680  59.788  1.00  0.00    -0.100 SA
HETATM   32  C   UNL     1       7.711  32.032  60.595  1.00  0.00     0.050 A 
HETATM   33  C   UNL     1       6.570  32.486  59.974  1.00  0.00     0.008 A 
HETATM   34  C   UNL     1       6.245  31.711  58.821  1.00  0.00     0.022 A 
ENDBRANCH   3  30
TORSDOF 6
ENDMDL
MODEL 5
REMARK VINA RESULT:      -9.1      3.569      7.862
REMARK  6 active torsions:
REMARK  status: ('A' for Active; 'I' for Inactive)
REMARK    1  A    between atoms: C_2  and  C_3 
REMARK    2  A    between atoms: C_3  and  C_4 
REMARK    3  A    between atoms: C_6  and  N_7 
REMARK    4  A    between atoms: C_9  and  C_10 
REMARK    5  A    between atoms: C_16  and  N_17 
REMARK       I    between atoms: N_17  and  C_18 
REMARK    6  A    between atoms: C_18  and  C_19 
ROOT
HETATM    1  N   UNL     1       7.063  25.483  54.173  1.00  0.00    -0.044 N 
HETATM    2  N   UNL     1       7.480  24.499  55.016  1.00  0.00    -0.150 NA
HETATM    3  C   UNL     1       7.736  23.462  54.206  1.00  0.00     0.099 A 
HETATM    4  C   UNL     1       7.489  23.781  52.848  1.00  0.00     0.086 A 
HETATM    5  C   UNL     1       7.038  25.080  52.850  1.00  0.00     0.152 A 
ENDROOT
BRANCH   5   6
HETATM    6  N   UNL     1       6.609  25.859  51.779  1.00  0.00    -0.305 N 
HETATM    7  C   UNL     1       5.320  25.760  51.164  1.00  0.00     0.281 C 
HETATM    8  O   UNL     1       4.553  24.854  51.455  1.00  0.00    -0.265 OA
HETATM    9  H   UNL     1       7.271  26.538  51.394  1.00  0.00     0.170 HD
BRANCH   7  10
HETATM   10  C   UNL     1       5.067  26.798  50.200  1.00  0.00     0.144 A 
HETATM   11  O   UNL     1       5.658  28.024  50.370  1.00  0.00    -0.304 OA
HETATM   12  C   UNL     1       5.194  28.831  49.373  1.00  0.00     0.086 A 
HETATM   13  C   UNL     1       4.339  28.124  48.535  1.00  0.00     0.001 A 
HETATM   14  C   UNL     1       5.513  30.175  49.206  1.00  0.00     0.038 A 
HETATM   15  C   UNL     1       4.262  26.816  49.076  1.00  0.00     0.057 A 
HETATM   16  C   UNL     1       3.766  28.792  47.440  1.00  0.00     0.014 A 
HETATM   17  C   UNL     1       4.073  30.146  47.242  1.00  0.00     0.001 A 
HETATM   18  C   UNL     1       4.928  30.824  48.113  1.00  0.00     0.003 A 
ENDBRANCH   7  10
ENDBRANCH   5   6
BRANCH   1  19
HETATM   19  C   UNL     1       6.737  26.753  54.672  1.00  0.00     0.732 A 
HETATM   20  N   UNL     1       5.679  27.399  54.290  1.00  0.00    -0.067 NA
HETATM   21  C   UNL     1       5.513  28.651  54.852  1.00  0.00     0.059 A 
HETATM   22  C   UNL     1       6.366  29.192  55.737  1.00  0.00     0.102 A 
HETATM   23  C   UNL     1       7.546  28.420  56.157  1.00  0.00     0.261 A 
HETATM   24  N   UNL     1       7.662  27.199  55.573  1.00  0.00    -0.152 N 
HETATM   25  O   UNL     1       8.352  28.863  56.962  1.00  0.00    -0.268 OA
HETATM   26  H   UNL     1       8.463  26.622  55.811  1.00  0.00     0.187 HD
BRANCH  21  27
HETATM   27  C   UNL     1       4.308  29.434  54.378  1.00  0.00     0.060 C 
BRANCH  27  28
HETATM   28  C   UNL     1       3.656  28.793  53.152  1.00  0.00     0.002 C 
HETATM   29  C   UNL     1       3.167  29.849  52.173  1.00  0.00     0.005 C 
ENDBRANCH  27  28
ENDBRANCH  21  27
ENDBRANCH   1  19
BRANCH   3  30
HETATM   30  C   UNL     1       8.214  22.141  54.735  1.00  0.00     0.035 A 
HETATM   31  S   UNL     1       8.353  20.722  53.793  1.00  0.00    -0.100 SA
HETATM   32  C   UNL     1       8.910  19.811  55.130  1.00  0.00     0.050 A 
HETATM   33  C   UNL     1       8.991  20.573  56.274  1.00  0.00     0.008 A 
HETATM   34  C   UNL     1       8.590  21.923  56.045  1.00  0.00     0.022 A 
ENDBRANCH   3  30
TORSDOF 6
ENDMDL
MODEL 6
REMARK VINA RESULT:      -9.0      3.187      8.657
REMARK  6 active torsions:
REMARK  status: ('A' for Active; 'I' for Inactive)
REMARK    1  A    between atoms: C_2  and  C_3 
REMARK    2  A    between atoms: C_3  and  C_4 
REMARK    3  A    between atoms: C_6  and  N_7 
REMARK    4  A    between atoms: C_9  and  C_10 
REMARK    5  A    between atoms: C_16  and  N_17 
REMARK       I    between atoms: N_17  and  C_18 
REMARK    6  A    between atoms: C_18  and  C_19 
ROOT
HETATM    1  N   UNL     1       6.328  29.156  56.019  1.00  0.00    -0.044 N 
HETATM    2  N   UNL     1       6.413  28.312  54.954  1.00  0.00    -0.150 NA
HETATM    3  C   UNL     1       7.103  27.263  55.423  1.00  0.00     0.099 A 
HETATM    4  C   UNL     1       7.455  27.430  56.784  1.00  0.00     0.086 A 
HETATM    5  C   UNL     1       6.964  28.663  57.144  1.00  0.00     0.152 A 
ENDROOT
BRANCH   5   6
HETATM    6  N   UNL     1       7.078  29.330  58.361  1.00  0.00    -0.305 N 
HETATM    7  C   UNL     1       8.205  30.122  58.753  1.00  0.00     0.281 C 
HETATM    8  O   UNL     1       9.227  30.135  58.084  1.00  0.00    -0.265 OA
HETATM    9  H   UNL     1       6.308  29.232  59.029  1.00  0.00     0.170 HD
BRANCH   7  10
HETATM   10  C   UNL     1       7.994  30.846  59.979  1.00  0.00     0.144 A 
HETATM   11  O   UNL     1       7.027  31.818  60.021  1.00  0.00    -0.304 OA
HETATM   12  C   UNL     1       7.091  32.389  61.257  1.00  0.00     0.086 A 
HETATM   13  C   UNL     1       8.066  31.768  62.029  1.00  0.00     0.001 A 
HETATM   14  C   UNL     1       6.307  33.452  61.699  1.00  0.00     0.038 A 
HETATM   15  C   UNL     1       8.643  30.776  61.197  1.00  0.00     0.057 A 
HETATM   16  C   UNL     1       8.272  32.219  63.344  1.00  0.00     0.014 A 
HETATM   17  C   UNL     1       7.493  33.284  63.820  1.00  0.00     0.001 A 
HETATM   18  C   UNL     1       6.532  33.890  63.008  1.00  0.00     0.003 A 
ENDBRANCH   7  10
ENDBRANCH   5   6
BRANCH   1  19
HETATM   19  C   UNL     1       5.627  30.366  55.910  1.00  0.00     0.732 A 
HETATM   20  N   UNL     1       5.652  31.270  56.840  1.00  0.00    -0.067 NA
HETATM   21  C   UNL     1       4.886  32.394  56.597  1.00  0.00     0.059 A 
HETATM   22  C   UNL     1       4.155  32.574  55.484  1.00  0.00     0.102 A 
HETATM   23  C   UNL     1       4.166  31.532  54.445  1.00  0.00     0.261 A 
HETATM   24  N   UNL     1       4.932  30.450  54.737  1.00  0.00    -0.152 N 
HETATM   25  O   UNL     1       3.522  31.646  53.412  1.00  0.00    -0.268 OA
HETATM   26  H   UNL     1       4.971  29.688  54.065  1.00  0.00     0.187 HD
BRANCH  21  27
HETATM   27  C   UNL     1       4.870  33.434  57.696  1.00  0.00     0.060 C 
BRANCH  27  28
HETATM   28  C   UNL     1       3.539  33.449  58.448  1.00  0.00     0.002 C 
HETATM   29  C   UNL     1       3.529  32.422  59.570  1.00  0.00     0.005 C 
ENDBRANCH  27  28
ENDBRANCH  21  27
ENDBRANCH   1  19
BRANCH   3  30
HETATM   30  C   UNL     1       7.443  26.086  54.556  1.00  0.00     0.035 A 
HETATM   31  S   UNL     1       7.680  24.498  55.142  1.00  0.00    -0.100 SA
HETATM   32  C   UNL     1       8.008  23.898  53.573  1.00  0.00     0.050 A 
HETATM   33  C   UNL     1       7.936  24.888  52.619  1.00  0.00     0.008 A 
HETATM   34  C   UNL     1       7.608  26.154  53.188  1.00  0.00     0.022 A 
ENDBRANCH   3  30
TORSDOF 6
ENDMDL
MODEL 7
REMARK VINA RESULT:      -9.0      2.776      7.667
REMARK  6 active torsions:
REMARK  status: ('A' for Active; 'I' for Inactive)
REMARK    1  A    between atoms: C_2  and  C_3 
REMARK    2  A    between atoms: C_3  and  C_4 
REMARK    3  A    between atoms: C_6  and  N_7 
REMARK    4  A    between atoms: C_9  and  C_10 
REMARK    5  A    between atoms: C_16  and  N_17 
REMARK       I    between atoms: N_17  and  C_18 
REMARK    6  A    between atoms: C_18  and  C_19 
ROOT
HETATM    1  N   UNL     1       6.331  26.550  55.190  1.00  0.00    -0.044 N 
HETATM    2  N   UNL     1       6.346  25.417  54.436  1.00  0.00    -0.150 NA
HETATM    3  C   UNL     1       7.175  24.597  55.097  1.00  0.00     0.099 A 
HETATM    4  C   UNL     1       7.686  25.199  56.272  1.00  0.00     0.086 A 
HETATM    5  C   UNL     1       7.146  26.463  56.304  1.00  0.00     0.152 A 
ENDROOT
BRANCH   5   6
HETATM    6  N   UNL     1       7.361  27.485  57.225  1.00  0.00    -0.305 N 
HETATM    7  C   UNL     1       8.084  28.690  56.949  1.00  0.00     0.281 C 
HETATM    8  O   UNL     1       8.700  28.829  55.904  1.00  0.00    -0.265 OA
HETATM    9  H   UNL     1       6.993  27.355  58.171  1.00  0.00     0.170 HD
BRANCH   7  10
HETATM   10  C   UNL     1       8.008  29.657  58.014  1.00  0.00     0.144 A 
HETATM   11  O   UNL     1       8.912  29.586  59.043  1.00  0.00    -0.304 OA
HETATM   12  C   UNL     1       8.570  30.556  59.939  1.00  0.00     0.086 A 
HETATM   13  C   UNL     1       7.476  31.279  59.478  1.00  0.00     0.001 A 
HETATM   14  C   UNL     1       9.207  30.797  61.153  1.00  0.00     0.038 A 
HETATM   15  C   UNL     1       7.120  30.692  58.237  1.00  0.00     0.057 A 
HETATM   16  C   UNL     1       6.983  32.332  60.267  1.00  0.00     0.014 A 
HETATM   17  C   UNL     1       7.609  32.603  61.493  1.00  0.00     0.001 A 
HETATM   18  C   UNL     1       8.698  31.845  61.927  1.00  0.00     0.003 A 
ENDBRANCH   7  10
ENDBRANCH   5   6
BRANCH   1  19
HETATM   19  C   UNL     1       5.525  27.637  54.819  1.00  0.00     0.732 A 
HETATM   20  N   UNL     1       5.515  28.116  53.613  1.00  0.00    -0.067 NA
HETATM   21  C   UNL     1       4.690  29.207  53.414  1.00  0.00     0.059 A 
HETATM   22  C   UNL     1       3.935  29.759  54.378  1.00  0.00     0.102 A 
HETATM   23  C   UNL     1       3.963  29.177  55.730  1.00  0.00     0.261 A 
HETATM   24  N   UNL     1       4.791  28.110  55.870  1.00  0.00    -0.152 N 
HETATM   25  O   UNL     1       3.293  29.638  56.643  1.00  0.00    -0.268 OA
HETATM   26  H   UNL     1       4.866  27.671  56.783  1.00  0.00     0.187 HD
BRANCH  21  27
HETATM   27  C   UNL     1       4.706  29.803  52.024  1.00  0.00     0.060 C 
BRANCH  27  28
HETATM   28  C   UNL     1       5.357  28.864  51.007  1.00  0.00     0.002 C 
HETATM   29  C   UNL     1       5.613  29.575  49.687  1.00  0.00     0.005 C 
ENDBRANCH  27  28
ENDBRANCH  21  27
ENDBRANCH   1  19
BRANCH   3  30
HETATM   30  C   UNL     1       7.495  23.219  54.594  1.00  0.00     0.035 A 
HETATM   31  S   UNL     1       7.800  21.874  55.604  1.00  0.00    -0.100 SA
HETATM   32  C   UNL     1       8.057  20.843  54.263  1.00  0.00     0.050 A 
HETATM   33  C   UNL     1       7.910  21.510  53.067  1.00  0.00     0.008 A 
HETATM   34  C   UNL     1       7.584  22.885  53.258  1.00  0.00     0.022 A 
ENDBRANCH   3  30
TORSDOF 6
ENDMDL
MODEL 8
REMARK VINA RESULT:      -8.9      3.294      6.642
REMARK  6 active torsions:
REMARK  status: ('A' for Active; 'I' for Inactive)
REMARK    1  A    between atoms: C_2  and  C_3 
REMARK    2  A    between atoms: C_3  and  C_4 
REMARK    3  A    between atoms: C_6  and  N_7 
REMARK    4  A    between atoms: C_9  and  C_10 
REMARK    5  A    between atoms: C_16  and  N_17 
REMARK       I    between atoms: N_17  and  C_18 
REMARK    6  A    between atoms: C_18  and  C_19 
ROOT
HETATM    1  N   UNL     1       5.544  27.467  52.397  1.00  0.00    -0.044 N 
HETATM    2  N   UNL     1       4.974  28.316  51.501  1.00  0.00    -0.150 NA
HETATM    3  C   UNL     1       4.631  27.525  50.474  1.00  0.00     0.099 A 
HETATM    4  C   UNL     1       4.977  26.173  50.713  1.00  0.00     0.086 A 
HETATM    5  C   UNL     1       5.581  26.159  51.948  1.00  0.00     0.152 A 
ENDROOT
BRANCH   5   6
HETATM    6  N   UNL     1       6.149  25.088  52.633  1.00  0.00    -0.305 N 
HETATM    7  C   UNL     1       7.556  24.864  52.772  1.00  0.00     0.281 C 
HETATM    8  O   UNL     1       8.364  25.538  52.150  1.00  0.00    -0.265 OA
HETATM    9  H   UNL     1       5.513  24.403  53.051  1.00  0.00     0.170 HD
BRANCH   7  10
HETATM   10  C   UNL     1       7.877  23.790  53.675  1.00  0.00     0.144 A 
HETATM   11  O   UNL     1       8.214  22.565  53.160  1.00  0.00    -0.304 OA
HETATM   12  C   UNL     1       8.391  21.724  54.219  1.00  0.00     0.086 A 
HETATM   13  C   UNL     1       8.209  22.406  55.416  1.00  0.00     0.001 A 
HETATM   14  C   UNL     1       8.699  20.369  54.133  1.00  0.00     0.038 A 
HETATM   15  C   UNL     1       7.878  23.737  55.056  1.00  0.00     0.057 A 
HETATM   16  C   UNL     1       8.360  21.701  56.623  1.00  0.00     0.014 A 
HETATM   17  C   UNL     1       8.676  20.336  56.569  1.00  0.00     0.001 A 
HETATM   18  C   UNL     1       8.838  19.683  55.345  1.00  0.00     0.003 A 
ENDBRANCH   7  10
ENDBRANCH   5   6
BRANCH   1  19
HETATM   19  C   UNL     1       5.998  27.944  53.636  1.00  0.00     0.732 A 
HETATM   20  N   UNL     1       5.204  28.117  54.648  1.00  0.00    -0.067 NA
HETATM   21  C   UNL     1       5.797  28.621  55.789  1.00  0.00     0.059 A 
HETATM   22  C   UNL     1       7.103  28.922  55.883  1.00  0.00     0.102 A 
HETATM   23  C   UNL     1       7.974  28.696  54.718  1.00  0.00     0.261 A 
HETATM   24  N   UNL     1       7.339  28.202  53.624  1.00  0.00    -0.152 N 
HETATM   25  O   UNL     1       9.170  28.949  54.750  1.00  0.00    -0.268 OA
HETATM   26  H   UNL     1       7.883  28.037  52.781  1.00  0.00     0.187 HD
BRANCH  21  27
HETATM   27  C   UNL     1       4.872  28.872  56.960  1.00  0.00     0.060 C 
BRANCH  27  28
HETATM   28  C   UNL     1       5.209  30.175  57.686  1.00  0.00     0.002 C 
HETATM   29  C   UNL     1       4.531  31.365  57.024  1.00  0.00     0.005 C 
ENDBRANCH  27  28
ENDBRANCH  21  27
ENDBRANCH   1  19
BRANCH   3  30
HETATM   30  C   UNL     1       3.975  28.069  49.239  1.00  0.00     0.035 A 
HETATM   31  S   UNL     1       4.035  29.709  48.761  1.00  0.00    -0.100 SA
HETATM   32  C   UNL     1       3.081  29.407  47.373  1.00  0.00     0.050 A 
HETATM   33  C   UNL     1       2.724  28.082  47.273  1.00  0.00     0.008 A 
HETATM   34  C   UNL     1       3.242  27.306  48.352  1.00  0.00     0.022 A 
ENDBRANCH   3  30
TORSDOF 6
ENDMDL
MODEL 9
REMARK VINA RESULT:      -8.9      2.536      5.741
REMARK  6 active torsions:
REMARK  status: ('A' for Active; 'I' for Inactive)
REMARK    1  A    between atoms: C_2  and  C_3 
REMARK    2  A    between atoms: C_3  and  C_4 
REMARK    3  A    between atoms: C_6  and  N_7 
REMARK    4  A    between atoms: C_9  and  C_10 
REMARK    5  A    between atoms: C_16  and  N_17 
REMARK       I    between atoms: N_17  and  C_18 
REMARK    6  A    between atoms: C_18  and  C_19 
ROOT
HETATM    1  N   UNL     1       6.019  29.860  55.907  1.00  0.00    -0.044 N 
HETATM    2  N   UNL     1       5.255  30.980  55.783  1.00  0.00    -0.150 NA
HETATM    3  C   UNL     1       4.225  30.589  55.020  1.00  0.00     0.099 A 
HETATM    4  C   UNL     1       4.325  29.223  54.659  1.00  0.00     0.086 A 
HETATM    5  C   UNL     1       5.496  28.776  55.224  1.00  0.00     0.152 A 
ENDROOT
BRANCH   5   6
HETATM    6  N   UNL     1       6.087  27.519  55.136  1.00  0.00    -0.305 N 
HETATM    7  C   UNL     1       5.811  26.426  56.019  1.00  0.00     0.281 C 
HETATM    8  O   UNL     1       5.133  26.584  57.022  1.00  0.00    -0.265 OA
HETATM    9  H   UNL     1       6.782  27.374  54.399  1.00  0.00     0.170 HD
BRANCH   7  10
HETATM   10  C   UNL     1       6.419  25.189  55.601  1.00  0.00     0.144 A 
HETATM   11  O   UNL     1       6.655  24.980  54.267  1.00  0.00    -0.304 OA
HETATM   12  C   UNL     1       7.158  23.718  54.144  1.00  0.00     0.086 A 
HETATM   13  C   UNL     1       7.285  23.123  55.394  1.00  0.00     0.001 A 
HETATM   14  C   UNL     1       7.491  23.092  52.947  1.00  0.00     0.038 A 
HETATM   15  C   UNL     1       6.806  24.078  56.327  1.00  0.00     0.057 A 
HETATM   16  C   UNL     1       7.796  21.817  55.470  1.00  0.00     0.014 A 
HETATM   17  C   UNL     1       8.148  21.163  54.280  1.00  0.00     0.001 A 
HETATM   18  C   UNL     1       7.993  21.790  53.042  1.00  0.00     0.003 A 
ENDBRANCH   7  10
ENDBRANCH   5   6
BRANCH   1  19
HETATM   19  C   UNL     1       7.185  29.880  56.686  1.00  0.00     0.732 A 
HETATM   20  N   UNL     1       7.165  30.112  57.963  1.00  0.00    -0.067 NA
HETATM   21  C   UNL     1       8.399  30.128  58.584  1.00  0.00     0.059 A 
HETATM   22  C   UNL     1       9.561  29.920  57.943  1.00  0.00     0.102 A 
HETATM   23  C   UNL     1       9.541  29.645  56.497  1.00  0.00     0.261 A 
HETATM   24  N   UNL     1       8.303  29.643  55.938  1.00  0.00    -0.152 N 
HETATM   25  O   UNL     1      10.568  29.445  55.865  1.00  0.00    -0.268 OA
HETATM   26  H   UNL     1       8.222  29.473  54.939  1.00  0.00     0.187 HD
BRANCH  21  27
HETATM   27  C   UNL     1       8.391  30.444  60.063  1.00  0.00     0.060 C 
BRANCH  27  28
HETATM   28  C   UNL     1       8.630  31.931  60.331  1.00  0.00     0.002 C 
HETATM   29  C   UNL     1       7.363  32.612  60.824  1.00  0.00     0.005 C 
ENDBRANCH  27  28
ENDBRANCH  21  27
ENDBRANCH   1  19
BRANCH   3  30
HETATM   30  C   UNL     1       3.133  31.536  54.617  1.00  0.00     0.035 A 
HETATM   31  S   UNL     1       2.964  32.199  53.051  1.00  0.00    -0.100 SA
HETATM   32  C   UNL     1       1.575  33.088  53.505  1.00  0.00     0.050 A 
HETATM   33  C   UNL     1       1.243  32.883  54.825  1.00  0.00     0.008 A 
HETATM   34  C   UNL     1       2.143  31.984  55.469  1.00  0.00     0.022 A 
ENDBRANCH   3  30
TORSDOF 6
ENDMDL
MODEL 10
REMARK VINA RESULT:      -8.9      1.769      2.436
REMARK  6 active torsions:
REMARK  status: ('A' for Active; 'I' for Inactive)
REMARK    1  A    between atoms: C_2  and  C_3 
REMARK    2  A    between atoms: C_3  and  C_4 
REMARK    3  A    between atoms: C_6  and  N_7 
REMARK    4  A    between atoms: C_9  and  C_10 
REMARK    5  A    between atoms: C_16  and  N_17 
REMARK       I    between atoms: N_17  and  C_18 
REMARK    6  A    between atoms: C_18  and  C_19 
ROOT
HETATM    1  N   UNL     1       6.138  30.019  56.792  1.00  0.00    -0.044 N 
HETATM    2  N   UNL     1       6.287  30.993  57.731  1.00  0.00    -0.150 NA
HETATM    3  C   UNL     1       7.180  30.483  58.591  1.00  0.00     0.099 A 
HETATM    4  C   UNL     1       7.606  29.189  58.203  1.00  0.00     0.086 A 
HETATM    5  C   UNL     1       6.909  28.901  57.053  1.00  0.00     0.152 A 
ENDROOT
BRANCH   5   6
HETATM    6  N   UNL     1       6.921  27.736  56.291  1.00  0.00    -0.305 N 
HETATM    7  C   UNL     1       7.675  27.559  55.086  1.00  0.00     0.281 C 
HETATM    8  O   UNL     1       8.251  28.499  54.561  1.00  0.00    -0.265 OA
HETATM    9  H   UNL     1       6.334  26.958  56.605  1.00  0.00     0.170 HD
BRANCH   7  10
HETATM   10  C   UNL     1       7.652  26.206  54.593  1.00  0.00     0.144 A 
HETATM   11  O   UNL     1       7.637  25.170  55.492  1.00  0.00    -0.304 OA
HETATM   12  C   UNL     1       7.694  24.016  54.768  1.00  0.00     0.086 A 
HETATM   13  C   UNL     1       7.708  24.296  53.407  1.00  0.00     0.001 A 
HETATM   14  C   UNL     1       7.745  22.730  55.299  1.00  0.00     0.038 A 
HETATM   15  C   UNL     1       7.681  25.710  53.304  1.00  0.00     0.057 A 
HETATM   16  C   UNL     1       7.758  23.225  52.498  1.00  0.00     0.014 A 
HETATM   17  C   UNL     1       7.803  21.918  53.003  1.00  0.00     0.001 A 
HETATM   18  C   UNL     1       7.800  21.677  54.379  1.00  0.00     0.003 A 
ENDBRANCH   7  10
ENDBRANCH   5   6
BRANCH   1  19
HETATM   19  C   UNL     1       5.291  30.220  55.692  1.00  0.00     0.732 A 
HETATM   20  N   UNL     1       4.779  29.235  55.020  1.00  0.00    -0.067 NA
HETATM   21  C   UNL     1       3.990  29.596  53.945  1.00  0.00     0.059 A 
HETATM   22  C   UNL     1       3.746  30.868  53.591  1.00  0.00     0.102 A 
HETATM   23  C   UNL     1       4.333  31.957  54.388  1.00  0.00     0.261 A 
HETATM   24  N   UNL     1       5.100  31.547  55.430  1.00  0.00    -0.152 N 
HETATM   25  O   UNL     1       4.140  33.133  54.112  1.00  0.00    -0.268 OA
HETATM   26  H   UNL     1       5.546  32.251  56.011  1.00  0.00     0.187 HD
BRANCH  21  27
HETATM   27  C   UNL     1       3.426  28.456  53.126  1.00  0.00     0.060 C 
BRANCH  27  28
HETATM   28  C   UNL     1       3.261  28.836  51.654  1.00  0.00     0.002 C 
HETATM   29  C   UNL     1       4.430  28.333  50.821  1.00  0.00     0.005 C 
ENDBRANCH  27  28
ENDBRANCH  21  27
ENDBRANCH   1  19
BRANCH   3  30
HETATM   30  C   UNL     1       7.627  31.236  59.810  1.00  0.00     0.035 A 
HETATM   31  S   UNL     1       9.003  30.832  60.739  1.00  0.00    -0.100 SA
HETATM   32  C   UNL     1       8.728  32.122  61.828  1.00  0.00     0.050 A 
HETATM   33  C   UNL     1       7.610  32.851  61.490  1.00  0.00     0.008 A 
HETATM   34  C   UNL     1       6.973  32.339  60.321  1.00  0.00     0.022 A 
ENDBRANCH   3  30
TORSDOF 6
ENDMDL
