MODEL 1
REMARK VINA RESULT:     -10.1      0.000      0.000
REMARK  3 active torsions:
REMARK  status: ('A' for Active; 'I' for Inactive)
REMARK    1  A    between atoms: C_3  and  C_4 
REMARK    2  A    between atoms: C_8  and  C_9 
REMARK       I    between atoms: C_9  and  N_10 
REMARK    3  A    between atoms: N_10  and  N_11 
ROOT
HETATM    1  C   UNL     1       5.568  26.035  52.175  1.00  0.00     0.291 C 
HETATM    2  N   UNL     1       5.888  26.541  50.935  1.00  0.00    -0.251 N 
HETATM    3  O   UNL     1       4.586  26.374  52.832  1.00  0.00    -0.264 OA
HETATM    4  H   UNL     1       6.725  26.222  50.461  1.00  0.00     0.191 HD
ENDROOT
BRANCH   1   5
HETATM    5  C   UNL     1       6.532  25.028  52.638  1.00  0.00     0.148 A 
HETATM    6  N   UNL     1       7.689  24.794  51.987  1.00  0.00    -0.169 NA
HETATM    7  N   UNL     1       8.283  23.834  52.719  1.00  0.00    -0.277 N 
HETATM    8  C   UNL     1       7.544  23.398  53.789  1.00  0.00     0.064 A 
HETATM    9  H   UNL     1       9.200  23.506  52.434  1.00  0.00     0.189 HD
HETATM   10  C   UNL     1       6.403  24.176  53.762  1.00  0.00     0.071 A 
BRANCH   8  11
HETATM   11  C   UNL     1       7.946  22.302  54.673  1.00  0.00     0.014 A 
HETATM   12  C   UNL     1       8.070  22.573  56.048  1.00  0.00     0.015 A 
HETATM   13  C   UNL     1       8.432  21.574  56.955  1.00  0.00     0.001 A 
HETATM   14  C   UNL     1       8.686  20.283  56.502  1.00  0.00     0.002 A 
HETATM   15  C   UNL     1       8.578  19.992  55.143  1.00  0.00     0.025 A 
HETATM   16  C   UNL     1       8.209  20.991  54.232  1.00  0.00     0.046 A 
HETATM   17 CL   UNL     1       8.120  20.532  52.565  1.00  0.00    -0.083 Cl
ENDBRANCH   8  11
ENDBRANCH   1   5
BRANCH   2  18
HETATM   18  N   UNL     1       5.052  27.451  50.330  1.00  0.00    -0.167 N 
HETATM   19  C   UNL     1       5.155  28.808  50.496  1.00  0.00     0.345 A 
HETATM   20  O   UNL     1       5.877  29.432  51.256  1.00  0.00    -0.245 OA
HETATM   21  N   UNL     1       4.246  29.399  49.636  1.00  0.00    -0.323 N 
HETATM   22  C   UNL     1       3.516  28.426  48.843  1.00  0.00     0.117 A 
HETATM   23  H   UNL     1       4.173  30.407  49.574  1.00  0.00     0.165 HD
HETATM   24  C   UNL     1       3.811  28.576  47.348  1.00  0.00     0.041 C 
HETATM   25  C   UNL     1       2.016  28.475  49.151  1.00  0.00     0.041 C 
HETATM   26  C   UNL     1       4.131  27.113  49.373  1.00  0.00     0.275 A 
HETATM   27  C   UNL     1       3.123  29.799  46.743  1.00  0.00     0.003 C 
HETATM   28  C   UNL     1       1.626  29.812  47.042  1.00  0.00     0.000 C 
HETATM   29  C   UNL     1       1.347  29.706  48.538  1.00  0.00     0.003 C 
HETATM   30  O   UNL     1       3.827  25.986  49.002  1.00  0.00    -0.268 OA
ENDBRANCH   2  18
TORSDOF 3
ENDMDL
MODEL 2
REMARK VINA RESULT:      -9.9      8.339     10.003
REMARK  3 active torsions:
REMARK  status: ('A' for Active; 'I' for Inactive)
REMARK    1  A    between atoms: C_3  and  C_4 
REMARK    2  A    between atoms: C_8  and  C_9 
REMARK       I    between atoms: C_9  and  N_10 
REMARK    3  A    between atoms: N_10  and  N_11 
ROOT
HETATM    1  C   UNL     1       8.953  29.328  57.574  1.00  0.00     0.291 C 
HETATM    2  N   UNL     1       7.783  28.603  57.522  1.00  0.00    -0.251 N 
HETATM    3  O   UNL     1       9.928  29.124  56.855  1.00  0.00    -0.264 OA
HETATM    4  H   UNL     1       7.025  28.821  58.160  1.00  0.00     0.191 HD
ENDROOT
BRANCH   1   5
HETATM    5  C   UNL     1       8.913  30.388  58.589  1.00  0.00     0.148 A 
HETATM    6  N   UNL     1       9.887  31.314  58.694  1.00  0.00    -0.169 NA
HETATM    7  N   UNL     1       9.481  32.096  59.712  1.00  0.00    -0.277 N 
HETATM    8  C   UNL     1       8.312  31.691  60.306  1.00  0.00     0.064 A 
HETATM    9  H   UNL     1      10.051  32.896  59.965  1.00  0.00     0.189 HD
HETATM   10  C   UNL     1       7.918  30.586  59.578  1.00  0.00     0.071 A 
BRANCH   8  11
HETATM   11  C   UNL     1       7.726  32.333  61.485  1.00  0.00     0.014 A 
HETATM   12  C   UNL     1       8.438  32.264  62.696  1.00  0.00     0.015 A 
HETATM   13  C   UNL     1       7.951  32.867  63.859  1.00  0.00     0.001 A 
HETATM   14  C   UNL     1       6.736  33.544  63.834  1.00  0.00     0.002 A 
HETATM   15  C   UNL     1       6.009  33.620  62.648  1.00  0.00     0.025 A 
HETATM   16  C   UNL     1       6.498  33.021  61.478  1.00  0.00     0.046 A 
HETATM   17 CL   UNL     1       5.511  33.155  60.062  1.00  0.00    -0.083 Cl
ENDBRANCH   8  11
ENDBRANCH   1   5
BRANCH   2  18
HETATM   18  N   UNL     1       7.632  27.611  56.581  1.00  0.00    -0.167 N 
HETATM   19  C   UNL     1       7.900  26.288  56.820  1.00  0.00     0.345 A 
HETATM   20  O   UNL     1       8.406  25.777  57.805  1.00  0.00    -0.245 OA
HETATM   21  N   UNL     1       7.506  25.577  55.700  1.00  0.00    -0.323 N 
HETATM   22  C   UNL     1       6.933  26.431  54.674  1.00  0.00     0.117 A 
HETATM   23  H   UNL     1       7.588  24.569  55.671  1.00  0.00     0.165 HD
HETATM   24  C   UNL     1       5.460  26.098  54.415  1.00  0.00     0.041 C 
HETATM   25  C   UNL     1       7.773  26.396  53.393  1.00  0.00     0.041 C 
HETATM   26  C   UNL     1       7.050  27.810  55.357  1.00  0.00     0.275 A 
HETATM   27  C   UNL     1       5.292  24.797  53.631  1.00  0.00     0.003 C 
HETATM   28  C   UNL     1       6.118  24.797  52.348  1.00  0.00     0.000 C 
HETATM   29  C   UNL     1       7.590  25.087  52.624  1.00  0.00     0.003 C 
HETATM   30  O   UNL     1       6.693  28.876  54.870  1.00  0.00    -0.268 OA
ENDBRANCH   2  18
TORSDOF 3
ENDMDL
MODEL 3
REMARK VINA RESULT:      -9.5      2.000      2.830
REMARK  3 active torsions:
REMARK  status: ('A' for Active; 'I' for Inactive)
REMARK    1  A    between atoms: C_3  and  C_4 
REMARK    2  A    between atoms: C_8  and  C_9 
REMARK       I    between atoms: C_9  and  N_10 
REMARK    3  A    between atoms: N_10  and  N_11 
ROOT
HETATM    1  C   UNL     1       5.200  26.978  50.914  1.00  0.00     0.291 C 
HETATM    2  N   UNL     1       4.247  26.505  50.040  1.00  0.00    -0.251 N 
HETATM    3  O   UNL     1       5.707  28.096  50.851  1.00  0.00    -0.264 OA
HETATM    4  H   UNL     1       3.886  25.563  50.148  1.00  0.00     0.191 HD
ENDROOT
BRANCH   1   5
HETATM    5  C   UNL     1       5.550  25.997  51.950  1.00  0.00     0.148 A 
HETATM    6  N   UNL     1       4.761  25.776  53.021  1.00  0.00    -0.169 NA
HETATM    7  N   UNL     1       5.411  24.818  53.707  1.00  0.00    -0.277 N 
HETATM    8  C   UNL     1       6.609  24.440  53.157  1.00  0.00     0.064 A 
HETATM    9  H   UNL     1       4.987  24.460  54.557  1.00  0.00     0.189 HD
HETATM   10  C   UNL     1       6.711  25.188  52.002  1.00  0.00     0.071 A 
BRANCH   8  11
HETATM   11  C   UNL     1       7.530  23.481  53.773  1.00  0.00     0.014 A 
HETATM   12  C   UNL     1       7.825  22.302  53.066  1.00  0.00     0.015 A 
HETATM   13  C   UNL     1       8.708  21.349  53.582  1.00  0.00     0.001 A 
HETATM   14  C   UNL     1       9.306  21.554  54.821  1.00  0.00     0.002 A 
HETATM   15  C   UNL     1       9.023  22.712  55.543  1.00  0.00     0.025 A 
HETATM   16  C   UNL     1       8.143  23.672  55.026  1.00  0.00     0.046 A 
HETATM   17 CL   UNL     1       7.843  25.066  56.009  1.00  0.00    -0.083 Cl
ENDBRANCH   8  11
ENDBRANCH   1   5
BRANCH   2  18
HETATM   18  N   UNL     1       3.762  27.323  49.045  1.00  0.00    -0.167 N 
HETATM   19  C   UNL     1       4.107  27.202  47.724  1.00  0.00     0.345 A 
HETATM   20  O   UNL     1       4.947  26.477  47.217  1.00  0.00    -0.245 OA
HETATM   21  N   UNL     1       3.328  28.096  47.010  1.00  0.00    -0.323 N 
HETATM   22  C   UNL     1       2.410  28.834  47.859  1.00  0.00     0.117 A 
HETATM   23  H   UNL     1       3.400  28.154  46.002  1.00  0.00     0.165 HD
HETATM   24  C   UNL     1       0.949  28.526  47.517  1.00  0.00     0.041 C 
HETATM   25  C   UNL     1       2.713  30.335  47.828  1.00  0.00     0.041 C 
HETATM   26  C   UNL     1       2.765  28.242  49.240  1.00  0.00     0.275 A 
HETATM   27  C   UNL     1       0.507  29.192  46.215  1.00  0.00     0.003 C 
HETATM   28  C   UNL     1       0.797  30.690  46.219  1.00  0.00     0.000 C 
HETATM   29  C   UNL     1       2.264  30.982  46.517  1.00  0.00     0.003 C 
HETATM   30  O   UNL     1       2.246  28.559  50.303  1.00  0.00    -0.268 OA
ENDBRANCH   2  18
TORSDOF 3
ENDMDL
MODEL 4
REMARK VINA RESULT:      -9.3      9.934     11.256
REMARK  3 active torsions:
REMARK  status: ('A' for Active; 'I' for Inactive)
REMARK    1  A    between atoms: C_3  and  C_4 
REMARK    2  A    between atoms: C_8  and  C_9 
REMARK       I    between atoms: C_9  and  N_10 
REMARK    3  A    between atoms: N_10  and  N_11 
ROOT
HETATM    1  C   UNL     1       8.136  31.282  59.379  1.00  0.00     0.291 C 
HETATM    2  N   UNL     1       7.336  30.910  60.436  1.00  0.00    -0.251 N 
HETATM    3  O   UNL     1       8.555  32.422  59.193  1.00  0.00    -0.264 OA
HETATM    4  H   UNL     1       7.017  29.950  60.514  1.00  0.00     0.191 HD
ENDROOT
BRANCH   1   5
HETATM    5  C   UNL     1       8.448  30.159  58.486  1.00  0.00     0.148 A 
HETATM    6  N   UNL     1       9.570  30.129  57.739  1.00  0.00    -0.169 NA
HETATM    7  N   UNL     1       9.492  28.955  57.086  1.00  0.00    -0.277 N 
HETATM    8  C   UNL     1       8.348  28.241  57.338  1.00  0.00     0.064 A 
HETATM    9  H   UNL     1      10.255  28.691  56.471  1.00  0.00     0.189 HD
HETATM   10  C   UNL     1       7.660  29.004  58.260  1.00  0.00     0.071 A 
BRANCH   8  11
HETATM   11  C   UNL     1       8.004  26.980  56.676  1.00  0.00     0.014 A 
HETATM   12  C   UNL     1       8.144  25.789  57.410  1.00  0.00     0.015 A 
HETATM   13  C   UNL     1       7.819  24.550  56.852  1.00  0.00     0.001 A 
HETATM   14  C   UNL     1       7.355  24.478  55.543  1.00  0.00     0.002 A 
HETATM   15  C   UNL     1       7.215  25.644  54.792  1.00  0.00     0.025 A 
HETATM   16  C   UNL     1       7.535  26.889  55.351  1.00  0.00     0.046 A 
HETATM   17 CL   UNL     1       7.345  28.275  54.331  1.00  0.00    -0.083 Cl
ENDBRANCH   8  11
ENDBRANCH   1   5
BRANCH   2  18
HETATM   18  N   UNL     1       7.000  31.832  61.400  1.00  0.00    -0.167 N 
HETATM   19  C   UNL     1       7.876  32.297  62.347  1.00  0.00     0.345 A 
HETATM   20  O   UNL     1       9.012  31.923  62.586  1.00  0.00    -0.245 OA
HETATM   21  N   UNL     1       7.231  33.300  63.049  1.00  0.00    -0.323 N 
HETATM   22  C   UNL     1       5.887  33.546  62.558  1.00  0.00     0.117 A 
HETATM   23  H   UNL     1       7.708  33.806  63.784  1.00  0.00     0.165 HD
HETATM   24  C   UNL     1       5.742  34.958  61.982  1.00  0.00     0.041 C 
HETATM   25  C   UNL     1       4.841  33.244  63.636  1.00  0.00     0.041 C 
HETATM   26  C   UNL     1       5.806  32.503  61.423  1.00  0.00     0.275 A 
HETATM   27  C   UNL     1       5.693  36.025  63.076  1.00  0.00     0.003 C 
HETATM   28  C   UNL     1       4.627  35.715  64.122  1.00  0.00     0.000 C 
HETATM   29  C   UNL     1       4.808  34.323  64.719  1.00  0.00     0.003 C 
HETATM   30  O   UNL     1       4.837  32.318  60.696  1.00  0.00    -0.268 OA
ENDBRANCH   2  18
TORSDOF 3
ENDMDL
MODEL 5
REMARK VINA RESULT:      -9.2      9.079     10.523
REMARK  3 active torsions:
REMARK  status: ('A' for Active; 'I' for Inactive)
REMARK    1  A    between atoms: C_3  and  C_4 
REMARK    2  A    between atoms: C_8  and  C_9 
REMARK       I    between atoms: C_9  and  N_10 
REMARK    3  A    between atoms: N_10  and  N_11 
ROOT
HETATM    1  C   UNL     1       6.834  30.842  57.709  1.00  0.00     0.291 C 
HETATM    2  N   UNL     1       7.510  29.652  57.555  1.00  0.00    -0.251 N 
HETATM    3  O   UNL     1       5.973  31.256  56.937  1.00  0.00    -0.264 OA
HETATM    4  H   UNL     1       8.220  29.384  58.228  1.00  0.00     0.191 HD
ENDROOT
BRANCH   1   5
HETATM    5  C   UNL     1       7.250  31.573  58.912  1.00  0.00     0.148 A 
HETATM    6  N   UNL     1       8.526  31.964  59.107  1.00  0.00    -0.169 NA
HETATM    7  N   UNL     1       8.492  32.601  60.292  1.00  0.00    -0.277 N 
HETATM    8  C   UNL     1       7.262  32.601  60.900  1.00  0.00     0.064 A 
HETATM    9  H   UNL     1       9.349  33.015  60.643  1.00  0.00     0.189 HD
HETATM   10  C   UNL     1       6.435  31.947  60.009  1.00  0.00     0.071 A 
BRANCH   8  11
HETATM   11  C   UNL     1       7.005  33.154  62.232  1.00  0.00     0.014 A 
HETATM   12  C   UNL     1       7.783  32.682  63.304  1.00  0.00     0.015 A 
HETATM   13  C   UNL     1       7.608  33.175  64.600  1.00  0.00     0.001 A 
HETATM   14  C   UNL     1       6.644  34.147  64.849  1.00  0.00     0.002 A 
HETATM   15  C   UNL     1       5.856  34.625  63.804  1.00  0.00     0.025 A 
HETATM   16  C   UNL     1       6.033  34.136  62.502  1.00  0.00     0.046 A 
HETATM   17 CL   UNL     1       4.992  34.781  61.278  1.00  0.00    -0.083 Cl
ENDBRANCH   8  11
ENDBRANCH   1   5
BRANCH   2  18
HETATM   18  N   UNL     1       7.195  28.815  56.510  1.00  0.00    -0.167 N 
HETATM   19  C   UNL     1       8.005  28.615  55.423  1.00  0.00     0.345 A 
HETATM   20  O   UNL     1       9.038  29.192  55.124  1.00  0.00    -0.245 OA
HETATM   21  N   UNL     1       7.431  27.617  54.656  1.00  0.00    -0.323 N 
HETATM   22  C   UNL     1       6.206  27.101  55.242  1.00  0.00     0.117 A 
HETATM   23  H   UNL     1       7.882  27.288  53.812  1.00  0.00     0.165 HD
HETATM   24  C   UNL     1       6.338  25.624  55.625  1.00  0.00     0.041 C 
HETATM   25  C   UNL     1       5.004  27.364  54.330  1.00  0.00     0.041 C 
HETATM   26  C   UNL     1       6.116  27.970  56.515  1.00  0.00     0.275 A 
HETATM   27  C   UNL     1       6.310  24.706  54.403  1.00  0.00     0.003 C 
HETATM   28  C   UNL     1       5.090  24.970  53.525  1.00  0.00     0.000 C 
HETATM   29  C   UNL     1       4.995  26.436  53.115  1.00  0.00     0.003 C 
HETATM   30  O   UNL     1       5.227  27.907  57.356  1.00  0.00    -0.268 OA
ENDBRANCH   2  18
TORSDOF 3
ENDMDL
MODEL 6
REMARK VINA RESULT:      -9.2      5.365      6.614
REMARK  3 active torsions:
REMARK  status: ('A' for Active; 'I' for Inactive)
REMARK    1  A    between atoms: C_3  and  C_4 
REMARK    2  A    between atoms: C_8  and  C_9 
REMARK       I    between atoms: C_9  and  N_10 
REMARK    3  A    between atoms: N_10  and  N_11 
ROOT
HETATM    1  C   UNL     1       6.297  27.456  55.116  1.00  0.00     0.291 C 
HETATM    2  N   UNL     1       5.711  27.513  56.361  1.00  0.00    -0.251 N 
HETATM    3  O   UNL     1       6.680  28.437  54.483  1.00  0.00    -0.264 OA
HETATM    4  H   UNL     1       5.406  26.658  56.815  1.00  0.00     0.191 HD
ENDROOT
BRANCH   1   5
HETATM    5  C   UNL     1       6.425  26.081  54.617  1.00  0.00     0.148 A 
HETATM    6  N   UNL     1       5.554  25.558  53.731  1.00  0.00    -0.169 NA
HETATM    7  N   UNL     1       6.016  24.311  53.522  1.00  0.00    -0.277 N 
HETATM    8  C   UNL     1       7.120  23.983  54.267  1.00  0.00     0.064 A 
HETATM    9  H   UNL     1       5.529  23.720  52.856  1.00  0.00     0.189 HD
HETATM   10  C   UNL     1       7.411  25.130  54.978  1.00  0.00     0.071 A 
BRANCH   8  11
HETATM   11  C   UNL     1       7.743  22.657  54.272  1.00  0.00     0.014 A 
HETATM   12  C   UNL     1       7.775  21.938  53.064  1.00  0.00     0.015 A 
HETATM   13  C   UNL     1       8.368  20.675  52.987  1.00  0.00     0.001 A 
HETATM   14  C   UNL     1       8.933  20.102  54.122  1.00  0.00     0.002 A 
HETATM   15  C   UNL     1       8.907  20.792  55.332  1.00  0.00     0.025 A 
HETATM   16  C   UNL     1       8.318  22.062  55.411  1.00  0.00     0.046 A 
HETATM   17 CL   UNL     1       8.320  22.828  56.964  1.00  0.00    -0.083 Cl
ENDBRANCH   8  11
ENDBRANCH   1   5
BRANCH   2  18
HETATM   18  N   UNL     1       5.572  28.724  56.999  1.00  0.00    -0.167 N 
HETATM   19  C   UNL     1       6.541  29.284  57.789  1.00  0.00     0.345 A 
HETATM   20  O   UNL     1       7.598  28.801  58.160  1.00  0.00    -0.245 OA
HETATM   21  N   UNL     1       6.106  30.549  58.144  1.00  0.00    -0.323 N 
HETATM   22  C   UNL     1       4.814  30.874  57.564  1.00  0.00     0.117 A 
HETATM   23  H   UNL     1       6.685  31.156  58.709  1.00  0.00     0.165 HD
HETATM   24  C   UNL     1       4.909  32.054  56.593  1.00  0.00     0.041 C 
HETATM   25  C   UNL     1       3.760  31.098  58.654  1.00  0.00     0.041 C 
HETATM   26  C   UNL     1       4.518  29.574  56.788  1.00  0.00     0.275 A 
HETATM   27  C   UNL     1       5.081  33.388  57.318  1.00  0.00     0.003 C 
HETATM   28  C   UNL     1       4.006  33.598  58.380  1.00  0.00     0.000 C 
HETATM   29  C   UNL     1       3.951  32.437  59.367  1.00  0.00     0.003 C 
HETATM   30  O   UNL     1       3.512  29.357  56.122  1.00  0.00    -0.268 OA
ENDBRANCH   2  18
TORSDOF 3
ENDMDL
MODEL 7
REMARK VINA RESULT:      -8.8     15.345     16.475
REMARK  3 active torsions:
REMARK  status: ('A' for Active; 'I' for Inactive)
REMARK    1  A    between atoms: C_3  and  C_4 
REMARK    2  A    between atoms: C_8  and  C_9 
REMARK       I    between atoms: C_9  and  N_10 
REMARK    3  A    between atoms: N_10  and  N_11 
ROOT
HETATM    1  C   UNL     1       4.752  33.852  65.180  1.00  0.00     0.291 C 
HETATM    2  N   UNL     1       5.724  33.104  64.555  1.00  0.00    -0.251 N 
HETATM    3  O   UNL     1       3.755  34.303  64.620  1.00  0.00    -0.264 OA
HETATM    4  H   UNL     1       6.528  32.779  65.082  1.00  0.00     0.191 HD
ENDROOT
BRANCH   1   5
HETATM    5  C   UNL     1       5.028  34.054  66.608  1.00  0.00     0.148 A 
HETATM    6  N   UNL     1       4.040  34.157  67.520  1.00  0.00    -0.169 NA
HETATM    7  N   UNL     1       4.693  34.318  68.686  1.00  0.00    -0.277 N 
HETATM    8  C   UNL     1       6.059  34.372  68.568  1.00  0.00     0.064 A 
HETATM    9  H   UNL     1       4.148  34.391  69.539  1.00  0.00     0.189 HD
HETATM   10  C   UNL     1       6.298  34.188  67.221  1.00  0.00     0.071 A 
BRANCH   8  11
HETATM   11  C   UNL     1       6.969  34.629  69.686  1.00  0.00     0.014 A 
HETATM   12  C   UNL     1       7.533  35.913  69.797  1.00  0.00     0.015 A 
HETATM   13  C   UNL     1       8.396  36.238  70.847  1.00  0.00     0.001 A 
HETATM   14  C   UNL     1       8.719  35.280  71.803  1.00  0.00     0.002 A 
HETATM   15  C   UNL     1       8.178  33.999  71.711  1.00  0.00     0.025 A 
HETATM   16  C   UNL     1       7.307  33.672  70.662  1.00  0.00     0.046 A 
HETATM   17 CL   UNL     1       6.704  32.049  70.626  1.00  0.00    -0.083 Cl
ENDBRANCH   8  11
ENDBRANCH   1   5
BRANCH   2  18
HETATM   18  N   UNL     1       5.586  32.771  63.227  1.00  0.00    -0.167 N 
HETATM   19  C   UNL     1       4.998  31.614  62.789  1.00  0.00     0.345 A 
HETATM   20  O   UNL     1       4.616  30.656  63.442  1.00  0.00    -0.245 OA
HETATM   21  N   UNL     1       4.916  31.687  61.410  1.00  0.00    -0.323 N 
HETATM   22  C   UNL     1       5.442  32.936  60.888  1.00  0.00     0.117 A 
HETATM   23  H   UNL     1       4.485  30.943  60.876  1.00  0.00     0.165 HD
HETATM   24  C   UNL     1       4.356  33.764  60.194  1.00  0.00     0.041 C 
HETATM   25  C   UNL     1       6.656  32.692  59.985  1.00  0.00     0.041 C 
HETATM   26  C   UNL     1       5.877  33.628  62.198  1.00  0.00     0.275 A 
HETATM   27  C   UNL     1       3.974  33.189  58.831  1.00  0.00     0.003 C 
HETATM   28  C   UNL     1       5.196  32.978  57.942  1.00  0.00     0.000 C 
HETATM   29  C   UNL     1       6.252  32.116  58.628  1.00  0.00     0.003 C 
HETATM   30  O   UNL     1       6.396  34.735  62.278  1.00  0.00    -0.268 OA
ENDBRANCH   2  18
TORSDOF 3
ENDMDL
MODEL 8
REMARK VINA RESULT:      -8.7      6.731      7.771
REMARK  3 active torsions:
REMARK  status: ('A' for Active; 'I' for Inactive)
REMARK    1  A    between atoms: C_3  and  C_4 
REMARK    2  A    between atoms: C_8  and  C_9 
REMARK       I    between atoms: C_9  and  N_10 
REMARK    3  A    between atoms: N_10  and  N_11 
ROOT
HETATM    1  C   UNL     1       5.659  29.037  56.362  1.00  0.00     0.291 C 
HETATM    2  N   UNL     1       5.317  29.302  57.669  1.00  0.00    -0.251 N 
HETATM    3  O   UNL     1       5.854  29.898  55.507  1.00  0.00    -0.264 OA
HETATM    4  H   UNL     1       5.158  28.535  58.314  1.00  0.00     0.191 HD
ENDROOT
BRANCH   1   5
HETATM    5  C   UNL     1       5.775  27.599  56.091  1.00  0.00     0.148 A 
HETATM    6  N   UNL     1       4.917  26.701  56.616  1.00  0.00    -0.169 NA
HETATM    7  N   UNL     1       5.344  25.522  56.127  1.00  0.00    -0.277 N 
HETATM    8  C   UNL     1       6.470  25.606  55.348  1.00  0.00     0.064 A 
HETATM    9  H   UNL     1       4.827  24.682  56.367  1.00  0.00     0.189 HD
HETATM   10  C   UNL     1       6.759  26.955  55.300  1.00  0.00     0.071 A 
BRANCH   8  11
HETATM   11  C   UNL     1       7.166  24.447  54.783  1.00  0.00     0.014 A 
HETATM   12  C   UNL     1       8.173  23.841  55.555  1.00  0.00     0.015 A 
HETATM   13  C   UNL     1       8.868  22.721  55.090  1.00  0.00     0.001 A 
HETATM   14  C   UNL     1       8.574  22.191  53.839  1.00  0.00     0.002 A 
HETATM   15  C   UNL     1       7.585  22.778  53.052  1.00  0.00     0.025 A 
HETATM   16  C   UNL     1       6.882  23.898  53.518  1.00  0.00     0.046 A 
HETATM   17 CL   UNL     1       5.686  24.565  52.458  1.00  0.00    -0.083 Cl
ENDBRANCH   8  11
ENDBRANCH   1   5
BRANCH   2  18
HETATM   18  N   UNL     1       5.228  30.604  58.105  1.00  0.00    -0.167 N 
HETATM   19  C   UNL     1       6.308  31.355  58.488  1.00  0.00     0.345 A 
HETATM   20  O   UNL     1       7.469  31.008  58.628  1.00  0.00    -0.245 OA
HETATM   21  N   UNL     1       5.854  32.640  58.728  1.00  0.00    -0.323 N 
HETATM   22  C   UNL     1       4.429  32.781  58.483  1.00  0.00     0.117 A 
HETATM   23  H   UNL     1       6.496  33.374  58.998  1.00  0.00     0.165 HD
HETATM   24  C   UNL     1       4.144  33.755  57.336  1.00  0.00     0.041 C 
HETATM   25  C   UNL     1       3.681  33.154  59.767  1.00  0.00     0.041 C 
HETATM   26  C   UNL     1       4.074  31.341  58.052  1.00  0.00     0.275 A 
HETATM   27  C   UNL     1       4.363  35.211  57.748  1.00  0.00     0.003 C 
HETATM   28  C   UNL     1       3.589  35.565  59.014  1.00  0.00     0.000 C 
HETATM   29  C   UNL     1       3.914  34.613  60.161  1.00  0.00     0.003 C 
HETATM   30  O   UNL     1       2.957  30.949  57.739  1.00  0.00    -0.268 OA
ENDBRANCH   2  18
TORSDOF 3
ENDMDL
MODEL 9
REMARK VINA RESULT:      -8.6      9.795     11.021
REMARK  3 active torsions:
REMARK  status: ('A' for Active; 'I' for Inactive)
REMARK    1  A    between atoms: C_3  and  C_4 
REMARK    2  A    between atoms: C_8  and  C_9 
REMARK       I    between atoms: C_9  and  N_10 
REMARK    3  A    between atoms: N_10  and  N_11 
ROOT
HETATM    1  C   UNL     1       6.289  31.707  58.674  1.00  0.00     0.291 C 
HETATM    2  N   UNL     1       5.830  31.548  59.962  1.00  0.00    -0.251 N 
HETATM    3  O   UNL     1       6.108  32.712  57.990  1.00  0.00    -0.264 OA
HETATM    4  H   UNL     1       6.007  30.681  60.458  1.00  0.00     0.191 HD
ENDROOT
BRANCH   1   5
HETATM    5  C   UNL     1       7.035  30.536  58.194  1.00  0.00     0.148 A 
HETATM    6  N   UNL     1       8.382  30.499  58.190  1.00  0.00    -0.169 NA
HETATM    7  N   UNL     1       8.671  29.279  57.701  1.00  0.00    -0.277 N 
HETATM    8  C   UNL     1       7.573  28.538  57.342  1.00  0.00     0.064 A 
HETATM    9  H   UNL     1       9.645  29.004  57.628  1.00  0.00     0.189 HD
HETATM   10  C   UNL     1       6.495  29.336  57.669  1.00  0.00     0.071 A 
BRANCH   8  11
HETATM   11  C   UNL     1       7.643  27.220  56.707  1.00  0.00     0.014 A 
HETATM   12  C   UNL     1       7.998  26.120  57.507  1.00  0.00     0.015 A 
HETATM   13  C   UNL     1       8.068  24.829  56.976  1.00  0.00     0.001 A 
HETATM   14  C   UNL     1       7.793  24.616  55.629  1.00  0.00     0.002 A 
HETATM   15  C   UNL     1       7.447  25.692  54.814  1.00  0.00     0.025 A 
HETATM   16  C   UNL     1       7.369  26.987  55.346  1.00  0.00     0.046 A 
HETATM   17 CL   UNL     1       6.949  28.257  54.247  1.00  0.00    -0.083 Cl
ENDBRANCH   8  11
ENDBRANCH   1   5
BRANCH   2  18
HETATM   18  N   UNL     1       5.163  32.579  60.584  1.00  0.00    -0.167 N 
HETATM   19  C   UNL     1       3.807  32.763  60.511  1.00  0.00     0.345 A 
HETATM   20  O   UNL     1       2.991  32.167  59.828  1.00  0.00    -0.245 OA
HETATM   21  N   UNL     1       3.485  33.805  61.362  1.00  0.00    -0.323 N 
HETATM   22  C   UNL     1       4.646  34.336  62.055  1.00  0.00     0.117 A 
HETATM   23  H   UNL     1       2.523  34.094  61.486  1.00  0.00     0.165 HD
HETATM   24  C   UNL     1       4.547  34.130  63.569  1.00  0.00     0.041 C 
HETATM   25  C   UNL     1       4.891  35.801  61.680  1.00  0.00     0.041 C 
HETATM   26  C   UNL     1       5.757  33.437  61.472  1.00  0.00     0.275 A 
HETATM   27  C   UNL     1       3.544  35.083  64.218  1.00  0.00     0.003 C 
HETATM   28  C   UNL     1       3.825  36.537  63.850  1.00  0.00     0.000 C 
HETATM   29  C   UNL     1       3.878  36.738  62.338  1.00  0.00     0.003 C 
HETATM   30  O   UNL     1       6.947  33.506  61.754  1.00  0.00    -0.268 OA
ENDBRANCH   2  18
TORSDOF 3
ENDMDL
MODEL 10
REMARK VINA RESULT:      -8.5      1.996      2.315
REMARK  3 active torsions:
REMARK  status: ('A' for Active; 'I' for Inactive)
REMARK    1  A    between atoms: C_3  and  C_4 
REMARK    2  A    between atoms: C_8  and  C_9 
REMARK       I    between atoms: C_9  and  N_10 
REMARK    3  A    between atoms: N_10  and  N_11 
ROOT
HETATM    1  C   UNL     1       5.961  27.177  52.875  1.00  0.00     0.291 C 
HETATM    2  N   UNL     1       4.697  26.902  52.403  1.00  0.00    -0.251 N 
HETATM    3  O   UNL     1       6.544  28.247  52.718  1.00  0.00    -0.264 OA
HETATM    4  H   UNL     1       4.287  25.987  52.560  1.00  0.00     0.191 HD
ENDROOT
BRANCH   1   5
HETATM    5  C   UNL     1       6.549  26.044  53.602  1.00  0.00     0.148 A 
HETATM    6  N   UNL     1       7.017  26.168  54.860  1.00  0.00    -0.169 NA
HETATM    7  N   UNL     1       7.449  24.931  55.167  1.00  0.00    -0.277 N 
HETATM    8  C   UNL     1       7.328  24.019  54.148  1.00  0.00     0.064 A 
HETATM    9  H   UNL     1       7.827  24.766  56.094  1.00  0.00     0.189 HD
HETATM   10  C   UNL     1       6.729  24.723  53.123  1.00  0.00     0.071 A 
BRANCH   8  11
HETATM   11  C   UNL     1       7.812  22.638  54.221  1.00  0.00     0.014 A 
HETATM   12  C   UNL     1       7.836  21.884  53.034  1.00  0.00     0.015 A 
HETATM   13  C   UNL     1       8.301  20.567  53.021  1.00  0.00     0.001 A 
HETATM   14  C   UNL     1       8.743  19.974  54.199  1.00  0.00     0.002 A 
HETATM   15  C   UNL     1       8.722  20.699  55.389  1.00  0.00     0.025 A 
HETATM   16  C   UNL     1       8.261  22.023  55.404  1.00  0.00     0.046 A 
HETATM   17 CL   UNL     1       8.257  22.831  56.936  1.00  0.00    -0.083 Cl
ENDBRANCH   8  11
ENDBRANCH   1   5
BRANCH   2  18
HETATM   18  N   UNL     1       3.981  27.879  51.751  1.00  0.00    -0.167 N 
HETATM   19  C   UNL     1       3.407  28.952  52.382  1.00  0.00     0.345 A 
HETATM   20  O   UNL     1       3.317  29.177  53.578  1.00  0.00    -0.245 OA
HETATM   21  N   UNL     1       2.895  29.783  51.401  1.00  0.00    -0.323 N 
HETATM   22  C   UNL     1       3.142  29.280  50.062  1.00  0.00     0.117 A 
HETATM   23  H   UNL     1       2.448  30.658  51.645  1.00  0.00     0.165 HD
HETATM   24  C   UNL     1       4.046  30.221  49.259  1.00  0.00     0.041 C 
HETATM   25  C   UNL     1       1.829  28.971  49.336  1.00  0.00     0.041 C 
HETATM   26  C   UNL     1       3.897  27.973  50.386  1.00  0.00     0.275 A 
HETATM   27  C   UNL     1       3.310  31.481  48.805  1.00  0.00     0.003 C 
HETATM   28  C   UNL     1       2.019  31.147  48.064  1.00  0.00     0.000 C 
HETATM   29  C   UNL     1       1.109  30.245  48.891  1.00  0.00     0.003 C 
HETATM   30  O   UNL     1       4.323  27.175  49.561  1.00  0.00    -0.268 OA
ENDBRANCH   2  18
TORSDOF 3
ENDMDL
