MODEL 1
REMARK VINA RESULT:     -10.5      0.000      0.000
REMARK  8 active torsions:
REMARK  status: ('A' for Active; 'I' for Inactive)
REMARK    1  A    between atoms: C_5  and  C_6 
REMARK    2  A    between atoms: C_6  and  N_7 
REMARK       I    between atoms: N_7  and  C_8 
REMARK    3  A    between atoms: C_8  and  C_9 
REMARK    4  A    between atoms: C_9  and  S_10 
REMARK    5  A    between atoms: S_10  and  C_11 
REMARK    6  A    between atoms: C_13  and  N_14 
REMARK    7  A    between atoms: C_15  and  N_16 
REMARK       I    between atoms: N_16  and  C_17 
REMARK    8  A    between atoms: C_17  and  C_18 
ROOT
HETATM    1  C   UNL     1       7.424  30.055  58.092  1.00  0.00     0.171 C 
HETATM    2  N   UNL     1       8.313  29.826  58.993  1.00  0.00    -0.210 NA
HETATM    3  C   UNL     1       8.245  30.556  60.151  1.00  0.00     0.136 C 
HETATM    4  C   UNL     1       7.353  31.560  60.336  1.00  0.00     0.144 C 
HETATM    5  C   UNL     1       6.568  31.968  59.132  1.00  0.00     0.277 C 
HETATM    6  O   UNL     1       6.167  33.107  58.926  1.00  0.00    -0.266 OA
HETATM    7  N   UNL     1       6.467  31.008  58.172  1.00  0.00    -0.300 N 
HETATM    8  H   UNL     1       5.947  31.245  57.341  1.00  0.00     0.171 HD
ENDROOT
BRANCH   1   9
HETATM    9  S   UNL     1       7.337  29.123  56.631  1.00  0.00    -0.083 SA
BRANCH   9  10
HETATM   10  C   UNL     1       8.557  27.836  57.005  1.00  0.00     0.185 C 
BRANCH  10  11
HETATM   11  C   UNL     1       7.971  26.464  57.299  1.00  0.00     0.227 C 
HETATM   12  N   UNL     1       7.585  25.716  56.210  1.00  0.00    -0.356 N 
HETATM   13  H   UNL     1       7.357  26.231  55.367  1.00  0.00     0.162 HD
HETATM   14  O   UNL     1       7.937  26.024  58.448  1.00  0.00    -0.273 OA
BRANCH  12  15
HETATM   15  C   UNL     1       6.904  24.459  56.415  1.00  0.00     0.161 C 
BRANCH  15  16
HETATM   16  C   UNL     1       7.362  23.399  55.449  1.00  0.00    -0.041 A 
HETATM   17  C   UNL     1       7.601  22.090  55.886  1.00  0.00     0.009 A 
HETATM   18  C   UNL     1       7.971  21.093  54.980  1.00  0.00     0.007 A 
HETATM   19  C   UNL     1       8.110  21.387  53.620  1.00  0.00    -0.062 A 
HETATM   20  C   UNL     1       8.458  20.313  52.632  1.00  0.00     0.048 C 
HETATM   21  C   UNL     1       7.866  22.692  53.179  1.00  0.00     0.007 A 
HETATM   22  C   UNL     1       7.499  23.690  54.086  1.00  0.00     0.009 A 
ENDBRANCH  15  16
ENDBRANCH  12  15
ENDBRANCH  10  11
ENDBRANCH   9  10
ENDBRANCH   1   9
BRANCH   3  23
HETATM   23  N   UNL     1       9.112  30.188  61.173  1.00  0.00    -0.285 NA
HETATM   24  H   UNL     1       9.086  29.170  61.228  1.00  0.00     0.125 HD
HETATM   25  H   UNL     1      10.065  30.464  60.940  1.00  0.00     0.125 HD
ENDBRANCH   3  23
BRANCH   4  26
HETATM   26  N   UNL     1       7.212  32.149  61.576  1.00  0.00    -0.314 N 
HETATM   27  C   UNL     1       6.053  32.277  62.315  1.00  0.00     0.280 C 
HETATM   28  O   UNL     1       4.945  31.893  61.962  1.00  0.00    -0.265 OA
HETATM   29  H   UNL     1       8.072  32.270  62.102  1.00  0.00     0.169 HD
BRANCH  27  30
HETATM   30  C   UNL     1       6.285  32.844  63.631  1.00  0.00     0.144 A 
HETATM   31  O   UNL     1       5.217  33.117  64.446  1.00  0.00    -0.298 OA
HETATM   32  C   UNL     1       5.713  33.680  65.581  1.00  0.00     0.122 A 
HETATM   33 BR   UNL     1       4.658  34.261  67.006  1.00  0.00    -0.023 Br
HETATM   34  C   UNL     1       7.084  33.764  65.518  1.00  0.00     0.048 A 
HETATM   35  C   UNL     1       7.455  33.225  64.262  1.00  0.00     0.046 A 
ENDBRANCH  27  30
ENDBRANCH   4  26
TORSDOF 8
ENDMDL
MODEL 2
REMARK VINA RESULT:     -10.1      6.813     10.170
REMARK  8 active torsions:
REMARK  status: ('A' for Active; 'I' for Inactive)
REMARK    1  A    between atoms: C_5  and  C_6 
REMARK    2  A    between atoms: C_6  and  N_7 
REMARK       I    between atoms: N_7  and  C_8 
REMARK    3  A    between atoms: C_8  and  C_9 
REMARK    4  A    between atoms: C_9  and  S_10 
REMARK    5  A    between atoms: S_10  and  C_11 
REMARK    6  A    between atoms: C_13  and  N_14 
REMARK    7  A    between atoms: C_15  and  N_16 
REMARK       I    between atoms: N_16  and  C_17 
REMARK    8  A    between atoms: C_17  and  C_18 
ROOT
HETATM    1  C   UNL     1       5.311  28.864  54.734  1.00  0.00     0.171 C 
HETATM    2  N   UNL     1       4.988  27.633  54.547  1.00  0.00    -0.210 NA
HETATM    3  C   UNL     1       4.399  27.306  53.353  1.00  0.00     0.136 C 
HETATM    4  C   UNL     1       4.061  28.232  52.422  1.00  0.00     0.144 C 
HETATM    5  C   UNL     1       4.184  29.660  52.844  1.00  0.00     0.277 C 
HETATM    6  O   UNL     1       3.467  30.563  52.431  1.00  0.00    -0.266 OA
HETATM    7  N   UNL     1       5.054  29.872  53.870  1.00  0.00    -0.300 N 
HETATM    8  H   UNL     1       5.163  30.823  54.187  1.00  0.00     0.171 HD
ENDROOT
BRANCH   1   9
HETATM    9  S   UNL     1       6.159  29.384  56.155  1.00  0.00    -0.083 SA
BRANCH   9  10
HETATM   10  C   UNL     1       7.677  28.406  55.991  1.00  0.00     0.185 C 
BRANCH  10  11
HETATM   11  C   UNL     1       7.639  27.045  56.669  1.00  0.00     0.227 C 
HETATM   12  N   UNL     1       7.352  25.967  55.863  1.00  0.00    -0.356 N 
HETATM   13  H   UNL     1       6.830  26.164  55.016  1.00  0.00     0.162 HD
HETATM   14  O   UNL     1       7.942  26.921  57.855  1.00  0.00    -0.273 OA
BRANCH  12  15
HETATM   15  C   UNL     1       7.172  24.663  56.457  1.00  0.00     0.161 C 
BRANCH  15  16
HETATM   16  C   UNL     1       7.410  23.551  55.471  1.00  0.00    -0.041 A 
HETATM   17  C   UNL     1       7.441  23.811  54.095  1.00  0.00     0.009 A 
HETATM   18  C   UNL     1       7.719  22.790  53.183  1.00  0.00     0.007 A 
HETATM   19  C   UNL     1       7.970  21.489  53.629  1.00  0.00    -0.062 A 
HETATM   20  C   UNL     1       8.319  20.397  52.662  1.00  0.00     0.048 C 
HETATM   21  C   UNL     1       7.946  21.227  55.004  1.00  0.00     0.007 A 
HETATM   22  C   UNL     1       7.665  22.247  55.916  1.00  0.00     0.009 A 
ENDBRANCH  15  16
ENDBRANCH  12  15
ENDBRANCH  10  11
ENDBRANCH   9  10
ENDBRANCH   1   9
BRANCH   3  23
HETATM   23  N   UNL     1       4.200  25.953  53.104  1.00  0.00    -0.285 NA
HETATM   24  H   UNL     1       4.490  25.786  52.140  1.00  0.00     0.125 HD
HETATM   25  H   UNL     1       4.797  25.394  53.711  1.00  0.00     0.125 HD
ENDBRANCH   3  23
BRANCH   4  26
HETATM   26  N   UNL     1       3.628  27.840  51.172  1.00  0.00    -0.314 N 
HETATM   27  C   UNL     1       4.372  27.772  50.011  1.00  0.00     0.280 C 
HETATM   28  O   UNL     1       5.555  28.076  49.912  1.00  0.00    -0.265 OA
HETATM   29  H   UNL     1       2.759  27.313  51.156  1.00  0.00     0.169 HD
BRANCH  27  30
HETATM   30  C   UNL     1       3.631  27.202  48.901  1.00  0.00     0.144 A 
HETATM   31  O   UNL     1       2.506  27.840  48.444  1.00  0.00    -0.298 OA
HETATM   32  C   UNL     1       1.988  27.073  47.446  1.00  0.00     0.122 A 
HETATM   33 BR   UNL     1       0.431  27.491  46.509  1.00  0.00    -0.023 Br
HETATM   34  C   UNL     1       2.767  25.959  47.242  1.00  0.00     0.048 A 
HETATM   35  C   UNL     1       3.827  26.040  48.178  1.00  0.00     0.046 A 
ENDBRANCH  27  30
ENDBRANCH   4  26
TORSDOF 8
ENDMDL
MODEL 3
REMARK VINA RESULT:     -10.1      1.802      2.402
REMARK  8 active torsions:
REMARK  status: ('A' for Active; 'I' for Inactive)
REMARK    1  A    between atoms: C_5  and  C_6 
REMARK    2  A    between atoms: C_6  and  N_7 
REMARK       I    between atoms: N_7  and  C_8 
REMARK    3  A    between atoms: C_8  and  C_9 
REMARK    4  A    between atoms: C_9  and  S_10 
REMARK    5  A    between atoms: S_10  and  C_11 
REMARK    6  A    between atoms: C_13  and  N_14 
REMARK    7  A    between atoms: C_15  and  N_16 
REMARK       I    between atoms: N_16  and  C_17 
REMARK    8  A    between atoms: C_17  and  C_18 
ROOT
HETATM    1  C   UNL     1       6.471  29.559  56.180  1.00  0.00     0.171 C 
HETATM    2  N   UNL     1       7.467  29.196  56.909  1.00  0.00    -0.210 NA
HETATM    3  C   UNL     1       7.638  29.834  58.111  1.00  0.00     0.136 C 
HETATM    4  C   UNL     1       6.871  30.880  58.505  1.00  0.00     0.144 C 
HETATM    5  C   UNL     1       5.946  31.438  57.472  1.00  0.00     0.277 C 
HETATM    6  O   UNL     1       5.613  32.615  57.412  1.00  0.00    -0.266 OA
HETATM    7  N   UNL     1       5.621  30.568  56.477  1.00  0.00    -0.300 N 
HETATM    8  H   UNL     1       5.000  30.908  55.758  1.00  0.00     0.171 HD
ENDROOT
BRANCH   1   9
HETATM    9  S   UNL     1       6.085  28.758  54.691  1.00  0.00    -0.083 SA
BRANCH   9  10
HETATM   10  C   UNL     1       4.897  27.527  55.295  1.00  0.00     0.185 C 
BRANCH  10  11
HETATM   11  C   UNL     1       5.506  26.391  56.101  1.00  0.00     0.227 C 
HETATM   12  N   UNL     1       6.796  26.034  55.779  1.00  0.00    -0.356 N 
HETATM   13  H   UNL     1       7.104  26.255  54.838  1.00  0.00     0.162 HD
HETATM   14  O   UNL     1       4.899  25.891  57.047  1.00  0.00    -0.273 OA
BRANCH  12  15
HETATM   15  C   UNL     1       7.395  24.882  56.412  1.00  0.00     0.161 C 
BRANCH  15  16
HETATM   16  C   UNL     1       7.561  23.731  55.458  1.00  0.00    -0.041 A 
HETATM   17  C   UNL     1       7.557  23.945  54.073  1.00  0.00     0.009 A 
HETATM   18  C   UNL     1       7.768  22.885  53.188  1.00  0.00     0.007 A 
HETATM   19  C   UNL     1       7.986  21.590  53.670  1.00  0.00    -0.062 A 
HETATM   20  C   UNL     1       8.264  20.455  52.730  1.00  0.00     0.048 C 
HETATM   21  C   UNL     1       7.996  21.374  55.053  1.00  0.00     0.007 A 
HETATM   22  C   UNL     1       7.782  22.434  55.938  1.00  0.00     0.009 A 
ENDBRANCH  15  16
ENDBRANCH  12  15
ENDBRANCH  10  11
ENDBRANCH   9  10
ENDBRANCH   1   9
BRANCH   3  23
HETATM   23  N   UNL     1       8.619  29.324  58.955  1.00  0.00    -0.285 NA
HETATM   24  H   UNL     1       9.175  30.119  59.272  1.00  0.00     0.125 HD
HETATM   25  H   UNL     1       8.190  28.897  59.774  1.00  0.00     0.125 HD
ENDBRANCH   3  23
BRANCH   4  26
HETATM   26  N   UNL     1       6.971  31.375  59.789  1.00  0.00    -0.314 N 
HETATM   27  C   UNL     1       7.946  32.215  60.288  1.00  0.00     0.280 C 
HETATM   28  O   UNL     1       8.903  32.642  59.654  1.00  0.00    -0.265 OA
HETATM   29  H   UNL     1       6.121  31.327  60.343  1.00  0.00     0.169 HD
BRANCH  27  30
HETATM   30  C   UNL     1       7.679  32.638  61.651  1.00  0.00     0.144 A 
HETATM   31  O   UNL     1       6.726  33.595  61.886  1.00  0.00    -0.298 OA
HETATM   32  C   UNL     1       6.719  33.833  63.226  1.00  0.00     0.122 A 
HETATM   33 BR   UNL     1       5.611  35.080  64.059  1.00  0.00    -0.023 Br
HETATM   34  C   UNL     1       7.642  33.036  63.862  1.00  0.00     0.048 A 
HETATM   35  C   UNL     1       8.262  32.264  62.848  1.00  0.00     0.046 A 
ENDBRANCH  27  30
ENDBRANCH   4  26
TORSDOF 8
ENDMDL
MODEL 4
REMARK VINA RESULT:     -10.1      2.651      3.671
REMARK  8 active torsions:
REMARK  status: ('A' for Active; 'I' for Inactive)
REMARK    1  A    between atoms: C_5  and  C_6 
REMARK    2  A    between atoms: C_6  and  N_7 
REMARK       I    between atoms: N_7  and  C_8 
REMARK    3  A    between atoms: C_8  and  C_9 
REMARK    4  A    between atoms: C_9  and  S_10 
REMARK    5  A    between atoms: S_10  and  C_11 
REMARK    6  A    between atoms: C_13  and  N_14 
REMARK    7  A    between atoms: C_15  and  N_16 
REMARK       I    between atoms: N_16  and  C_17 
REMARK    8  A    between atoms: C_17  and  C_18 
ROOT
HETATM    1  C   UNL     1       4.783  29.584  55.176  1.00  0.00     0.171 C 
HETATM    2  N   UNL     1       4.103  29.623  56.268  1.00  0.00    -0.210 NA
HETATM    3  C   UNL     1       4.784  29.877  57.430  1.00  0.00     0.136 C 
HETATM    4  C   UNL     1       6.134  29.988  57.483  1.00  0.00     0.144 C 
HETATM    5  C   UNL     1       6.870  29.623  56.234  1.00  0.00     0.277 C 
HETATM    6  O   UNL     1       7.994  29.137  56.216  1.00  0.00    -0.266 OA
HETATM    7  N   UNL     1       6.127  29.709  55.096  1.00  0.00    -0.300 N 
HETATM    8  H   UNL     1       6.587  29.468  54.232  1.00  0.00     0.171 HD
ENDROOT
BRANCH   1   9
HETATM    9  S   UNL     1       4.024  29.380  53.630  1.00  0.00    -0.083 SA
BRANCH   9  10
HETATM   10  C   UNL     1       4.283  27.602  53.385  1.00  0.00     0.185 C 
BRANCH  10  11
HETATM   11  C   UNL     1       5.688  27.110  53.693  1.00  0.00     0.227 C 
HETATM   12  N   UNL     1       5.795  26.107  54.629  1.00  0.00    -0.356 N 
HETATM   13  H   UNL     1       5.038  26.033  55.300  1.00  0.00     0.162 HD
HETATM   14  O   UNL     1       6.657  27.532  53.062  1.00  0.00    -0.273 OA
BRANCH  12  15
HETATM   15  C   UNL     1       7.103  25.678  55.066  1.00  0.00     0.161 C 
BRANCH  15  16
HETATM   16  C   UNL     1       7.465  24.319  54.529  1.00  0.00    -0.041 A 
HETATM   17  C   UNL     1       7.541  23.211  55.383  1.00  0.00     0.009 A 
HETATM   18  C   UNL     1       7.821  21.940  54.877  1.00  0.00     0.007 A 
HETATM   19  C   UNL     1       8.031  21.752  53.508  1.00  0.00    -0.062 A 
HETATM   20  C   UNL     1       8.282  20.383  52.948  1.00  0.00     0.048 C 
HETATM   21  C   UNL     1       7.949  22.855  52.651  1.00  0.00     0.007 A 
HETATM   22  C   UNL     1       7.672  24.128  53.157  1.00  0.00     0.009 A 
ENDBRANCH  15  16
ENDBRANCH  12  15
ENDBRANCH  10  11
ENDBRANCH   9  10
ENDBRANCH   1   9
BRANCH   3  23
HETATM   23  N   UNL     1       4.017  30.070  58.574  1.00  0.00    -0.285 NA
HETATM   24  H   UNL     1       3.175  30.566  58.282  1.00  0.00     0.125 HD
HETATM   25  H   UNL     1       3.733  29.172  58.961  1.00  0.00     0.125 HD
ENDBRANCH   3  23
BRANCH   4  26
HETATM   26  N   UNL     1       6.756  30.410  58.640  1.00  0.00    -0.314 N 
HETATM   27  C   UNL     1       6.902  31.709  59.086  1.00  0.00     0.280 C 
HETATM   28  O   UNL     1       6.507  32.706  58.495  1.00  0.00    -0.265 OA
HETATM   29  H   UNL     1       6.892  29.695  59.348  1.00  0.00     0.169 HD
BRANCH  27  30
HETATM   30  C   UNL     1       7.504  31.785  60.405  1.00  0.00     0.144 A 
HETATM   31  O   UNL     1       6.853  32.461  61.405  1.00  0.00    -0.298 OA
HETATM   32  C   UNL     1       7.653  32.418  62.504  1.00  0.00     0.122 A 
HETATM   33 BR   UNL     1       7.232  33.220  64.134  1.00  0.00    -0.023 Br
HETATM   34  C   UNL     1       8.804  31.716  62.235  1.00  0.00     0.048 A 
HETATM   35  C   UNL     1       8.710  31.306  60.882  1.00  0.00     0.046 A 
ENDBRANCH  27  30
ENDBRANCH   4  26
TORSDOF 8
ENDMDL
MODEL 5
REMARK VINA RESULT:     -10.0      2.728      4.089
REMARK  8 active torsions:
REMARK  status: ('A' for Active; 'I' for Inactive)
REMARK    1  A    between atoms: C_5  and  C_6 
REMARK    2  A    between atoms: C_6  and  N_7 
REMARK       I    between atoms: N_7  and  C_8 
REMARK    3  A    between atoms: C_8  and  C_9 
REMARK    4  A    between atoms: C_9  and  S_10 
REMARK    5  A    between atoms: S_10  and  C_11 
REMARK    6  A    between atoms: C_13  and  N_14 
REMARK    7  A    between atoms: C_15  and  N_16 
REMARK       I    between atoms: N_16  and  C_17 
REMARK    8  A    between atoms: C_17  and  C_18 
ROOT
HETATM    1  C   UNL     1       5.648  29.076  54.874  1.00  0.00     0.171 C 
HETATM    2  N   UNL     1       4.852  29.184  55.880  1.00  0.00    -0.210 NA
HETATM    3  C   UNL     1       5.412  29.439  57.105  1.00  0.00     0.136 C 
HETATM    4  C   UNL     1       6.751  29.483  57.308  1.00  0.00     0.144 C 
HETATM    5  C   UNL     1       7.601  29.041  56.161  1.00  0.00     0.277 C 
HETATM    6  O   UNL     1       8.693  28.498  56.283  1.00  0.00    -0.266 OA
HETATM    7  N   UNL     1       6.997  29.129  54.944  1.00  0.00    -0.300 N 
HETATM    8  H   UNL     1       7.537  28.838  54.144  1.00  0.00     0.171 HD
ENDROOT
BRANCH   1   9
HETATM    9  S   UNL     1       5.057  28.862  53.257  1.00  0.00    -0.083 SA
BRANCH   9  10
HETATM   10  C   UNL     1       4.424  27.167  53.374  1.00  0.00     0.185 C 
BRANCH  10  11
HETATM   11  C   UNL     1       5.338  26.100  52.794  1.00  0.00     0.227 C 
HETATM   12  N   UNL     1       6.568  25.953  53.395  1.00  0.00    -0.356 N 
HETATM   13  H   UNL     1       6.928  26.762  53.890  1.00  0.00     0.162 HD
HETATM   14  O   UNL     1       4.949  25.354  51.896  1.00  0.00    -0.273 OA
BRANCH  12  15
HETATM   15  C   UNL     1       7.538  25.050  52.820  1.00  0.00     0.161 C 
BRANCH  15  16
HETATM   16  C   UNL     1       7.648  23.765  53.595  1.00  0.00    -0.041 A 
HETATM   17  C   UNL     1       7.886  22.552  52.937  1.00  0.00     0.009 A 
HETATM   18  C   UNL     1       8.045  21.367  53.660  1.00  0.00     0.007 A 
HETATM   19  C   UNL     1       7.968  21.374  55.057  1.00  0.00    -0.062 A 
HETATM   20  C   UNL     1       8.188  20.117  55.845  1.00  0.00     0.048 C 
HETATM   21  C   UNL     1       7.737  22.585  55.718  1.00  0.00     0.007 A 
HETATM   22  C   UNL     1       7.575  23.769  54.994  1.00  0.00     0.009 A 
ENDBRANCH  15  16
ENDBRANCH  12  15
ENDBRANCH  10  11
ENDBRANCH   9  10
ENDBRANCH   1   9
BRANCH   3  23
HETATM   23  N   UNL     1       4.533  29.708  58.149  1.00  0.00    -0.285 NA
HETATM   24  H   UNL     1       4.842  30.582  58.574  1.00  0.00     0.125 HD
HETATM   25  H   UNL     1       3.592  29.852  57.786  1.00  0.00     0.125 HD
ENDBRANCH   3  23
BRANCH   4  26
HETATM   26  N   UNL     1       7.261  29.909  58.517  1.00  0.00    -0.314 N 
HETATM   27  C   UNL     1       7.275  31.198  59.012  1.00  0.00     0.280 C 
HETATM   28  O   UNL     1       6.842  32.183  58.428  1.00  0.00    -0.265 OA
HETATM   29  H   UNL     1       7.407  29.181  59.210  1.00  0.00     0.169 HD
BRANCH  27  30
HETATM   30  C   UNL     1       7.783  31.272  60.371  1.00  0.00     0.144 A 
HETATM   31  O   UNL     1       7.205  32.142  61.259  1.00  0.00    -0.298 OA
HETATM   32  C   UNL     1       7.899  32.043  62.425  1.00  0.00     0.122 A 
HETATM   33 BR   UNL     1       7.525  33.048  63.952  1.00  0.00    -0.023 Br
HETATM   34  C   UNL     1       8.907  31.115  62.309  1.00  0.00     0.048 A 
HETATM   35  C   UNL     1       8.833  30.616  60.985  1.00  0.00     0.046 A 
ENDBRANCH  27  30
ENDBRANCH   4  26
TORSDOF 8
ENDMDL
MODEL 6
REMARK VINA RESULT:     -10.0      1.277      1.336
REMARK  8 active torsions:
REMARK  status: ('A' for Active; 'I' for Inactive)
REMARK    1  A    between atoms: C_5  and  C_6 
REMARK    2  A    between atoms: C_6  and  N_7 
REMARK       I    between atoms: N_7  and  C_8 
REMARK    3  A    between atoms: C_8  and  C_9 
REMARK    4  A    between atoms: C_9  and  S_10 
REMARK    5  A    between atoms: S_10  and  C_11 
REMARK    6  A    between atoms: C_13  and  N_14 
REMARK    7  A    between atoms: C_15  and  N_16 
REMARK       I    between atoms: N_16  and  C_17 
REMARK    8  A    between atoms: C_17  and  C_18 
ROOT
HETATM    1  C   UNL     1       7.955  30.030  58.708  1.00  0.00     0.171 C 
HETATM    2  N   UNL     1       8.822  30.015  59.659  1.00  0.00    -0.210 NA
HETATM    3  C   UNL     1       8.570  30.796  60.758  1.00  0.00     0.136 C 
HETATM    4  C   UNL     1       7.514  31.642  60.834  1.00  0.00     0.144 C 
HETATM    5  C   UNL     1       6.736  31.831  59.572  1.00  0.00     0.277 C 
HETATM    6  O   UNL     1       6.160  32.869  59.268  1.00  0.00    -0.266 OA
HETATM    7  N   UNL     1       6.849  30.809  58.680  1.00  0.00    -0.300 N 
HETATM    8  H   UNL     1       6.342  30.900  57.814  1.00  0.00     0.171 HD
ENDROOT
BRANCH   1   9
HETATM    9  S   UNL     1       8.104  29.007  57.316  1.00  0.00    -0.083 SA
BRANCH   9  10
HETATM   10  C   UNL     1       6.572  28.048  57.465  1.00  0.00     0.185 C 
BRANCH  10  11
HETATM   11  C   UNL     1       6.070  27.436  56.167  1.00  0.00     0.227 C 
HETATM   12  N   UNL     1       6.635  26.236  55.796  1.00  0.00    -0.356 N 
HETATM   13  H   UNL     1       7.560  26.040  56.164  1.00  0.00     0.162 HD
HETATM   14  O   UNL     1       5.143  27.950  55.543  1.00  0.00    -0.273 OA
BRANCH  12  15
HETATM   15  C   UNL     1       6.302  25.659  54.514  1.00  0.00     0.161 C 
BRANCH  15  16
HETATM   16  C   UNL     1       6.948  24.315  54.311  1.00  0.00    -0.041 A 
HETATM   17  C   UNL     1       7.166  23.456  55.396  1.00  0.00     0.009 A 
HETATM   18  C   UNL     1       7.713  22.186  55.199  1.00  0.00     0.007 A 
HETATM   19  C   UNL     1       8.054  21.751  53.915  1.00  0.00    -0.062 A 
HETATM   20  C   UNL     1       8.594  20.370  53.688  1.00  0.00     0.048 C 
HETATM   21  C   UNL     1       7.831  22.604  52.828  1.00  0.00     0.007 A 
HETATM   22  C   UNL     1       7.287  23.876  53.024  1.00  0.00     0.009 A 
ENDBRANCH  15  16
ENDBRANCH  12  15
ENDBRANCH  10  11
ENDBRANCH   9  10
ENDBRANCH   1   9
BRANCH   3  23
HETATM   23  N   UNL     1       9.432  30.648  61.839  1.00  0.00    -0.285 NA
HETATM   24  H   UNL     1      10.262  30.170  61.489  1.00  0.00     0.125 HD
HETATM   25  H   UNL     1       9.721  31.563  62.184  1.00  0.00     0.125 HD
ENDBRANCH   3  23
BRANCH   4  26
HETATM   26  N   UNL     1       7.210  32.276  62.021  1.00  0.00    -0.314 N 
HETATM   27  C   UNL     1       6.150  32.010  62.865  1.00  0.00     0.280 C 
HETATM   28  O   UNL     1       5.289  31.162  62.670  1.00  0.00    -0.265 OA
HETATM   29  H   UNL     1       7.969  32.807  62.438  1.00  0.00     0.169 HD
BRANCH  27  30
HETATM   30  C   UNL     1       6.199  32.788  64.089  1.00  0.00     0.144 A 
HETATM   31  O   UNL     1       5.038  33.037  64.777  1.00  0.00    -0.298 OA
HETATM   32  C   UNL     1       5.364  33.819  65.842  1.00  0.00     0.122 A 
HETATM   33 BR   UNL     1       4.127  34.461  67.082  1.00  0.00    -0.023 Br
HETATM   34  C   UNL     1       6.716  34.068  65.862  1.00  0.00     0.048 A 
HETATM   35  C   UNL     1       7.256  33.404  64.733  1.00  0.00     0.046 A 
ENDBRANCH  27  30
ENDBRANCH   4  26
TORSDOF 8
ENDMDL
MODEL 7
REMARK VINA RESULT:      -9.6      4.036     11.581
REMARK  8 active torsions:
REMARK  status: ('A' for Active; 'I' for Inactive)
REMARK    1  A    between atoms: C_5  and  C_6 
REMARK    2  A    between atoms: C_6  and  N_7 
REMARK       I    between atoms: N_7  and  C_8 
REMARK    3  A    between atoms: C_8  and  C_9 
REMARK    4  A    between atoms: C_9  and  S_10 
REMARK    5  A    between atoms: S_10  and  C_11 
REMARK    6  A    between atoms: C_13  and  N_14 
REMARK    7  A    between atoms: C_15  and  N_16 
REMARK       I    between atoms: N_16  and  C_17 
REMARK    8  A    between atoms: C_17  and  C_18 
ROOT
HETATM    1  C   UNL     1       5.922  29.541  56.254  1.00  0.00     0.171 C 
HETATM    2  N   UNL     1       5.114  28.614  56.633  1.00  0.00    -0.210 NA
HETATM    3  C   UNL     1       5.384  27.332  56.228  1.00  0.00     0.136 C 
HETATM    4  C   UNL     1       6.394  27.027  55.378  1.00  0.00     0.144 C 
HETATM    5  C   UNL     1       7.087  28.188  54.741  1.00  0.00     0.277 C 
HETATM    6  O   UNL     1       7.586  28.162  53.622  1.00  0.00    -0.266 OA
HETATM    7  N   UNL     1       6.980  29.357  55.431  1.00  0.00    -0.300 N 
HETATM    8  H   UNL     1       7.431  30.166  55.033  1.00  0.00     0.171 HD
ENDROOT
BRANCH   1   9
HETATM    9  S   UNL     1       5.751  31.182  56.788  1.00  0.00    -0.083 SA
BRANCH   9  10
HETATM   10  C   UNL     1       5.746  30.930  58.584  1.00  0.00     0.185 C 
BRANCH  10  11
HETATM   11  C   UNL     1       6.822  31.692  59.340  1.00  0.00     0.227 C 
HETATM   12  N   UNL     1       6.603  31.890  60.685  1.00  0.00    -0.356 N 
HETATM   13  H   UNL     1       5.636  31.873  60.991  1.00  0.00     0.162 HD
HETATM   14  O   UNL     1       7.869  32.025  58.786  1.00  0.00    -0.273 OA
BRANCH  12  15
HETATM   15  C   UNL     1       7.517  32.714  61.441  1.00  0.00     0.161 C 
BRANCH  15  16
HETATM   16  C   UNL     1       6.937  33.142  62.762  1.00  0.00    -0.041 A 
HETATM   17  C   UNL     1       5.598  33.542  62.858  1.00  0.00     0.009 A 
HETATM   18  C   UNL     1       5.043  33.885  64.094  1.00  0.00     0.007 A 
HETATM   19  C   UNL     1       5.817  33.835  65.257  1.00  0.00    -0.062 A 
HETATM   20  C   UNL     1       5.218  34.152  66.595  1.00  0.00     0.048 C 
HETATM   21  C   UNL     1       7.154  33.429  65.166  1.00  0.00     0.007 A 
HETATM   22  C   UNL     1       7.709  33.089  63.930  1.00  0.00     0.009 A 
ENDBRANCH  15  16
ENDBRANCH  12  15
ENDBRANCH  10  11
ENDBRANCH   9  10
ENDBRANCH   1   9
BRANCH   3  23
HETATM   23  N   UNL     1       4.595  26.326  56.773  1.00  0.00    -0.285 NA
HETATM   24  H   UNL     1       4.710  26.379  57.785  1.00  0.00     0.125 HD
HETATM   25  H   UNL     1       3.613  26.497  56.561  1.00  0.00     0.125 HD
ENDBRANCH   3  23
BRANCH   4  26
HETATM   26  N   UNL     1       6.730  25.711  55.135  1.00  0.00    -0.314 N 
HETATM   27  C   UNL     1       6.363  24.940  54.050  1.00  0.00     0.280 C 
HETATM   28  O   UNL     1       5.650  25.314  53.127  1.00  0.00    -0.265 OA
HETATM   29  H   UNL     1       7.521  25.357  55.666  1.00  0.00     0.169 HD
BRANCH  27  30
HETATM   30  C   UNL     1       6.991  23.631  54.053  1.00  0.00     0.144 A 
HETATM   31  O   UNL     1       7.127  22.951  55.236  1.00  0.00    -0.298 OA
HETATM   32  C   UNL     1       7.785  21.793  54.959  1.00  0.00     0.122 A 
HETATM   33 BR   UNL     1       8.243  20.520  56.243  1.00  0.00    -0.023 Br
HETATM   34  C   UNL     1       8.065  21.707  53.616  1.00  0.00     0.048 A 
HETATM   35  C   UNL     1       7.553  22.891  53.030  1.00  0.00     0.046 A 
ENDBRANCH  27  30
ENDBRANCH   4  26
TORSDOF 8
ENDMDL
MODEL 8
REMARK VINA RESULT:      -9.4      1.581      2.191
REMARK  8 active torsions:
REMARK  status: ('A' for Active; 'I' for Inactive)
REMARK    1  A    between atoms: C_5  and  C_6 
REMARK    2  A    between atoms: C_6  and  N_7 
REMARK       I    between atoms: N_7  and  C_8 
REMARK    3  A    between atoms: C_8  and  C_9 
REMARK    4  A    between atoms: C_9  and  S_10 
REMARK    5  A    between atoms: S_10  and  C_11 
REMARK    6  A    between atoms: C_13  and  N_14 
REMARK    7  A    between atoms: C_15  and  N_16 
REMARK       I    between atoms: N_16  and  C_17 
REMARK    8  A    between atoms: C_17  and  C_18 
ROOT
HETATM    1  C   UNL     1       8.788  30.760  59.034  1.00  0.00     0.171 C 
HETATM    2  N   UNL     1       7.640  31.332  58.926  1.00  0.00    -0.210 NA
HETATM    3  C   UNL     1       7.089  31.866  60.063  1.00  0.00     0.136 C 
HETATM    4  C   UNL     1       7.651  31.727  61.288  1.00  0.00     0.144 C 
HETATM    5  C   UNL     1       8.812  30.789  61.373  1.00  0.00     0.277 C 
HETATM    6  O   UNL     1       9.088  30.125  62.365  1.00  0.00    -0.266 OA
HETATM    7  N   UNL     1       9.461  30.586  60.194  1.00  0.00    -0.300 N 
HETATM    8  H   UNL     1      10.249  29.957  60.208  1.00  0.00     0.171 HD
ENDROOT
BRANCH   1   9
HETATM    9  S   UNL     1       9.638  30.144  57.653  1.00  0.00    -0.083 SA
BRANCH   9  10
HETATM   10  C   UNL     1       8.241  29.547  56.663  1.00  0.00     0.185 C 
BRANCH  10  11
HETATM   11  C   UNL     1       7.606  28.260  57.163  1.00  0.00     0.227 C 
HETATM   12  N   UNL     1       8.372  27.120  57.066  1.00  0.00    -0.356 N 
HETATM   13  H   UNL     1       9.099  27.124  56.359  1.00  0.00     0.162 HD
HETATM   14  O   UNL     1       6.503  28.270  57.708  1.00  0.00    -0.273 OA
BRANCH  12  15
HETATM   15  C   UNL     1       7.790  25.841  57.401  1.00  0.00     0.161 C 
BRANCH  15  16
HETATM   16  C   UNL     1       7.875  24.862  56.261  1.00  0.00    -0.041 A 
HETATM   17  C   UNL     1       8.643  23.696  56.377  1.00  0.00     0.009 A 
HETATM   18  C   UNL     1       8.676  22.759  55.342  1.00  0.00     0.007 A 
HETATM   19  C   UNL     1       7.943  22.970  54.170  1.00  0.00    -0.062 A 
HETATM   20  C   UNL     1       7.932  21.947  53.073  1.00  0.00     0.048 C 
HETATM   21  C   UNL     1       7.170  24.131  54.053  1.00  0.00     0.007 A 
HETATM   22  C   UNL     1       7.139  25.069  55.088  1.00  0.00     0.009 A 
ENDBRANCH  15  16
ENDBRANCH  12  15
ENDBRANCH  10  11
ENDBRANCH   9  10
ENDBRANCH   1   9
BRANCH   3  23
HETATM   23  N   UNL     1       5.929  32.614  59.902  1.00  0.00    -0.285 NA
HETATM   24  H   UNL     1       6.214  33.523  59.536  1.00  0.00     0.125 HD
HETATM   25  H   UNL     1       5.322  32.176  59.212  1.00  0.00     0.125 HD
ENDBRANCH   3  23
BRANCH   4  26
HETATM   26  N   UNL     1       7.151  32.422  62.370  1.00  0.00    -0.314 N 
HETATM   27  C   UNL     1       6.036  32.109  63.123  1.00  0.00     0.280 C 
HETATM   28  O   UNL     1       5.297  31.153  62.926  1.00  0.00    -0.265 OA
HETATM   29  H   UNL     1       7.797  33.072  62.808  1.00  0.00     0.169 HD
BRANCH  27  30
HETATM   30  C   UNL     1       5.864  32.991  64.264  1.00  0.00     0.144 A 
HETATM   31  O   UNL     1       4.606  33.421  64.599  1.00  0.00    -0.298 OA
HETATM   32  C   UNL     1       4.741  34.263  65.660  1.00  0.00     0.122 A 
HETATM   33 BR   UNL     1       3.316  35.142  66.482  1.00  0.00    -0.023 Br
HETATM   34  C   UNL     1       6.062  34.372  66.023  1.00  0.00     0.048 A 
HETATM   35  C   UNL     1       6.788  33.553  65.125  1.00  0.00     0.046 A 
ENDBRANCH  27  30
ENDBRANCH   4  26
TORSDOF 8
ENDMDL
MODEL 9
REMARK VINA RESULT:      -9.3      1.785      2.267
REMARK  8 active torsions:
REMARK  status: ('A' for Active; 'I' for Inactive)
REMARK    1  A    between atoms: C_5  and  C_6 
REMARK    2  A    between atoms: C_6  and  N_7 
REMARK       I    between atoms: N_7  and  C_8 
REMARK    3  A    between atoms: C_8  and  C_9 
REMARK    4  A    between atoms: C_9  and  S_10 
REMARK    5  A    between atoms: S_10  and  C_11 
REMARK    6  A    between atoms: C_13  and  N_14 
REMARK    7  A    between atoms: C_15  and  N_16 
REMARK       I    between atoms: N_16  and  C_17 
REMARK    8  A    between atoms: C_17  and  C_18 
ROOT
HETATM    1  C   UNL     1       8.071  29.995  58.513  1.00  0.00     0.171 C 
HETATM    2  N   UNL     1       8.532  30.101  59.710  1.00  0.00    -0.210 NA
HETATM    3  C   UNL     1       7.882  30.952  60.567  1.00  0.00     0.136 C 
HETATM    4  C   UNL     1       6.854  31.744  60.177  1.00  0.00     0.144 C 
HETATM    5  C   UNL     1       6.585  31.792  58.707  1.00  0.00     0.277 C 
HETATM    6  O   UNL     1       6.139  32.771  58.122  1.00  0.00    -0.266 OA
HETATM    7  N   UNL     1       7.036  30.709  58.016  1.00  0.00    -0.300 N 
HETATM    8  H   UNL     1       6.877  30.705  57.020  1.00  0.00     0.171 HD
ENDROOT
BRANCH   1   9
HETATM    9  S   UNL     1       8.737  28.873  57.370  1.00  0.00    -0.083 SA
BRANCH   9  10
HETATM   10  C   UNL     1       7.411  28.859  56.134  1.00  0.00     0.185 C 
BRANCH  10  11
HETATM   11  C   UNL     1       7.755  28.150  54.833  1.00  0.00     0.227 C 
HETATM   12  N   UNL     1       7.044  27.005  54.553  1.00  0.00    -0.356 N 
HETATM   13  H   UNL     1       6.647  26.515  55.347  1.00  0.00     0.162 HD
HETATM   14  O   UNL     1       8.561  28.638  54.042  1.00  0.00    -0.273 OA
BRANCH  12  15
HETATM   15  C   UNL     1       7.402  26.209  53.402  1.00  0.00     0.161 C 
BRANCH  15  16
HETATM   16  C   UNL     1       7.486  24.743  53.728  1.00  0.00    -0.041 A 
HETATM   17  C   UNL     1       7.827  23.810  52.740  1.00  0.00     0.009 A 
HETATM   18  C   UNL     1       7.961  22.455  53.056  1.00  0.00     0.007 A 
HETATM   19  C   UNL     1       7.756  22.008  54.365  1.00  0.00    -0.062 A 
HETATM   20  C   UNL     1       7.946  20.564  54.723  1.00  0.00     0.048 C 
HETATM   21  C   UNL     1       7.421  22.938  55.355  1.00  0.00     0.007 A 
HETATM   22  C   UNL     1       7.284  24.292  55.039  1.00  0.00     0.009 A 
ENDBRANCH  15  16
ENDBRANCH  12  15
ENDBRANCH  10  11
ENDBRANCH   9  10
ENDBRANCH   1   9
BRANCH   3  23
HETATM   23  N   UNL     1       8.294  30.936  61.895  1.00  0.00    -0.285 NA
HETATM   24  H   UNL     1       8.207  29.972  62.217  1.00  0.00     0.125 HD
HETATM   25  H   UNL     1       9.275  31.200  61.960  1.00  0.00     0.125 HD
ENDBRANCH   3  23
BRANCH   4  26
HETATM   26  N   UNL     1       6.126  32.454  61.110  1.00  0.00    -0.314 N 
HETATM   27  C   UNL     1       4.754  32.469  61.266  1.00  0.00     0.280 C 
HETATM   28  O   UNL     1       3.958  31.853  60.570  1.00  0.00    -0.265 OA
HETATM   29  H   UNL     1       6.653  32.792  61.910  1.00  0.00     0.169 HD
BRANCH  27  30
HETATM   30  C   UNL     1       4.330  33.233  62.426  1.00  0.00     0.144 A 
HETATM   31  O   UNL     1       5.027  33.117  63.601  1.00  0.00    -0.298 OA
HETATM   32  C   UNL     1       4.391  33.892  64.522  1.00  0.00     0.122 A 
HETATM   33 BR   UNL     1       4.931  34.058  66.299  1.00  0.00    -0.023 Br
HETATM   34  C   UNL     1       3.303  34.516  63.957  1.00  0.00     0.048 A 
HETATM   35  C   UNL     1       3.262  34.093  62.606  1.00  0.00     0.046 A 
ENDBRANCH  27  30
ENDBRANCH   4  26
TORSDOF 8
ENDMDL
MODEL 10
REMARK VINA RESULT:      -9.1      4.697      9.934
REMARK  8 active torsions:
REMARK  status: ('A' for Active; 'I' for Inactive)
REMARK    1  A    between atoms: C_5  and  C_6 
REMARK    2  A    between atoms: C_6  and  N_7 
REMARK       I    between atoms: N_7  and  C_8 
REMARK    3  A    between atoms: C_8  and  C_9 
REMARK    4  A    between atoms: C_9  and  S_10 
REMARK    5  A    between atoms: S_10  and  C_11 
REMARK    6  A    between atoms: C_13  and  N_14 
REMARK    7  A    between atoms: C_15  and  N_16 
REMARK       I    between atoms: N_16  and  C_17 
REMARK    8  A    between atoms: C_17  and  C_18 
ROOT
HETATM    1  C   UNL     1       4.399  29.610  55.350  1.00  0.00     0.171 C 
HETATM    2  N   UNL     1       5.428  29.599  54.577  1.00  0.00    -0.210 NA
HETATM    3  C   UNL     1       6.104  28.414  54.438  1.00  0.00     0.136 C 
HETATM    4  C   UNL     1       5.793  27.302  55.149  1.00  0.00     0.144 C 
HETATM    5  C   UNL     1       4.794  27.484  56.244  1.00  0.00     0.277 C 
HETATM    6  O   UNL     1       4.786  26.833  57.283  1.00  0.00    -0.266 OA
HETATM    7  N   UNL     1       3.973  28.559  56.087  1.00  0.00    -0.300 N 
HETATM    8  H   UNL     1       3.286  28.718  56.808  1.00  0.00     0.171 HD
ENDROOT
BRANCH   1   9
HETATM    9  S   UNL     1       3.398  31.015  55.524  1.00  0.00    -0.083 SA
BRANCH   9  10
HETATM   10  C   UNL     1       3.501  31.255  57.318  1.00  0.00     0.185 C 
BRANCH  10  11
HETATM   11  C   UNL     1       4.823  31.819  57.814  1.00  0.00     0.227 C 
HETATM   12  N   UNL     1       5.391  31.188  58.897  1.00  0.00    -0.356 N 
HETATM   13  H   UNL     1       4.758  30.680  59.506  1.00  0.00     0.162 HD
HETATM   14  O   UNL     1       5.387  32.731  57.210  1.00  0.00    -0.273 OA
BRANCH  12  15
HETATM   15  C   UNL     1       6.578  31.745  59.503  1.00  0.00     0.161 C 
BRANCH  15  16
HETATM   16  C   UNL     1       7.839  31.161  58.924  1.00  0.00    -0.041 A 
HETATM   17  C   UNL     1       7.811  29.939  58.239  1.00  0.00     0.009 A 
HETATM   18  C   UNL     1       8.969  29.424  57.652  1.00  0.00     0.007 A 
HETATM   19  C   UNL     1      10.179  30.121  57.740  1.00  0.00    -0.062 A 
HETATM   20  C   UNL     1      11.416  29.602  57.071  1.00  0.00     0.048 C 
HETATM   21  C   UNL     1      10.209  31.345  58.419  1.00  0.00     0.007 A 
HETATM   22  C   UNL     1       9.051  31.858  59.008  1.00  0.00     0.009 A 
ENDBRANCH  15  16
ENDBRANCH  12  15
ENDBRANCH  10  11
ENDBRANCH   9  10
ENDBRANCH   1   9
BRANCH   3  23
HETATM   23  N   UNL     1       7.114  28.379  53.483  1.00  0.00    -0.285 NA
HETATM   24  H   UNL     1       7.440  27.414  53.436  1.00  0.00     0.125 HD
HETATM   25  H   UNL     1       6.740  28.627  52.569  1.00  0.00     0.125 HD
ENDBRANCH   3  23
BRANCH   4  26
HETATM   26  N   UNL     1       6.390  26.094  54.852  1.00  0.00    -0.314 N 
HETATM   27  C   UNL     1       5.874  25.073  54.079  1.00  0.00     0.280 C 
HETATM   28  O   UNL     1       4.773  25.080  53.544  1.00  0.00    -0.265 OA
HETATM   29  H   UNL     1       7.395  26.055  54.999  1.00  0.00     0.169 HD
BRANCH  27  30
HETATM   30  C   UNL     1       6.820  23.991  53.874  1.00  0.00     0.144 A 
HETATM   31  O   UNL     1       7.025  23.075  54.875  1.00  0.00    -0.298 OA
HETATM   32  C   UNL     1       7.984  22.214  54.439  1.00  0.00     0.122 A 
HETATM   33 BR   UNL     1       8.646  20.792  55.448  1.00  0.00    -0.023 Br
HETATM   34  C   UNL     1       8.393  22.550  53.170  1.00  0.00     0.048 A 
HETATM   35  C   UNL     1       7.643  23.694  52.803  1.00  0.00     0.046 A 
ENDBRANCH  27  30
ENDBRANCH   4  26
TORSDOF 8
ENDMDL
