MODEL 1
REMARK VINA RESULT:      -8.5      0.000      0.000
REMARK  7 active torsions:
REMARK  status: ('A' for Active; 'I' for Inactive)
REMARK    1  A    between atoms: O_2  and  C_3 
REMARK    2  A    between atoms: C_4  and  O_5 
REMARK    3  A    between atoms: C_6  and  C_7 
REMARK    4  A    between atoms: C_7  and  N_8 
REMARK    5  A    between atoms: C_11  and  C_12 
REMARK    6  A    between atoms: C_12  and  N_13 
REMARK    7  A    between atoms: N_13  and  C_14 
ROOT
HETATM    1  N   UNL     1       8.433  28.391  57.467  1.00  0.00    -0.067 N 
HETATM    2  H   UNL     1       8.774  27.470  57.807  1.00  0.00     0.280 HD
HETATM    3  C   UNL     1       7.967  29.192  58.658  1.00  0.00     0.241 C 
HETATM    4  C   UNL     1       8.462  30.602  58.359  1.00  0.00     0.031 C 
HETATM    5  C   UNL     1       9.832  30.322  57.746  1.00  0.00     0.035 C 
HETATM    6  C   UNL     1       9.582  29.134  56.827  1.00  0.00     0.235 C 
ENDROOT
BRANCH   1   7
HETATM    7  C   UNL     1       7.349  28.005  56.488  1.00  0.00     0.276 C 
BRANCH   7   8
HETATM    8  C   UNL     1       7.515  26.625  55.918  1.00  0.00     0.005 A 
HETATM    9  C   UNL     1       7.758  25.525  56.747  1.00  0.00     0.107 A 
HETATM   10  C   UNL     1       7.980  24.238  56.237  1.00  0.00     0.103 A 
HETATM   11  C   UNL     1       7.930  24.039  54.861  1.00  0.00     0.058 A 
HETATM   12  C   UNL     1       7.679  25.125  54.019  1.00  0.00     0.014 A 
HETATM   13  C   UNL     1       7.484  26.410  54.535  1.00  0.00     0.030 A 
HETATM   14 BR   UNL     1       7.598  24.861  52.148  1.00  0.00    -0.051 Br
BRANCH   9  15
HETATM   15  O   UNL     1       7.765  25.719  58.109  1.00  0.00    -0.357 OA
HETATM   16  H   UNL     1       8.654  26.106  58.294  1.00  0.00     0.218 HD
ENDBRANCH   9  15
BRANCH  10  17
HETATM   17  O   UNL     1       8.219  23.280  57.187  1.00  0.00    -0.353 OA
HETATM   18  C   UNL     1       8.430  21.952  56.712  1.00  0.00     0.210 C 
ENDBRANCH  10  17
ENDBRANCH   7   8
ENDBRANCH   1   7
BRANCH   4  19
HETATM   19  C   UNL     1       8.498  31.493  59.605  1.00  0.00     0.127 C 
BRANCH  19  20
HETATM   20  N   UNL     1       7.948  30.777  60.760  1.00  0.00    -0.376 N 
HETATM   21  H   UNL     1       8.389  29.880  60.946  1.00  0.00     0.161 HD
BRANCH  20  22
HETATM   22  C   UNL     1       7.522  31.485  61.876  1.00  0.00     0.100 A 
HETATM   23  N   UNL     1       6.198  31.576  62.107  1.00  0.00    -0.353 N 
HETATM   24  H   UNL     1       5.565  31.124  61.455  1.00  0.00     0.166 HD
HETATM   25  C   UNL     1       5.663  32.245  63.140  1.00  0.00     0.089 A 
HETATM   26  C   UNL     1       6.481  32.907  64.041  1.00  0.00     0.017 A 
HETATM   27  C   UNL     1       7.852  32.874  63.840  1.00  0.00     0.005 A 
HETATM   28  C   UNL     1       8.374  32.169  62.755  1.00  0.00     0.048 A 
ENDBRANCH  20  22
ENDBRANCH  19  20
ENDBRANCH   4  19
TORSDOF 7
ENDMDL
MODEL 2
REMARK VINA RESULT:      -8.2      1.217      1.814
REMARK  7 active torsions:
REMARK  status: ('A' for Active; 'I' for Inactive)
REMARK    1  A    between atoms: O_2  and  C_3 
REMARK    2  A    between atoms: C_4  and  O_5 
REMARK    3  A    between atoms: C_6  and  C_7 
REMARK    4  A    between atoms: C_7  and  N_8 
REMARK    5  A    between atoms: C_11  and  C_12 
REMARK    6  A    between atoms: C_12  and  N_13 
REMARK    7  A    between atoms: N_13  and  C_14 
ROOT
HETATM    1  N   UNL     1       7.485  27.343  56.796  1.00  0.00    -0.067 N 
HETATM    2  H   UNL     1       7.754  27.249  55.796  1.00  0.00     0.280 HD
HETATM    3  C   UNL     1       8.456  28.288  57.459  1.00  0.00     0.241 C 
HETATM    4  C   UNL     1       7.573  29.127  58.375  1.00  0.00     0.031 C 
HETATM    5  C   UNL     1       6.334  29.328  57.506  1.00  0.00     0.035 C 
HETATM    6  C   UNL     1       6.107  27.959  56.877  1.00  0.00     0.235 C 
ENDROOT
BRANCH   1   7
HETATM    7  C   UNL     1       7.534  25.917  57.291  1.00  0.00     0.276 C 
BRANCH   7   8
HETATM    8  C   UNL     1       7.779  24.911  56.203  1.00  0.00     0.005 A 
HETATM    9  C   UNL     1       8.226  23.619  56.500  1.00  0.00     0.107 A 
HETATM   10  C   UNL     1       8.522  22.681  55.501  1.00  0.00     0.103 A 
HETATM   11  C   UNL     1       8.339  23.034  54.167  1.00  0.00     0.058 A 
HETATM   12  C   UNL     1       7.883  24.317  53.853  1.00  0.00     0.014 A 
HETATM   13  C   UNL     1       7.615  25.254  54.855  1.00  0.00     0.030 A 
HETATM   14 BR   UNL     1       7.620  24.800  52.044  1.00  0.00    -0.051 Br
BRANCH   9  15
HETATM   15  O   UNL     1       8.366  23.261  57.821  1.00  0.00    -0.357 OA
HETATM   16  H   UNL     1       8.773  24.054  58.245  1.00  0.00     0.218 HD
ENDBRANCH   9  15
BRANCH  10  17
HETATM   17  O   UNL     1       8.965  21.471  55.966  1.00  0.00    -0.353 OA
HETATM   18  C   UNL     1       8.088  20.360  55.784  1.00  0.00     0.210 C 
ENDBRANCH  10  17
ENDBRANCH   7   8
ENDBRANCH   1   7
BRANCH   4  19
HETATM   19  C   UNL     1       8.249  30.429  58.819  1.00  0.00     0.127 C 
BRANCH  19  20
HETATM   20  N   UNL     1       8.650  30.341  60.227  1.00  0.00    -0.376 N 
HETATM   21  H   UNL     1       9.635  30.133  60.369  1.00  0.00     0.161 HD
BRANCH  20  22
HETATM   22  C   UNL     1       8.064  31.176  61.168  1.00  0.00     0.100 A 
HETATM   23  N   UNL     1       6.794  31.576  60.964  1.00  0.00    -0.353 N 
HETATM   24  H   UNL     1       6.317  31.252  60.129  1.00  0.00     0.166 HD
HETATM   25  C   UNL     1       6.125  32.394  61.792  1.00  0.00     0.089 A 
HETATM   26  C   UNL     1       6.741  32.891  62.928  1.00  0.00     0.017 A 
HETATM   27  C   UNL     1       8.057  32.537  63.178  1.00  0.00     0.005 A 
HETATM   28  C   UNL     1       8.723  31.685  62.296  1.00  0.00     0.048 A 
ENDBRANCH  20  22
ENDBRANCH  19  20
ENDBRANCH   4  19
TORSDOF 7
ENDMDL
MODEL 3
REMARK VINA RESULT:      -8.0      2.303      2.869
REMARK  7 active torsions:
REMARK  status: ('A' for Active; 'I' for Inactive)
REMARK    1  A    between atoms: O_2  and  C_3 
REMARK    2  A    between atoms: C_4  and  O_5 
REMARK    3  A    between atoms: C_6  and  C_7 
REMARK    4  A    between atoms: C_7  and  N_8 
REMARK    5  A    between atoms: C_11  and  C_12 
REMARK    6  A    between atoms: C_12  and  N_13 
REMARK    7  A    between atoms: N_13  and  C_14 
ROOT
HETATM    1  N   UNL     1       8.698  28.794  56.806  1.00  0.00    -0.067 N 
HETATM    2  H   UNL     1       8.846  27.766  56.858  1.00  0.00     0.280 HD
HETATM    3  C   UNL     1       8.318  29.287  58.180  1.00  0.00     0.241 C 
HETATM    4  C   UNL     1       9.077  30.602  58.313  1.00  0.00     0.031 C 
HETATM    5  C   UNL     1      10.407  30.256  57.646  1.00  0.00     0.035 C 
HETATM    6  C   UNL     1       9.998  29.457  56.416  1.00  0.00     0.235 C 
ENDROOT
BRANCH   1   7
HETATM    7  C   UNL     1       7.620  28.923  55.755  1.00  0.00     0.276 C 
BRANCH   7   8
HETATM    8  C   UNL     1       7.346  27.646  55.014  1.00  0.00     0.005 A 
HETATM    9  C   UNL     1       6.871  27.661  53.698  1.00  0.00     0.107 A 
HETATM   10  C   UNL     1       6.548  26.486  53.005  1.00  0.00     0.103 A 
HETATM   11  C   UNL     1       6.730  25.258  53.635  1.00  0.00     0.058 A 
HETATM   12  C   UNL     1       7.213  25.225  54.946  1.00  0.00     0.014 A 
HETATM   13  C   UNL     1       7.509  26.403  55.638  1.00  0.00     0.030 A 
HETATM   14 BR   UNL     1       7.475  23.560  55.804  1.00  0.00    -0.051 Br
BRANCH   9  15
HETATM   15  O   UNL     1       6.732  28.875  53.065  1.00  0.00    -0.357 OA
HETATM   16  H   UNL     1       6.101  29.374  53.636  1.00  0.00     0.218 HD
ENDBRANCH   9  15
BRANCH  10  17
HETATM   17  O   UNL     1       6.081  26.683  51.732  1.00  0.00    -0.353 OA
HETATM   18  C   UNL     1       5.227  25.669  51.204  1.00  0.00     0.210 C 
ENDBRANCH  10  17
ENDBRANCH   7   8
ENDBRANCH   1   7
BRANCH   4  19
HETATM   19  C   UNL     1       9.204  31.068  59.767  1.00  0.00     0.127 C 
BRANCH  19  20
HETATM   20  N   UNL     1       8.047  30.619  60.549  1.00  0.00    -0.376 N 
HETATM   21  H   UNL     1       7.954  29.610  60.617  1.00  0.00     0.161 HD
BRANCH  20  22
HETATM   22  C   UNL     1       7.641  31.342  61.662  1.00  0.00     0.100 A 
HETATM   23  N   UNL     1       6.322  31.417  61.929  1.00  0.00    -0.353 N 
HETATM   24  H   UNL     1       5.678  30.942  61.304  1.00  0.00     0.166 HD
HETATM   25  C   UNL     1       5.805  32.096  62.965  1.00  0.00     0.089 A 
HETATM   26  C   UNL     1       6.637  32.788  63.829  1.00  0.00     0.017 A 
HETATM   27  C   UNL     1       8.002  32.773  63.590  1.00  0.00     0.005 A 
HETATM   28  C   UNL     1       8.505  32.055  62.504  1.00  0.00     0.048 A 
ENDBRANCH  20  22
ENDBRANCH  19  20
ENDBRANCH   4  19
TORSDOF 7
ENDMDL
MODEL 4
REMARK VINA RESULT:      -7.8      2.248      2.868
REMARK  7 active torsions:
REMARK  status: ('A' for Active; 'I' for Inactive)
REMARK    1  A    between atoms: O_2  and  C_3 
REMARK    2  A    between atoms: C_4  and  O_5 
REMARK    3  A    between atoms: C_6  and  C_7 
REMARK    4  A    between atoms: C_7  and  N_8 
REMARK    5  A    between atoms: C_11  and  C_12 
REMARK    6  A    between atoms: C_12  and  N_13 
REMARK    7  A    between atoms: N_13  and  C_14 
ROOT
HETATM    1  N   UNL     1       6.924  28.156  56.577  1.00  0.00    -0.067 N 
HETATM    2  H   UNL     1       7.362  28.002  55.647  1.00  0.00     0.280 HD
HETATM    3  C   UNL     1       7.998  28.609  57.535  1.00  0.00     0.241 C 
HETATM    4  C   UNL     1       7.312  29.694  58.357  1.00  0.00     0.031 C 
HETATM    5  C   UNL     1       6.480  30.404  57.293  1.00  0.00     0.035 C 
HETATM    6  C   UNL     1       5.905  29.265  56.462  1.00  0.00     0.235 C 
ENDROOT
BRANCH   1   7
HETATM    7  C   UNL     1       6.314  26.809  56.886  1.00  0.00     0.276 C 
BRANCH   7   8
HETATM    8  C   UNL     1       6.471  25.808  55.777  1.00  0.00     0.005 A 
HETATM    9  C   UNL     1       5.616  25.815  54.671  1.00  0.00     0.107 A 
HETATM   10  C   UNL     1       5.701  24.853  53.653  1.00  0.00     0.103 A 
HETATM   11  C   UNL     1       6.687  23.874  53.729  1.00  0.00     0.058 A 
HETATM   12  C   UNL     1       7.556  23.859  54.824  1.00  0.00     0.014 A 
HETATM   13  C   UNL     1       7.448  24.807  55.846  1.00  0.00     0.030 A 
HETATM   14 BR   UNL     1       8.906  22.539  54.928  1.00  0.00    -0.051 Br
BRANCH   9  15
HETATM   15  O   UNL     1       4.670  26.809  54.579  1.00  0.00    -0.357 OA
HETATM   16  H   UNL     1       3.812  26.324  54.538  1.00  0.00     0.218 HD
ENDBRANCH   9  15
BRANCH  10  17
HETATM   17  O   UNL     1       4.776  24.997  52.653  1.00  0.00    -0.353 OA
HETATM   18  C   UNL     1       5.234  25.608  51.447  1.00  0.00     0.210 C 
ENDBRANCH  10  17
ENDBRANCH   7   8
ENDBRANCH   1   7
BRANCH   4  19
HETATM   19  C   UNL     1       8.308  30.601  59.089  1.00  0.00     0.127 C 
BRANCH  19  20
HETATM   20  N   UNL     1       8.329  30.284  60.520  1.00  0.00    -0.376 N 
HETATM   21  H   UNL     1       9.132  29.734  60.815  1.00  0.00     0.161 HD
BRANCH  20  22
HETATM   22  C   UNL     1       7.855  31.207  61.442  1.00  0.00     0.100 A 
HETATM   23  N   UNL     1       6.603  31.680  61.285  1.00  0.00    -0.353 N 
HETATM   24  H   UNL     1       6.057  31.343  60.499  1.00  0.00     0.166 HD
HETATM   25  C   UNL     1       6.037  32.585  62.099  1.00  0.00     0.089 A 
HETATM   26  C   UNL     1       6.749  33.102  63.168  1.00  0.00     0.017 A 
HETATM   27  C   UNL     1       8.053  32.675  63.365  1.00  0.00     0.005 A 
HETATM   28  C   UNL     1       8.610  31.732  62.500  1.00  0.00     0.048 A 
ENDBRANCH  20  22
ENDBRANCH  19  20
ENDBRANCH   4  19
TORSDOF 7
ENDMDL
MODEL 5
REMARK VINA RESULT:      -7.8      3.721      9.118
REMARK  7 active torsions:
REMARK  status: ('A' for Active; 'I' for Inactive)
REMARK    1  A    between atoms: O_2  and  C_3 
REMARK    2  A    between atoms: C_4  and  O_5 
REMARK    3  A    between atoms: C_6  and  C_7 
REMARK    4  A    between atoms: C_7  and  N_8 
REMARK    5  A    between atoms: C_11  and  C_12 
REMARK    6  A    between atoms: C_12  and  N_13 
REMARK    7  A    between atoms: N_13  and  C_14 
ROOT
HETATM    1  N   UNL     1       7.022  27.501  56.199  1.00  0.00    -0.067 N 
HETATM    2  H   UNL     1       7.857  27.404  56.810  1.00  0.00     0.280 HD
HETATM    3  C   UNL     1       7.195  26.583  55.014  1.00  0.00     0.241 C 
HETATM    4  C   UNL     1       5.803  25.997  54.807  1.00  0.00     0.031 C 
HETATM    5  C   UNL     1       5.343  25.785  56.248  1.00  0.00     0.035 C 
HETATM    6  C   UNL     1       5.800  27.049  56.964  1.00  0.00     0.235 C 
ENDROOT
BRANCH   1   7
HETATM    7  C   UNL     1       7.015  28.976  55.875  1.00  0.00     0.276 C 
BRANCH   7   8
HETATM    8  C   UNL     1       7.053  29.860  57.088  1.00  0.00     0.005 A 
HETATM    9  C   UNL     1       8.001  29.663  58.097  1.00  0.00     0.107 A 
HETATM   10  C   UNL     1       8.019  30.433  59.269  1.00  0.00     0.103 A 
HETATM   11  C   UNL     1       7.079  31.448  59.425  1.00  0.00     0.058 A 
HETATM   12  C   UNL     1       6.130  31.663  58.423  1.00  0.00     0.014 A 
HETATM   13  C   UNL     1       6.104  30.874  57.269  1.00  0.00     0.030 A 
HETATM   14 BR   UNL     1       4.856  33.048  58.622  1.00  0.00    -0.051 Br
BRANCH   9  15
HETATM   15  O   UNL     1       8.955  28.687  57.920  1.00  0.00    -0.357 OA
HETATM   16  H   UNL     1       9.692  29.151  57.458  1.00  0.00     0.218 HD
ENDBRANCH   9  15
BRANCH  10  17
HETATM   17  O   UNL     1       9.004  30.096  60.159  1.00  0.00    -0.353 OA
HETATM   18  C   UNL     1       9.065  30.864  61.361  1.00  0.00     0.210 C 
ENDBRANCH  10  17
ENDBRANCH   7   8
ENDBRANCH   1   7
BRANCH   4  19
HETATM   19  C   UNL     1       5.818  24.723  53.956  1.00  0.00     0.127 C 
BRANCH  19  20
HETATM   20  N   UNL     1       7.194  24.255  53.762  1.00  0.00    -0.376 N 
HETATM   21  H   UNL     1       7.906  24.933  54.017  1.00  0.00     0.161 HD
BRANCH  20  22
HETATM   22  C   UNL     1       7.512  22.924  53.996  1.00  0.00     0.100 A 
HETATM   23  N   UNL     1       7.511  22.481  55.268  1.00  0.00    -0.353 N 
HETATM   24  H   UNL     1       7.278  23.138  56.005  1.00  0.00     0.166 HD
HETATM   25  C   UNL     1       7.815  21.223  55.622  1.00  0.00     0.089 A 
HETATM   26  C   UNL     1       8.172  20.294  54.659  1.00  0.00     0.017 A 
HETATM   27  C   UNL     1       8.219  20.698  53.334  1.00  0.00     0.005 A 
HETATM   28  C   UNL     1       7.896  22.014  53.001  1.00  0.00     0.048 A 
ENDBRANCH  20  22
ENDBRANCH  19  20
ENDBRANCH   4  19
TORSDOF 7
ENDMDL
MODEL 6
REMARK VINA RESULT:      -7.7      6.486     10.320
REMARK  7 active torsions:
REMARK  status: ('A' for Active; 'I' for Inactive)
REMARK    1  A    between atoms: O_2  and  C_3 
REMARK    2  A    between atoms: C_4  and  O_5 
REMARK    3  A    between atoms: C_6  and  C_7 
REMARK    4  A    between atoms: C_7  and  N_8 
REMARK    5  A    between atoms: C_11  and  C_12 
REMARK    6  A    between atoms: C_12  and  N_13 
REMARK    7  A    between atoms: N_13  and  C_14 
ROOT
HETATM    1  N   UNL     1       5.850  26.184  52.118  1.00  0.00    -0.067 N 
HETATM    2  H   UNL     1       5.421  25.809  52.987  1.00  0.00     0.280 HD
HETATM    3  C   UNL     1       5.071  25.655  50.939  1.00  0.00     0.241 C 
HETATM    4  C   UNL     1       4.988  26.850  49.997  1.00  0.00     0.031 C 
HETATM    5  C   UNL     1       4.767  27.999  50.979  1.00  0.00     0.035 C 
HETATM    6  C   UNL     1       5.726  27.690  52.121  1.00  0.00     0.235 C 
ENDROOT
BRANCH   1   7
HETATM    7  C   UNL     1       7.278  25.699  52.214  1.00  0.00     0.276 C 
BRANCH   7   8
HETATM    8  C   UNL     1       7.468  24.578  53.196  1.00  0.00     0.005 A 
HETATM    9  C   UNL     1       7.429  24.810  54.575  1.00  0.00     0.107 A 
HETATM   10  C   UNL     1       7.665  23.794  55.512  1.00  0.00     0.103 A 
HETATM   11  C   UNL     1       7.921  22.503  55.058  1.00  0.00     0.058 A 
HETATM   12  C   UNL     1       7.954  22.252  53.684  1.00  0.00     0.014 A 
HETATM   13  C   UNL     1       7.742  23.277  52.757  1.00  0.00     0.030 A 
HETATM   14 BR   UNL     1       8.288  20.499  53.061  1.00  0.00    -0.051 Br
BRANCH   9  15
HETATM   15  O   UNL     1       7.135  26.079  55.018  1.00  0.00    -0.357 OA
HETATM   16  H   UNL     1       7.963  26.589  54.859  1.00  0.00     0.218 HD
ENDBRANCH   9  15
BRANCH  10  17
HETATM   17  O   UNL     1       7.605  24.198  56.819  1.00  0.00    -0.353 OA
HETATM   18  C   UNL     1       8.851  24.331  57.502  1.00  0.00     0.210 C 
ENDBRANCH  10  17
ENDBRANCH   7   8
ENDBRANCH   1   7
BRANCH   4  19
HETATM   19  C   UNL     1       3.885  26.700  48.944  1.00  0.00     0.127 C 
BRANCH  19  20
HETATM   20  N   UNL     1       2.716  27.506  49.312  1.00  0.00    -0.376 N 
HETATM   21  H   UNL     1       2.880  28.158  50.074  1.00  0.00     0.161 HD
BRANCH  20  22
HETATM   22  C   UNL     1       1.830  27.930  48.331  1.00  0.00     0.100 A 
HETATM   23  N   UNL     1       1.631  29.253  48.179  1.00  0.00    -0.353 N 
HETATM   24  H   UNL     1       2.136  29.888  48.789  1.00  0.00     0.166 HD
HETATM   25  C   UNL     1       0.791  29.786  47.278  1.00  0.00     0.089 A 
HETATM   26  C   UNL     1       0.053  28.963  46.443  1.00  0.00     0.017 A 
HETATM   27  C   UNL     1       0.193  27.590  46.571  1.00  0.00     0.005 A 
HETATM   28  C   UNL     1       1.077  27.072  47.518  1.00  0.00     0.048 A 
ENDBRANCH  20  22
ENDBRANCH  19  20
ENDBRANCH   4  19
TORSDOF 7
ENDMDL
MODEL 7
REMARK VINA RESULT:      -7.5      4.025      9.551
REMARK  7 active torsions:
REMARK  status: ('A' for Active; 'I' for Inactive)
REMARK    1  A    between atoms: O_2  and  C_3 
REMARK    2  A    between atoms: C_4  and  O_5 
REMARK    3  A    between atoms: C_6  and  C_7 
REMARK    4  A    between atoms: C_7  and  N_8 
REMARK    5  A    between atoms: C_11  and  C_12 
REMARK    6  A    between atoms: C_12  and  N_13 
REMARK    7  A    between atoms: N_13  and  C_14 
ROOT
HETATM    1  N   UNL     1       6.655  28.074  57.190  1.00  0.00    -0.067 N 
HETATM    2  H   UNL     1       6.052  28.297  58.006  1.00  0.00     0.280 HD
HETATM    3  C   UNL     1       7.351  26.763  57.462  1.00  0.00     0.241 C 
HETATM    4  C   UNL     1       7.308  26.047  56.117  1.00  0.00     0.031 C 
HETATM    5  C   UNL     1       5.914  26.417  55.618  1.00  0.00     0.035 C 
HETATM    6  C   UNL     1       5.782  27.893  55.970  1.00  0.00     0.235 C 
ENDROOT
BRANCH   1   7
HETATM    7  C   UNL     1       7.562  29.279  57.105  1.00  0.00     0.276 C 
BRANCH   7   8
HETATM    8  C   UNL     1       7.377  30.252  58.233  1.00  0.00     0.005 A 
HETATM    9  C   UNL     1       6.322  31.169  58.231  1.00  0.00     0.107 A 
HETATM   10  C   UNL     1       6.162  32.130  59.240  1.00  0.00     0.103 A 
HETATM   11  C   UNL     1       7.068  32.157  60.297  1.00  0.00     0.058 A 
HETATM   12  C   UNL     1       8.123  31.241  60.319  1.00  0.00     0.014 A 
HETATM   13  C   UNL     1       8.289  30.303  59.296  1.00  0.00     0.030 A 
HETATM   14 BR   UNL     1       9.351  31.263  61.758  1.00  0.00    -0.051 Br
BRANCH   9  15
HETATM   15  O   UNL     1       5.405  31.112  57.207  1.00  0.00    -0.357 OA
HETATM   16  H   UNL     1       4.550  30.914  57.658  1.00  0.00     0.218 HD
ENDBRANCH   9  15
BRANCH  10  17
HETATM   17  O   UNL     1       5.085  32.960  59.074  1.00  0.00    -0.353 OA
HETATM   18  C   UNL     1       3.959  32.717  59.917  1.00  0.00     0.210 C 
ENDBRANCH  10  17
ENDBRANCH   7   8
ENDBRANCH   1   7
BRANCH   4  19
HETATM   19  C   UNL     1       7.555  24.540  56.241  1.00  0.00     0.127 C 
BRANCH  19  20
HETATM   20  N   UNL     1       6.915  23.826  55.131  1.00  0.00    -0.376 N 
HETATM   21  H   UNL     1       6.534  24.431  54.409  1.00  0.00     0.161 HD
BRANCH  20  22
HETATM   22  C   UNL     1       7.434  22.614  54.695  1.00  0.00     0.100 A 
HETATM   23  N   UNL     1       7.712  21.670  55.615  1.00  0.00    -0.353 N 
HETATM   24  H   UNL     1       7.531  21.884  56.591  1.00  0.00     0.166 HD
HETATM   25  C   UNL     1       8.230  20.468  55.322  1.00  0.00     0.089 A 
HETATM   26  C   UNL     1       8.526  20.138  54.010  1.00  0.00     0.017 A 
HETATM   27  C   UNL     1       8.289  21.079  53.020  1.00  0.00     0.005 A 
HETATM   28  C   UNL     1       7.749  22.320  53.361  1.00  0.00     0.048 A 
ENDBRANCH  20  22
ENDBRANCH  19  20
ENDBRANCH   4  19
TORSDOF 7
ENDMDL
MODEL 8
REMARK VINA RESULT:      -7.3      3.760      9.327
REMARK  7 active torsions:
REMARK  status: ('A' for Active; 'I' for Inactive)
REMARK    1  A    between atoms: O_2  and  C_3 
REMARK    2  A    between atoms: C_4  and  O_5 
REMARK    3  A    between atoms: C_6  and  C_7 
REMARK    4  A    between atoms: C_7  and  N_8 
REMARK    5  A    between atoms: C_11  and  C_12 
REMARK    6  A    between atoms: C_12  and  N_13 
REMARK    7  A    between atoms: N_13  and  C_14 
ROOT
HETATM    1  N   UNL     1       6.901  28.443  57.780  1.00  0.00    -0.067 N 
HETATM    2  H   UNL     1       6.704  28.488  58.800  1.00  0.00     0.280 HD
HETATM    3  C   UNL     1       7.947  27.382  57.546  1.00  0.00     0.241 C 
HETATM    4  C   UNL     1       7.473  26.683  56.277  1.00  0.00     0.031 C 
HETATM    5  C   UNL     1       5.962  26.646  56.493  1.00  0.00     0.035 C 
HETATM    6  C   UNL     1       5.643  28.025  57.055  1.00  0.00     0.235 C 
ENDROOT
BRANCH   1   7
HETATM    7  C   UNL     1       7.335  29.855  57.462  1.00  0.00     0.276 C 
BRANCH   7   8
HETATM    8  C   UNL     1       7.010  30.843  58.545  1.00  0.00     0.005 A 
HETATM    9  C   UNL     1       7.641  30.784  59.792  1.00  0.00     0.107 A 
HETATM   10  C   UNL     1       7.310  31.654  60.841  1.00  0.00     0.103 A 
HETATM   11  C   UNL     1       6.341  32.630  60.629  1.00  0.00     0.058 A 
HETATM   12  C   UNL     1       5.708  32.710  59.386  1.00  0.00     0.014 A 
HETATM   13  C   UNL     1       6.026  31.821  58.354  1.00  0.00     0.030 A 
HETATM   14 BR   UNL     1       4.399  34.041  59.086  1.00  0.00    -0.051 Br
BRANCH   9  15
HETATM   15  O   UNL     1       8.627  29.844  59.984  1.00  0.00    -0.357 OA
HETATM   16  H   UNL     1       8.379  29.106  59.378  1.00  0.00     0.218 HD
ENDBRANCH   9  15
BRANCH  10  17
HETATM   17  O   UNL     1       8.013  31.446  61.998  1.00  0.00    -0.353 OA
HETATM   18  C   UNL     1       8.050  32.533  62.923  1.00  0.00     0.210 C 
ENDBRANCH  10  17
ENDBRANCH   7   8
ENDBRANCH   1   7
BRANCH   4  19
HETATM   19  C   UNL     1       8.117  25.306  56.083  1.00  0.00     0.127 C 
BRANCH  19  20
HETATM   20  N   UNL     1       7.085  24.291  55.841  1.00  0.00    -0.376 N 
HETATM   21  H   UNL     1       6.158  24.670  55.672  1.00  0.00     0.161 HD
BRANCH  20  22
HETATM   22  C   UNL     1       7.404  23.132  55.147  1.00  0.00     0.100 A 
HETATM   23  N   UNL     1       7.509  23.199  53.806  1.00  0.00    -0.353 N 
HETATM   24  H   UNL     1       7.350  24.095  53.356  1.00  0.00     0.166 HD
HETATM   25  C   UNL     1       7.796  22.147  53.024  1.00  0.00     0.089 A 
HETATM   26  C   UNL     1       7.989  20.895  53.583  1.00  0.00     0.017 A 
HETATM   27  C   UNL     1       7.866  20.756  54.957  1.00  0.00     0.005 A 
HETATM   28  C   UNL     1       7.568  21.872  55.740  1.00  0.00     0.048 A 
ENDBRANCH  20  22
ENDBRANCH  19  20
ENDBRANCH   4  19
TORSDOF 7
ENDMDL
MODEL 9
REMARK VINA RESULT:      -7.2      4.043      9.167
REMARK  7 active torsions:
REMARK  status: ('A' for Active; 'I' for Inactive)
REMARK    1  A    between atoms: O_2  and  C_3 
REMARK    2  A    between atoms: C_4  and  O_5 
REMARK    3  A    between atoms: C_6  and  C_7 
REMARK    4  A    between atoms: C_7  and  N_8 
REMARK    5  A    between atoms: C_11  and  C_12 
REMARK    6  A    between atoms: C_12  and  N_13 
REMARK    7  A    between atoms: N_13  and  C_14 
ROOT
HETATM    1  N   UNL     1       7.572  29.586  57.286  1.00  0.00    -0.067 N 
HETATM    2  H   UNL     1       6.724  30.170  57.140  1.00  0.00     0.280 HD
HETATM    3  C   UNL     1       7.146  28.285  57.920  1.00  0.00     0.241 C 
HETATM    4  C   UNL     1       8.004  27.243  57.212  1.00  0.00     0.031 C 
HETATM    5  C   UNL     1       8.002  27.768  55.778  1.00  0.00     0.035 C 
HETATM    6  C   UNL     1       8.187  29.270  55.942  1.00  0.00     0.235 C 
ENDROOT
BRANCH   1   7
HETATM    7  C   UNL     1       8.440  30.469  58.151  1.00  0.00     0.276 C 
BRANCH   7   8
HETATM    8  C   UNL     1       7.669  31.268  59.162  1.00  0.00     0.005 A 
HETATM    9  C   UNL     1       6.528  31.988  58.796  1.00  0.00     0.107 A 
HETATM   10  C   UNL     1       5.825  32.792  59.706  1.00  0.00     0.103 A 
HETATM   11  C   UNL     1       6.260  32.855  61.027  1.00  0.00     0.058 A 
HETATM   12  C   UNL     1       7.393  32.133  61.411  1.00  0.00     0.014 A 
HETATM   13  C   UNL     1       8.102  31.355  60.491  1.00  0.00     0.030 A 
HETATM   14 BR   UNL     1       7.983  32.204  63.207  1.00  0.00    -0.051 Br
BRANCH   9  15
HETATM   15  O   UNL     1       6.077  31.890  57.500  1.00  0.00    -0.357 OA
HETATM   16  H   UNL     1       6.681  31.229  57.084  1.00  0.00     0.218 HD
ENDBRANCH   9  15
BRANCH  10  17
HETATM   17  O   UNL     1       4.741  33.441  59.177  1.00  0.00    -0.353 OA
HETATM   18  C   UNL     1       3.462  33.051  59.674  1.00  0.00     0.210 C 
ENDBRANCH  10  17
ENDBRANCH   7   8
ENDBRANCH   1   7
BRANCH   4  19
HETATM   19  C   UNL     1       7.452  25.820  57.363  1.00  0.00     0.127 C 
BRANCH  19  20
HETATM   20  N   UNL     1       8.460  24.837  56.952  1.00  0.00    -0.376 N 
HETATM   21  H   UNL     1       8.918  24.360  57.724  1.00  0.00     0.161 HD
BRANCH  20  22
HETATM   22  C   UNL     1       8.265  24.084  55.803  1.00  0.00     0.100 A 
HETATM   23  N   UNL     1       9.127  23.082  55.541  1.00  0.00    -0.353 N 
HETATM   24  H   UNL     1       9.886  22.919  56.195  1.00  0.00     0.166 HD
HETATM   25  C   UNL     1       9.054  22.294  54.457  1.00  0.00     0.089 A 
HETATM   26  C   UNL     1       8.057  22.495  53.517  1.00  0.00     0.017 A 
HETATM   27  C   UNL     1       7.156  23.529  53.716  1.00  0.00     0.005 A 
HETATM   28  C   UNL     1       7.262  24.328  54.855  1.00  0.00     0.048 A 
ENDBRANCH  20  22
ENDBRANCH  19  20
ENDBRANCH   4  19
TORSDOF 7
ENDMDL
MODEL 10
REMARK VINA RESULT:      -7.2      2.998      4.885
REMARK  7 active torsions:
REMARK  status: ('A' for Active; 'I' for Inactive)
REMARK    1  A    between atoms: O_2  and  C_3 
REMARK    2  A    between atoms: C_4  and  O_5 
REMARK    3  A    between atoms: C_6  and  C_7 
REMARK    4  A    between atoms: C_7  and  N_8 
REMARK    5  A    between atoms: C_11  and  C_12 
REMARK    6  A    between atoms: C_12  and  N_13 
REMARK    7  A    between atoms: N_13  and  C_14 
ROOT
HETATM    1  N   UNL     1       7.725  30.829  60.385  1.00  0.00    -0.067 N 
HETATM    2  H   UNL     1       7.302  29.884  60.286  1.00  0.00     0.280 HD
HETATM    3  C   UNL     1       7.099  31.504  61.579  1.00  0.00     0.241 C 
HETATM    4  C   UNL     1       8.271  32.215  62.246  1.00  0.00     0.031 C 
HETATM    5  C   UNL     1       9.387  31.186  62.081  1.00  0.00     0.035 C 
HETATM    6  C   UNL     1       9.204  30.678  60.657  1.00  0.00     0.235 C 
ENDROOT
BRANCH   1   7
HETATM    7  C   UNL     1       7.422  31.470  59.051  1.00  0.00     0.276 C 
BRANCH   7   8
HETATM    8  C   UNL     1       6.524  30.644  58.175  1.00  0.00     0.005 A 
HETATM    9  C   UNL     1       6.848  29.323  57.849  1.00  0.00     0.107 A 
HETATM   10  C   UNL     1       6.060  28.551  56.984  1.00  0.00     0.103 A 
HETATM   11  C   UNL     1       4.900  29.105  56.451  1.00  0.00     0.058 A 
HETATM   12  C   UNL     1       4.556  30.420  56.775  1.00  0.00     0.014 A 
HETATM   13  C   UNL     1       5.362  31.191  57.619  1.00  0.00     0.030 A 
HETATM   14 BR   UNL     1       2.975  31.176  56.065  1.00  0.00    -0.051 Br
BRANCH   9  15
HETATM   15  O   UNL     1       7.974  28.766  58.411  1.00  0.00    -0.357 OA
HETATM   16  H   UNL     1       7.861  28.916  59.379  1.00  0.00     0.218 HD
ENDBRANCH   9  15
BRANCH  10  17
HETATM   17  O   UNL     1       6.532  27.284  56.759  1.00  0.00    -0.353 OA
HETATM   18  C   UNL     1       7.155  27.053  55.496  1.00  0.00     0.210 C 
ENDBRANCH  10  17
ENDBRANCH   7   8
ENDBRANCH   1   7
BRANCH   4  19
HETATM   19  C   UNL     1       7.980  32.601  63.700  1.00  0.00     0.127 C 
BRANCH  19  20
HETATM   20  N   UNL     1       6.875  33.564  63.761  1.00  0.00    -0.376 N 
HETATM   21  H   UNL     1       6.276  33.565  62.941  1.00  0.00     0.161 HD
BRANCH  20  22
HETATM   22  C   UNL     1       6.247  33.823  64.971  1.00  0.00     0.100 A 
HETATM   23  N   UNL     1       7.016  34.066  66.051  1.00  0.00    -0.353 N 
HETATM   24  H   UNL     1       8.025  34.049  65.935  1.00  0.00     0.166 HD
HETATM   25  C   UNL     1       6.530  34.315  67.276  1.00  0.00     0.089 A 
HETATM   26  C   UNL     1       5.162  34.317  67.495  1.00  0.00     0.017 A 
HETATM   27  C   UNL     1       4.319  34.046  66.429  1.00  0.00     0.005 A 
HETATM   28  C   UNL     1       4.860  33.793  65.168  1.00  0.00     0.048 A 
ENDBRANCH  20  22
ENDBRANCH  19  20
ENDBRANCH   4  19
TORSDOF 7
ENDMDL
