MODEL 1
REMARK VINA RESULT:      -7.7      0.000      0.000
REMARK  7 active torsions:
REMARK  status: ('A' for Active; 'I' for Inactive)
REMARK    1  A    between atoms: C_2  and  O_3 
REMARK    2  A    between atoms: O_3  and  C_4 
REMARK    3  A    between atoms: C_4  and  C_5 
REMARK    4  A    between atoms: C_12  and  C_13 
REMARK    5  A    between atoms: C_13  and  N_14 
REMARK    6  A    between atoms: C_19  and  N_20 
REMARK    7  A    between atoms: N_23  and  C_25 
ROOT
HETATM    1  C   UNL     1       3.579  31.909  55.634  1.00  0.00     0.089 C 
HETATM    2  S   UNL     1       4.462  32.181  57.073  1.00  0.00    -0.063 SA
HETATM    3  C   UNL     1       5.546  30.924  56.733  1.00  0.00     0.115 C 
HETATM    4  C   UNL     1       5.229  30.220  55.585  1.00  0.00     0.053 C 
HETATM    5  C   UNL     1       4.191  30.931  54.847  1.00  0.00    -0.022 C 
HETATM    6  C   UNL     1       3.790  30.651  53.426  1.00  0.00     0.051 C 
HETATM    7  N   UNL     1       6.574  30.694  57.563  1.00  0.00    -0.224 NA
HETATM    8  C   UNL     1       7.321  29.649  57.192  1.00  0.00     0.155 C 
HETATM    9  N   UNL     1       7.052  28.800  56.177  1.00  0.00    -0.213 NA
HETATM   10  C   UNL     1       5.992  29.040  55.353  1.00  0.00     0.141 C 
ENDROOT
BRANCH  10  11
HETATM   11  N   UNL     1       5.722  28.133  54.330  1.00  0.00    -0.362 N 
HETATM   12  C   UNL     1       4.994  26.903  54.701  1.00  0.00     0.152 C 
HETATM   13  C   UNL     1       5.941  25.722  54.985  1.00  0.00     0.255 C 
HETATM   14  N   UNL     1       6.900  25.496  53.814  1.00  0.00    -0.064 N 
HETATM   15  H   UNL     1       6.321  25.328  52.979  1.00  0.00     0.280 HD
HETATM   16  C   UNL     1       7.691  26.789  53.559  1.00  0.00     0.255 C 
HETATM   17  C   UNL     1       6.731  27.963  53.271  1.00  0.00     0.152 C 
BRANCH  14  18
HETATM   18  C   UNL     1       7.776  24.278  54.007  1.00  0.00     0.188 C 
HETATM   19  C   UNL     1       7.191  23.318  55.040  1.00  0.00     0.033 C 
HETATM   20  C   UNL     1       7.918  22.015  54.753  1.00  0.00     0.002 C 
HETATM   21  C   UNL     1       8.140  22.000  53.243  1.00  0.00     0.002 C 
HETATM   22  C   UNL     1       7.831  23.414  52.749  1.00  0.00     0.033 C 
ENDBRANCH  14  18
ENDBRANCH  10  11
BRANCH   8  23
HETATM   23  C   UNL     1       8.626  29.481  57.963  1.00  0.00     0.314 C 
BRANCH  23  24
HETATM   24  N   UNL     1       9.749  30.413  57.498  1.00  0.00    -0.072 N 
HETATM   25  H   UNL     1       9.354  30.890  56.669  1.00  0.00     0.279 HD
HETATM   26  C   UNL     1      10.052  31.501  58.485  1.00  0.00     0.269 C 
HETATM   27  C   UNL     1      10.978  29.684  57.055  1.00  0.00     0.269 C 
ENDBRANCH  23  24
ENDBRANCH   8  23
BRANCH   1  28
HETATM   28  C   UNL     1       2.361  32.657  55.327  1.00  0.00     0.300 C 
HETATM   29  O   UNL     1       1.231  32.268  55.593  1.00  0.00    -0.259 OA
BRANCH  28  30
HETATM   30  O   UNL     1       2.648  33.881  54.800  1.00  0.00    -0.317 OA
BRANCH  30  31
HETATM   31  C   UNL     1       2.259  34.082  53.431  1.00  0.00     0.174 C 
HETATM   32  C   UNL     1       3.474  34.448  52.599  1.00  0.00     0.034 C 
ENDBRANCH  30  31
ENDBRANCH  28  30
ENDBRANCH   1  28
TORSDOF 7
ENDMDL
MODEL 2
REMARK VINA RESULT:      -7.6      3.389      6.623
REMARK  7 active torsions:
REMARK  status: ('A' for Active; 'I' for Inactive)
REMARK    1  A    between atoms: C_2  and  O_3 
REMARK    2  A    between atoms: O_3  and  C_4 
REMARK    3  A    between atoms: C_4  and  C_5 
REMARK    4  A    between atoms: C_12  and  C_13 
REMARK    5  A    between atoms: C_13  and  N_14 
REMARK    6  A    between atoms: C_19  and  N_20 
REMARK    7  A    between atoms: N_23  and  C_25 
ROOT
HETATM    1  C   UNL     1       4.373  27.722  51.021  1.00  0.00     0.089 C 
HETATM    2  S   UNL     1       5.184  26.278  50.594  1.00  0.00    -0.063 SA
HETATM    3  C   UNL     1       5.556  25.923  52.207  1.00  0.00     0.115 C 
HETATM    4  C   UNL     1       5.160  26.908  53.094  1.00  0.00     0.053 C 
HETATM    5  C   UNL     1       4.295  27.861  52.409  1.00  0.00    -0.022 C 
HETATM    6  C   UNL     1       3.436  28.894  53.082  1.00  0.00     0.051 C 
HETATM    7  N   UNL     1       6.192  24.779  52.502  1.00  0.00    -0.224 NA
HETATM    8  C   UNL     1       6.457  24.651  53.807  1.00  0.00     0.155 C 
HETATM    9  N   UNL     1       6.247  25.587  54.757  1.00  0.00    -0.213 NA
HETATM   10  C   UNL     1       5.613  26.751  54.435  1.00  0.00     0.141 C 
ENDROOT
BRANCH  10  11
HETATM   11  N   UNL     1       5.434  27.712  55.428  1.00  0.00    -0.362 N 
HETATM   12  C   UNL     1       5.927  29.074  55.140  1.00  0.00     0.152 C 
HETATM   13  C   UNL     1       7.346  29.314  55.691  1.00  0.00     0.255 C 
HETATM   14  N   UNL     1       7.418  28.977  57.181  1.00  0.00    -0.064 N 
HETATM   15  H   UNL     1       6.718  29.565  57.658  1.00  0.00     0.280 HD
HETATM   16  C   UNL     1       6.988  27.515  57.384  1.00  0.00     0.255 C 
HETATM   17  C   UNL     1       5.564  27.288  56.832  1.00  0.00     0.152 C 
BRANCH  14  18
HETATM   18  C   UNL     1       8.765  29.301  57.786  1.00  0.00     0.188 C 
HETATM   19  C   UNL     1       9.870  29.314  56.732  1.00  0.00     0.033 C 
HETATM   20  C   UNL     1      10.988  30.087  57.412  1.00  0.00     0.002 C 
HETATM   21  C   UNL     1      10.289  31.128  58.281  1.00  0.00     0.002 C 
HETATM   22  C   UNL     1       8.814  30.726  58.332  1.00  0.00     0.033 C 
ENDBRANCH  14  18
ENDBRANCH  10  11
BRANCH   8  23
HETATM   23  C   UNL     1       6.970  23.278  54.231  1.00  0.00     0.314 C 
BRANCH  23  24
HETATM   24  N   UNL     1       8.493  23.202  54.380  1.00  0.00    -0.072 N 
HETATM   25  H   UNL     1       8.841  24.016  53.845  1.00  0.00     0.279 HD
HETATM   26  C   UNL     1       8.953  23.418  55.791  1.00  0.00     0.269 C 
HETATM   27  C   UNL     1       9.087  21.972  53.767  1.00  0.00     0.269 C 
ENDBRANCH  23  24
ENDBRANCH   8  23
BRANCH   1  28
HETATM   28  C   UNL     1       3.841  28.632  50.009  1.00  0.00     0.300 C 
HETATM   29  O   UNL     1       4.098  29.829  49.958  1.00  0.00    -0.259 OA
BRANCH  28  30
HETATM   30  O   UNL     1       3.105  27.966  49.076  1.00  0.00    -0.317 OA
BRANCH  30  31
HETATM   31  C   UNL     1       1.682  28.157  49.143  1.00  0.00     0.174 C 
HETATM   32  C   UNL     1       1.009  27.425  47.996  1.00  0.00     0.034 C 
ENDBRANCH  30  31
ENDBRANCH  28  30
ENDBRANCH   1  28
TORSDOF 7
ENDMDL
MODEL 3
REMARK VINA RESULT:      -7.5      4.314      8.801
REMARK  7 active torsions:
REMARK  status: ('A' for Active; 'I' for Inactive)
REMARK    1  A    between atoms: C_2  and  O_3 
REMARK    2  A    between atoms: O_3  and  C_4 
REMARK    3  A    between atoms: C_4  and  C_5 
REMARK    4  A    between atoms: C_12  and  C_13 
REMARK    5  A    between atoms: C_13  and  N_14 
REMARK    6  A    between atoms: C_19  and  N_20 
REMARK    7  A    between atoms: N_23  and  C_25 
ROOT
HETATM    1  C   UNL     1       7.915  23.530  53.982  1.00  0.00     0.089 C 
HETATM    2  S   UNL     1       7.306  24.145  52.507  1.00  0.00    -0.063 SA
HETATM    3  C   UNL     1       6.915  25.637  53.206  1.00  0.00     0.115 C 
HETATM    4  C   UNL     1       7.151  25.687  54.568  1.00  0.00     0.053 C 
HETATM    5  C   UNL     1       7.920  24.515  54.972  1.00  0.00    -0.022 C 
HETATM    6  C   UNL     1       8.619  24.348  56.292  1.00  0.00     0.051 C 
HETATM    7  N   UNL     1       6.412  26.615  52.438  1.00  0.00    -0.224 NA
HETATM    8  C   UNL     1       6.113  27.720  53.129  1.00  0.00     0.155 C 
HETATM    9  N   UNL     1       6.168  27.858  54.471  1.00  0.00    -0.213 NA
HETATM   10  C   UNL     1       6.668  26.846  55.238  1.00  0.00     0.141 C 
ENDROOT
BRANCH  10  11
HETATM   11  N   UNL     1       6.688  27.004  56.622  1.00  0.00    -0.362 N 
HETATM   12  C   UNL     1       5.644  27.865  57.214  1.00  0.00     0.152 C 
HETATM   13  C   UNL     1       6.123  29.314  57.419  1.00  0.00     0.255 C 
HETATM   14  N   UNL     1       7.425  29.351  58.222  1.00  0.00    -0.064 N 
HETATM   15  H   UNL     1       7.240  28.879  59.119  1.00  0.00     0.280 HD
HETATM   16  C   UNL     1       8.488  28.518  57.488  1.00  0.00     0.255 C 
HETATM   17  C   UNL     1       7.998  27.067  57.292  1.00  0.00     0.152 C 
BRANCH  14  18
HETATM   18  C   UNL     1       7.874  30.760  58.538  1.00  0.00     0.188 C 
HETATM   19  C   UNL     1       7.568  31.139  59.985  1.00  0.00     0.033 C 
HETATM   20  C   UNL     1       8.474  32.336  60.228  1.00  0.00     0.002 C 
HETATM   21  C   UNL     1       9.731  32.064  59.407  1.00  0.00     0.002 C 
HETATM   22  C   UNL     1       9.393  30.899  58.475  1.00  0.00     0.033 C 
ENDBRANCH  14  18
ENDBRANCH  10  11
BRANCH   8  23
HETATM   23  C   UNL     1       5.755  28.936  52.281  1.00  0.00     0.314 C 
BRANCH  23  24
HETATM   24  N   UNL     1       4.269  29.026  51.917  1.00  0.00    -0.072 N 
HETATM   25  H   UNL     1       3.803  28.411  52.605  1.00  0.00     0.279 HD
HETATM   26  C   UNL     1       3.695  30.393  52.140  1.00  0.00     0.269 C 
HETATM   27  C   UNL     1       3.961  28.492  50.553  1.00  0.00     0.269 C 
ENDBRANCH  23  24
ENDBRANCH   8  23
BRANCH   1  28
HETATM   28  C   UNL     1       8.372  22.147  54.107  1.00  0.00     0.300 C 
HETATM   29  O   UNL     1       9.444  21.736  53.681  1.00  0.00    -0.259 OA
BRANCH  28  30
HETATM   30  O   UNL     1       7.502  21.399  54.842  1.00  0.00    -0.317 OA
BRANCH  30  31
HETATM   31  C   UNL     1       8.082  20.328  55.606  1.00  0.00     0.174 C 
HETATM   32  C   UNL     1       8.439  20.820  56.996  1.00  0.00     0.034 C 
ENDBRANCH  30  31
ENDBRANCH  28  30
ENDBRANCH   1  28
TORSDOF 7
ENDMDL
MODEL 4
REMARK VINA RESULT:      -7.3      2.734      5.258
REMARK  7 active torsions:
REMARK  status: ('A' for Active; 'I' for Inactive)
REMARK    1  A    between atoms: C_2  and  O_3 
REMARK    2  A    between atoms: O_3  and  C_4 
REMARK    3  A    between atoms: C_4  and  C_5 
REMARK    4  A    between atoms: C_12  and  C_13 
REMARK    5  A    between atoms: C_13  and  N_14 
REMARK    6  A    between atoms: C_19  and  N_20 
REMARK    7  A    between atoms: N_23  and  C_25 
ROOT
HETATM    1  C   UNL     1       3.441  30.739  54.208  1.00  0.00     0.089 C 
HETATM    2  S   UNL     1       3.154  30.774  52.522  1.00  0.00    -0.063 SA
HETATM    3  C   UNL     1       3.991  29.323  52.274  1.00  0.00     0.115 C 
HETATM    4  C   UNL     1       4.574  28.820  53.424  1.00  0.00     0.053 C 
HETATM    5  C   UNL     1       4.079  29.554  54.583  1.00  0.00    -0.022 C 
HETATM    6  C   UNL     1       4.242  29.128  56.014  1.00  0.00     0.051 C 
HETATM    7  N   UNL     1       4.047  28.794  51.043  1.00  0.00    -0.224 NA
HETATM    8  C   UNL     1       4.773  27.672  50.990  1.00  0.00     0.155 C 
HETATM    9  N   UNL     1       5.500  27.146  51.998  1.00  0.00    -0.213 NA
HETATM   10  C   UNL     1       5.444  27.708  53.240  1.00  0.00     0.141 C 
ENDROOT
BRANCH  10  11
HETATM   11  N   UNL     1       6.226  27.162  54.257  1.00  0.00    -0.362 N 
HETATM   12  C   UNL     1       7.605  26.771  53.904  1.00  0.00     0.152 C 
HETATM   13  C   UNL     1       7.717  25.280  53.532  1.00  0.00     0.255 C 
HETATM   14  N   UNL     1       7.129  24.396  54.634  1.00  0.00    -0.064 N 
HETATM   15  H   UNL     1       7.642  24.613  55.501  1.00  0.00     0.280 HD
HETATM   16  C   UNL     1       5.663  24.798  54.869  1.00  0.00     0.255 C 
HETATM   17  C   UNL     1       5.565  26.292  55.245  1.00  0.00     0.152 C 
BRANCH  14  18
HETATM   18  C   UNL     1       7.315  22.921  54.358  1.00  0.00     0.188 C 
HETATM   19  C   UNL     1       8.070  22.681  53.053  1.00  0.00     0.033 C 
HETATM   20  C   UNL     1       8.552  21.246  53.190  1.00  0.00     0.002 C 
HETATM   21  C   UNL     1       8.842  21.058  54.676  1.00  0.00     0.002 C 
HETATM   22  C   UNL     1       8.225  22.261  55.391  1.00  0.00     0.033 C 
ENDBRANCH  14  18
ENDBRANCH  10  11
BRANCH   8  23
HETATM   23  C   UNL     1       4.684  26.906  49.673  1.00  0.00     0.314 C 
BRANCH  23  24
HETATM   24  N   UNL     1       4.152  27.740  48.503  1.00  0.00    -0.072 N 
HETATM   25  H   UNL     1       3.852  28.628  48.941  1.00  0.00     0.279 HD
HETATM   26  C   UNL     1       5.221  28.113  47.519  1.00  0.00     0.269 C 
HETATM   27  C   UNL     1       2.953  27.135  47.843  1.00  0.00     0.269 C 
ENDBRANCH  23  24
ENDBRANCH   8  23
BRANCH   1  28
HETATM   28  C   UNL     1       3.026  31.835  55.081  1.00  0.00     0.300 C 
HETATM   29  O   UNL     1       1.920  31.919  55.599  1.00  0.00    -0.259 OA
BRANCH  28  30
HETATM   30  O   UNL     1       4.054  32.696  55.323  1.00  0.00    -0.317 OA
BRANCH  30  31
HETATM   31  C   UNL     1       4.133  33.222  56.658  1.00  0.00     0.174 C 
HETATM   32  C   UNL     1       5.241  32.522  57.424  1.00  0.00     0.034 C 
ENDBRANCH  30  31
ENDBRANCH  28  30
ENDBRANCH   1  28
TORSDOF 7
ENDMDL
MODEL 5
REMARK VINA RESULT:      -7.3      5.154      7.455
REMARK  7 active torsions:
REMARK  status: ('A' for Active; 'I' for Inactive)
REMARK    1  A    between atoms: C_2  and  O_3 
REMARK    2  A    between atoms: O_3  and  C_4 
REMARK    3  A    between atoms: C_4  and  C_5 
REMARK    4  A    between atoms: C_12  and  C_13 
REMARK    5  A    between atoms: C_13  and  N_14 
REMARK    6  A    between atoms: C_19  and  N_20 
REMARK    7  A    between atoms: N_23  and  C_25 
ROOT
HETATM    1  C   UNL     1       5.917  33.455  63.289  1.00  0.00     0.089 C 
HETATM    2  S   UNL     1       7.439  32.675  63.249  1.00  0.00    -0.063 SA
HETATM    3  C   UNL     1       7.389  32.503  61.565  1.00  0.00     0.115 C 
HETATM    4  C   UNL     1       6.206  32.946  61.001  1.00  0.00     0.053 C 
HETATM    5  C   UNL     1       5.435  33.680  61.998  1.00  0.00    -0.022 C 
HETATM    6  C   UNL     1       4.250  34.556  61.706  1.00  0.00     0.051 C 
HETATM    7  N   UNL     1       8.436  31.962  60.925  1.00  0.00    -0.224 NA
HETATM    8  C   UNL     1       8.240  31.851  59.606  1.00  0.00     0.155 C 
HETATM    9  N   UNL     1       7.093  32.118  58.947  1.00  0.00    -0.213 NA
HETATM   10  C   UNL     1       6.033  32.653  59.618  1.00  0.00     0.141 C 
ENDROOT
BRANCH  10  11
HETATM   11  N   UNL     1       4.851  32.895  58.919  1.00  0.00    -0.362 N 
HETATM   12  C   UNL     1       3.724  31.975  59.173  1.00  0.00     0.152 C 
HETATM   13  C   UNL     1       3.656  30.830  58.144  1.00  0.00     0.255 C 
HETATM   14  N   UNL     1       3.645  31.379  56.716  1.00  0.00    -0.064 N 
HETATM   15  H   UNL     1       2.833  32.008  56.641  1.00  0.00     0.280 HD
HETATM   16  C   UNL     1       4.901  32.239  56.501  1.00  0.00     0.255 C 
HETATM   17  C   UNL     1       4.955  33.385  57.535  1.00  0.00     0.152 C 
BRANCH  14  18
HETATM   18  C   UNL     1       3.471  30.293  55.677  1.00  0.00     0.188 C 
HETATM   19  C   UNL     1       4.156  30.654  54.362  1.00  0.00     0.033 C 
HETATM   20  C   UNL     1       4.275  29.315  53.654  1.00  0.00     0.002 C 
HETATM   21  C   UNL     1       4.499  28.291  54.763  1.00  0.00     0.002 C 
HETATM   22  C   UNL     1       4.186  29.005  56.078  1.00  0.00     0.033 C 
ENDBRANCH  14  18
ENDBRANCH  10  11
BRANCH   8  23
HETATM   23  C   UNL     1       9.475  31.457  58.801  1.00  0.00     0.314 C 
BRANCH  23  24
HETATM   24  N   UNL     1       9.195  30.441  57.689  1.00  0.00    -0.072 N 
HETATM   25  H   UNL     1       8.592  30.954  57.023  1.00  0.00     0.279 HD
HETATM   26  C   UNL     1      10.425  30.066  56.917  1.00  0.00     0.269 C 
HETATM   27  C   UNL     1       8.430  29.244  58.161  1.00  0.00     0.269 C 
ENDBRANCH  23  24
ENDBRANCH   8  23
BRANCH   1  28
HETATM   28  C   UNL     1       5.277  33.825  64.550  1.00  0.00     0.300 C 
HETATM   29  O   UNL     1       4.556  33.078  65.200  1.00  0.00    -0.259 OA
BRANCH  28  30
HETATM   30  O   UNL     1       5.661  35.067  64.959  1.00  0.00    -0.317 OA
BRANCH  30  31
HETATM   31  C   UNL     1       4.600  36.003  65.207  1.00  0.00     0.174 C 
HETATM   32  C   UNL     1       4.412  36.186  66.702  1.00  0.00     0.034 C 
ENDBRANCH  30  31
ENDBRANCH  28  30
ENDBRANCH   1  28
TORSDOF 7
ENDMDL
MODEL 6
REMARK VINA RESULT:      -7.2      5.830     10.120
REMARK  7 active torsions:
REMARK  status: ('A' for Active; 'I' for Inactive)
REMARK    1  A    between atoms: C_2  and  O_3 
REMARK    2  A    between atoms: O_3  and  C_4 
REMARK    3  A    between atoms: C_4  and  C_5 
REMARK    4  A    between atoms: C_12  and  C_13 
REMARK    5  A    between atoms: C_13  and  N_14 
REMARK    6  A    between atoms: C_19  and  N_20 
REMARK    7  A    between atoms: N_23  and  C_25 
ROOT
HETATM    1  C   UNL     1       7.324  29.839  57.803  1.00  0.00     0.089 C 
HETATM    2  S   UNL     1       5.965  30.344  56.895  1.00  0.00    -0.063 SA
HETATM    3  C   UNL     1       5.627  31.611  57.968  1.00  0.00     0.115 C 
HETATM    4  C   UNL     1       6.465  31.639  59.068  1.00  0.00     0.053 C 
HETATM    5  C   UNL     1       7.575  30.718  58.859  1.00  0.00    -0.022 C 
HETATM    6  C   UNL     1       8.835  30.676  59.678  1.00  0.00     0.051 C 
HETATM    7  N   UNL     1       4.613  32.448  57.703  1.00  0.00    -0.224 NA
HETATM    8  C   UNL     1       4.438  33.372  58.654  1.00  0.00     0.155 C 
HETATM    9  N   UNL     1       5.092  33.434  59.833  1.00  0.00    -0.213 NA
HETATM   10  C   UNL     1       6.110  32.563  60.092  1.00  0.00     0.141 C 
ENDROOT
BRANCH  10  11
HETATM   11  N   UNL     1       6.750  32.631  61.328  1.00  0.00    -0.362 N 
HETATM   12  C   UNL     1       6.449  31.558  62.297  1.00  0.00     0.152 C 
HETATM   13  C   UNL     1       5.329  31.950  63.280  1.00  0.00     0.255 C 
HETATM   14  N   UNL     1       5.646  33.279  63.968  1.00  0.00    -0.064 N 
HETATM   15  H   UNL     1       6.550  33.163  64.447  1.00  0.00     0.280 HD
HETATM   16  C   UNL     1       5.843  34.363  62.895  1.00  0.00     0.255 C 
HETATM   17  C   UNL     1       6.970  33.961  61.920  1.00  0.00     0.152 C 
BRANCH  14  18
HETATM   18  C   UNL     1       4.623  33.648  65.019  1.00  0.00     0.188 C 
HETATM   19  C   UNL     1       5.277  33.928  66.370  1.00  0.00     0.033 C 
HETATM   20  C   UNL     1       4.206  34.704  67.119  1.00  0.00     0.002 C 
HETATM   21  C   UNL     1       3.487  35.529  66.056  1.00  0.00     0.002 C 
HETATM   22  C   UNL     1       3.938  34.976  64.703  1.00  0.00     0.033 C 
ENDBRANCH  14  18
ENDBRANCH  10  11
BRANCH   8  23
HETATM   23  C   UNL     1       3.454  34.484  58.301  1.00  0.00     0.314 C 
BRANCH  23  24
HETATM   24  N   UNL     1       3.147  35.435  59.462  1.00  0.00    -0.072 N 
HETATM   25  H   UNL     1       3.503  34.938  60.297  1.00  0.00     0.279 HD
HETATM   26  C   UNL     1       3.926  36.715  59.389  1.00  0.00     0.269 C 
HETATM   27  C   UNL     1       1.683  35.668  59.665  1.00  0.00     0.269 C 
ENDBRANCH  23  24
ENDBRANCH   8  23
BRANCH   1  28
HETATM   28  C   UNL     1       8.085  28.643  57.446  1.00  0.00     0.300 C 
HETATM   29  O   UNL     1       8.105  27.617  58.114  1.00  0.00    -0.259 OA
BRANCH  28  30
HETATM   30  O   UNL     1       8.687  28.780  56.231  1.00  0.00    -0.317 OA
BRANCH  30  31
HETATM   31  C   UNL     1       9.699  29.796  56.142  1.00  0.00     0.174 C 
HETATM   32  C   UNL     1      10.934  29.364  56.911  1.00  0.00     0.034 C 
ENDBRANCH  30  31
ENDBRANCH  28  30
ENDBRANCH   1  28
TORSDOF 7
ENDMDL
MODEL 7
REMARK VINA RESULT:      -7.1      3.657      4.639
REMARK  7 active torsions:
REMARK  status: ('A' for Active; 'I' for Inactive)
REMARK    1  A    between atoms: C_2  and  O_3 
REMARK    2  A    between atoms: O_3  and  C_4 
REMARK    3  A    between atoms: C_4  and  C_5 
REMARK    4  A    between atoms: C_12  and  C_13 
REMARK    5  A    between atoms: C_13  and  N_14 
REMARK    6  A    between atoms: C_19  and  N_20 
REMARK    7  A    between atoms: N_23  and  C_25 
ROOT
HETATM    1  C   UNL     1       3.012  29.268  49.966  1.00  0.00     0.089 C 
HETATM    2  S   UNL     1       2.928  30.383  51.261  1.00  0.00    -0.063 SA
HETATM    3  C   UNL     1       3.923  29.429  52.245  1.00  0.00     0.115 C 
HETATM    4  C   UNL     1       4.274  28.222  51.667  1.00  0.00     0.053 C 
HETATM    5  C   UNL     1       3.897  28.227  50.259  1.00  0.00    -0.022 C 
HETATM    6  C   UNL     1       4.364  27.235  49.231  1.00  0.00     0.051 C 
HETATM    7  N   UNL     1       4.272  29.874  53.461  1.00  0.00    -0.224 NA
HETATM    8  C   UNL     1       5.023  29.000  54.140  1.00  0.00     0.155 C 
HETATM    9  N   UNL     1       5.328  27.744  53.753  1.00  0.00    -0.213 NA
HETATM   10  C   UNL     1       4.950  27.303  52.519  1.00  0.00     0.141 C 
ENDROOT
BRANCH  10  11
HETATM   11  N   UNL     1       5.253  25.992  52.155  1.00  0.00    -0.362 N 
HETATM   12  C   UNL     1       4.741  24.918  53.032  1.00  0.00     0.152 C 
HETATM   13  C   UNL     1       5.779  24.469  54.078  1.00  0.00     0.255 C 
HETATM   14  N   UNL     1       7.101  24.088  53.409  1.00  0.00    -0.064 N 
HETATM   15  H   UNL     1       6.892  23.339  52.733  1.00  0.00     0.280 HD
HETATM   16  C   UNL     1       7.617  25.290  52.602  1.00  0.00     0.255 C 
HETATM   17  C   UNL     1       6.571  25.728  51.554  1.00  0.00     0.152 C 
BRANCH  14  18
HETATM   18  C   UNL     1       8.112  23.539  54.390  1.00  0.00     0.188 C 
HETATM   19  C   UNL     1       7.458  23.130  55.707  1.00  0.00     0.033 C 
HETATM   20  C   UNL     1       8.492  22.212  56.338  1.00  0.00     0.002 C 
HETATM   21  C   UNL     1       9.153  21.486  55.170  1.00  0.00     0.002 C 
HETATM   22  C   UNL     1       8.719  22.225  53.903  1.00  0.00     0.033 C 
ENDBRANCH  14  18
ENDBRANCH  10  11
BRANCH   8  23
HETATM   23  C   UNL     1       5.636  29.540  55.429  1.00  0.00     0.314 C 
BRANCH  23  24
HETATM   24  N   UNL     1       6.713  28.634  56.034  1.00  0.00    -0.072 N 
HETATM   25  H   UNL     1       6.629  27.751  55.500  1.00  0.00     0.279 HD
HETATM   26  C   UNL     1       8.105  29.131  55.780  1.00  0.00     0.269 C 
HETATM   27  C   UNL     1       6.474  28.313  57.476  1.00  0.00     0.269 C 
ENDBRANCH  23  24
ENDBRANCH   8  23
BRANCH   1  28
HETATM   28  C   UNL     1       2.244  29.458  48.738  1.00  0.00     0.300 C 
HETATM   29  O   UNL     1       1.217  28.848  48.468  1.00  0.00    -0.259 OA
BRANCH  28  30
HETATM   30  O   UNL     1       2.759  30.466  47.978  1.00  0.00    -0.317 OA
BRANCH  30  31
HETATM   31  C   UNL     1       3.230  30.093  46.673  1.00  0.00     0.174 C 
HETATM   32  C   UNL     1       4.239  31.112  46.177  1.00  0.00     0.034 C 
ENDBRANCH  30  31
ENDBRANCH  28  30
ENDBRANCH   1  28
TORSDOF 7
ENDMDL
MODEL 8
REMARK VINA RESULT:      -7.1      4.017      8.262
REMARK  7 active torsions:
REMARK  status: ('A' for Active; 'I' for Inactive)
REMARK    1  A    between atoms: C_2  and  O_3 
REMARK    2  A    between atoms: O_3  and  C_4 
REMARK    3  A    between atoms: C_4  and  C_5 
REMARK    4  A    between atoms: C_12  and  C_13 
REMARK    5  A    between atoms: C_13  and  N_14 
REMARK    6  A    between atoms: C_19  and  N_20 
REMARK    7  A    between atoms: N_23  and  C_25 
ROOT
HETATM    1  C   UNL     1       6.589  27.252  55.931  1.00  0.00     0.089 C 
HETATM    2  S   UNL     1       8.062  27.383  56.789  1.00  0.00    -0.063 SA
HETATM    3  C   UNL     1       7.553  28.782  57.596  1.00  0.00     0.115 C 
HETATM    4  C   UNL     1       6.310  29.232  57.188  1.00  0.00     0.053 C 
HETATM    5  C   UNL     1       5.673  28.217  56.356  1.00  0.00    -0.022 C 
HETATM    6  C   UNL     1       4.222  28.200  55.967  1.00  0.00     0.051 C 
HETATM    7  N   UNL     1       8.352  29.343  58.516  1.00  0.00    -0.224 NA
HETATM    8  C   UNL     1       7.840  30.461  59.041  1.00  0.00     0.155 C 
HETATM    9  N   UNL     1       6.708  31.080  58.643  1.00  0.00    -0.213 NA
HETATM   10  C   UNL     1       5.916  30.503  57.694  1.00  0.00     0.141 C 
ENDROOT
BRANCH  10  11
HETATM   11  N   UNL     1       4.767  31.177  57.282  1.00  0.00    -0.362 N 
HETATM   12  C   UNL     1       4.959  32.474  56.603  1.00  0.00     0.152 C 
HETATM   13  C   UNL     1       4.854  33.667  57.573  1.00  0.00     0.255 C 
HETATM   14  N   UNL     1       3.545  33.615  58.364  1.00  0.00    -0.064 N 
HETATM   15  H   UNL     1       2.778  33.614  57.677  1.00  0.00     0.280 HD
HETATM   16  C   UNL     1       3.471  32.280  59.122  1.00  0.00     0.255 C 
HETATM   17  C   UNL     1       3.572  31.093  58.139  1.00  0.00     0.152 C 
BRANCH  14  18
HETATM   18  C   UNL     1       3.354  34.825  59.250  1.00  0.00     0.188 C 
HETATM   19  C   UNL     1       4.248  34.768  60.486  1.00  0.00     0.033 C 
HETATM   20  C   UNL     1       4.265  36.209  60.969  1.00  0.00     0.002 C 
HETATM   21  C   UNL     1       4.195  37.059  59.704  1.00  0.00     0.002 C 
HETATM   22  C   UNL     1       3.820  36.109  58.566  1.00  0.00     0.033 C 
ENDBRANCH  14  18
ENDBRANCH  10  11
BRANCH   8  23
HETATM   23  C   UNL     1       8.593  31.013  60.247  1.00  0.00     0.314 C 
BRANCH  23  24
HETATM   24  N   UNL     1       7.974  30.633  61.595  1.00  0.00    -0.072 N 
HETATM   25  H   UNL     1       7.376  29.817  61.378  1.00  0.00     0.279 HD
HETATM   26  C   UNL     1       8.988  30.140  62.585  1.00  0.00     0.269 C 
HETATM   27  C   UNL     1       7.092  31.700  62.163  1.00  0.00     0.269 C 
ENDBRANCH  23  24
ENDBRANCH   8  23
BRANCH   1  28
HETATM   28  C   UNL     1       6.381  26.224  54.913  1.00  0.00     0.300 C 
HETATM   29  O   UNL     1       5.741  25.196  55.095  1.00  0.00    -0.259 OA
BRANCH  28  30
HETATM   30  O   UNL     1       6.905  26.598  53.712  1.00  0.00    -0.317 OA
BRANCH  30  31
HETATM   31  C   UNL     1       6.625  25.727  52.604  1.00  0.00     0.174 C 
HETATM   32  C   UNL     1       7.884  24.978  52.206  1.00  0.00     0.034 C 
ENDBRANCH  30  31
ENDBRANCH  28  30
ENDBRANCH   1  28
TORSDOF 7
ENDMDL
MODEL 9
REMARK VINA RESULT:      -6.9      4.096      7.949
REMARK  7 active torsions:
REMARK  status: ('A' for Active; 'I' for Inactive)
REMARK    1  A    between atoms: C_2  and  O_3 
REMARK    2  A    between atoms: O_3  and  C_4 
REMARK    3  A    between atoms: C_4  and  C_5 
REMARK    4  A    between atoms: C_12  and  C_13 
REMARK    5  A    between atoms: C_13  and  N_14 
REMARK    6  A    between atoms: C_19  and  N_20 
REMARK    7  A    between atoms: N_23  and  C_25 
ROOT
HETATM    1  C   UNL     1       6.819  24.700  54.608  1.00  0.00     0.089 C 
HETATM    2  S   UNL     1       7.547  25.650  55.830  1.00  0.00    -0.063 SA
HETATM    3  C   UNL     1       6.636  27.016  55.414  1.00  0.00     0.115 C 
HETATM    4  C   UNL     1       5.830  26.824  54.307  1.00  0.00     0.053 C 
HETATM    5  C   UNL     1       5.800  25.406  53.966  1.00  0.00    -0.022 C 
HETATM    6  C   UNL     1       4.823  24.761  53.024  1.00  0.00     0.051 C 
HETATM    7  N   UNL     1       6.762  28.139  56.136  1.00  0.00    -0.224 NA
HETATM    8  C   UNL     1       6.015  29.146  55.670  1.00  0.00     0.155 C 
HETATM    9  N   UNL     1       5.290  29.137  54.531  1.00  0.00    -0.213 NA
HETATM   10  C   UNL     1       5.187  27.989  53.801  1.00  0.00     0.141 C 
ENDROOT
BRANCH  10  11
HETATM   11  N   UNL     1       4.454  28.014  52.615  1.00  0.00    -0.362 N 
HETATM   12  C   UNL     1       5.220  27.942  51.354  1.00  0.00     0.152 C 
HETATM   13  C   UNL     1       5.511  29.335  50.762  1.00  0.00     0.255 C 
HETATM   14  N   UNL     1       4.222  30.145  50.611  1.00  0.00    -0.064 N 
HETATM   15  H   UNL     1       3.591  29.598  50.007  1.00  0.00     0.280 HD
HETATM   16  C   UNL     1       3.540  30.261  51.984  1.00  0.00     0.255 C 
HETATM   17  C   UNL     1       3.250  28.859  52.564  1.00  0.00     0.152 C 
BRANCH  14  18
HETATM   18  C   UNL     1       4.449  31.478  49.934  1.00  0.00     0.188 C 
HETATM   19  C   UNL     1       5.847  32.023  50.213  1.00  0.00     0.033 C 
HETATM   20  C   UNL     1       6.039  33.062  49.121  1.00  0.00     0.002 C 
HETATM   21  C   UNL     1       5.298  32.512  47.906  1.00  0.00     0.002 C 
HETATM   22  C   UNL     1       4.444  31.349  48.412  1.00  0.00     0.033 C 
ENDBRANCH  14  18
ENDBRANCH  10  11
BRANCH   8  23
HETATM   23  C   UNL     1       5.941  30.371  56.576  1.00  0.00     0.314 C 
BRANCH  23  24
HETATM   24  N   UNL     1       4.588  31.087  56.546  1.00  0.00    -0.072 N 
HETATM   25  H   UNL     1       4.026  30.538  55.874  1.00  0.00     0.279 HD
HETATM   26  C   UNL     1       3.854  31.005  57.852  1.00  0.00     0.269 C 
HETATM   27  C   UNL     1       4.671  32.488  56.025  1.00  0.00     0.269 C 
ENDBRANCH  23  24
ENDBRANCH   8  23
BRANCH   1  28
HETATM   28  C   UNL     1       7.249  23.329  54.344  1.00  0.00     0.300 C 
HETATM   29  O   UNL     1       7.731  22.953  53.283  1.00  0.00    -0.259 OA
BRANCH  28  30
HETATM   30  O   UNL     1       7.137  22.548  55.455  1.00  0.00    -0.317 OA
BRANCH  30  31
HETATM   31  C   UNL     1       8.330  21.859  55.862  1.00  0.00     0.174 C 
HETATM   32  C   UNL     1       8.035  20.382  56.050  1.00  0.00     0.034 C 
ENDBRANCH  30  31
ENDBRANCH  28  30
ENDBRANCH   1  28
TORSDOF 7
ENDMDL
MODEL 10
REMARK VINA RESULT:      -6.7      2.851      5.246
REMARK  7 active torsions:
REMARK  status: ('A' for Active; 'I' for Inactive)
REMARK    1  A    between atoms: C_2  and  O_3 
REMARK    2  A    between atoms: O_3  and  C_4 
REMARK    3  A    between atoms: C_4  and  C_5 
REMARK    4  A    between atoms: C_12  and  C_13 
REMARK    5  A    between atoms: C_13  and  N_14 
REMARK    6  A    between atoms: C_19  and  N_20 
REMARK    7  A    between atoms: N_23  and  C_25 
ROOT
HETATM    1  C   UNL     1       3.091  31.427  53.137  1.00  0.00     0.089 C 
HETATM    2  S   UNL     1       2.792  31.091  51.487  1.00  0.00    -0.063 SA
HETATM    3  C   UNL     1       3.613  29.612  51.564  1.00  0.00     0.115 C 
HETATM    4  C   UNL     1       4.199  29.370  52.793  1.00  0.00     0.053 C 
HETATM    5  C   UNL     1       3.719  30.348  53.763  1.00  0.00    -0.022 C 
HETATM    6  C   UNL     1       3.888  30.248  55.253  1.00  0.00     0.051 C 
HETATM    7  N   UNL     1       3.655  28.822  50.481  1.00  0.00    -0.224 NA
HETATM    8  C   UNL     1       4.370  27.708  50.674  1.00  0.00     0.155 C 
HETATM    9  N   UNL     1       5.099  27.411  51.770  1.00  0.00    -0.213 NA
HETATM   10  C   UNL     1       5.057  28.235  52.857  1.00  0.00     0.141 C 
ENDROOT
BRANCH  10  11
HETATM   11  N   UNL     1       5.840  27.919  53.966  1.00  0.00    -0.362 N 
HETATM   12  C   UNL     1       7.305  27.926  53.775  1.00  0.00     0.152 C 
HETATM   13  C   UNL     1       7.862  26.525  53.455  1.00  0.00     0.255 C 
HETATM   14  N   UNL     1       7.421  25.507  54.508  1.00  0.00    -0.064 N 
HETATM   15  H   UNL     1       7.755  25.852  55.420  1.00  0.00     0.280 HD
HETATM   16  C   UNL     1       5.884  25.488  54.572  1.00  0.00     0.255 C 
HETATM   17  C   UNL     1       5.338  26.895  54.897  1.00  0.00     0.152 C 
BRANCH  14  18
HETATM   18  C   UNL     1       8.034  24.142  54.291  1.00  0.00     0.188 C 
HETATM   19  C   UNL     1       7.347  23.072  55.135  1.00  0.00     0.033 C 
HETATM   20  C   UNL     1       7.758  21.777  54.455  1.00  0.00     0.002 C 
HETATM   21  C   UNL     1       7.847  22.112  52.969  1.00  0.00     0.002 C 
HETATM   22  C   UNL     1       7.803  23.637  52.868  1.00  0.00     0.033 C 
ENDBRANCH  14  18
ENDBRANCH  10  11
BRANCH   8  23
HETATM   23  C   UNL     1       4.264  26.670  49.560  1.00  0.00     0.314 C 
BRANCH  23  24
HETATM   24  N   UNL     1       4.627  27.207  48.172  1.00  0.00    -0.072 N 
HETATM   25  H   UNL     1       5.134  26.425  47.723  1.00  0.00     0.279 HD
HETATM   26  C   UNL     1       3.426  27.460  47.311  1.00  0.00     0.269 C 
HETATM   27  C   UNL     1       5.556  28.380  48.216  1.00  0.00     0.269 C 
ENDBRANCH  23  24
ENDBRANCH   8  23
BRANCH   1  28
HETATM   28  C   UNL     1       2.693  32.694  53.747  1.00  0.00     0.300 C 
HETATM   29  O   UNL     1       3.230  33.769  53.511  1.00  0.00    -0.259 OA
BRANCH  28  30
HETATM   30  O   UNL     1       1.590  32.544  54.533  1.00  0.00    -0.317 OA
BRANCH  30  31
HETATM   31  C   UNL     1       0.752  33.704  54.670  1.00  0.00     0.174 C 
HETATM   32  C   UNL     1      -0.685  33.278  54.909  1.00  0.00     0.034 C 
ENDBRANCH  30  31
ENDBRANCH  28  30
ENDBRANCH   1  28
TORSDOF 7
ENDMDL
