MODEL 1
REMARK VINA RESULT:      -9.3      0.000      0.000
REMARK  4 active torsions:
REMARK  status: ('A' for Active; 'I' for Inactive)
REMARK    1  A    between atoms: C_2  and  C_3 
REMARK    2  A    between atoms: C_4  and  C_5 
REMARK       I    between atoms: C_5  and  N_6 
REMARK    3  A    between atoms: N_6  and  C_7 
REMARK    4  A    between atoms: C_14  and  C_15 
REMARK       I    between atoms: C_15  and  N_16 
ROOT
HETATM    1  C   UNL     1       6.706  27.902  57.253  1.00  0.00     0.035 A 
HETATM    2  C   UNL     1       7.609  28.822  57.815  1.00  0.00     0.046 A 
HETATM    3  C   UNL     1       7.183  30.136  58.099  1.00  0.00     0.030 A 
HETATM    4  C   UNL     1       5.875  30.495  57.799  1.00  0.00     0.063 A 
HETATM    5  N   UNL     1       5.762  31.803  58.178  1.00  0.00    -0.277 N 
HETATM    6  H   UNL     1       4.941  32.393  58.104  1.00  0.00     0.189 HD
HETATM    7  N   UNL     1       6.881  32.327  58.708  1.00  0.00    -0.168 NA
HETATM    8  C   UNL     1       7.767  31.308  58.664  1.00  0.00     0.156 A 
HETATM    9  C   UNL     1       4.957  29.611  57.229  1.00  0.00     0.034 A 
HETATM   10  C   UNL     1       5.401  28.308  56.965  1.00  0.00     0.032 A 
ENDROOT
BRANCH   1  11
HETATM   11  N   UNL     1       7.194  26.602  57.006  1.00  0.00    -0.327 N 
HETATM   12  C   UNL     1       6.492  25.418  57.082  1.00  0.00     0.227 C 
HETATM   13  O   UNL     1       5.337  25.264  57.455  1.00  0.00    -0.273 OA
HETATM   14  H   UNL     1       8.180  26.529  56.795  1.00  0.00     0.169 HD
BRANCH  12  15
HETATM   15  C   UNL     1       7.297  24.207  56.763  1.00  0.00     0.087 A 
HETATM   16  C   UNL     1       7.393  23.649  55.352  1.00  0.00     0.032 A 
HETATM   17  C   UNL     1       8.609  24.241  56.029  1.00  0.00     0.025 A 
BRANCH  16  18
HETATM   18  C   UNL     1       6.848  24.340  54.122  1.00  0.00    -0.053 A 
HETATM   19  C   UNL     1       7.697  24.676  53.050  1.00  0.00     0.009 A 
HETATM   20  C   UNL     1       7.211  25.293  51.892  1.00  0.00     0.024 A 
HETATM   21  C   UNL     1       5.856  25.582  51.784  1.00  0.00     0.034 A 
HETATM   22  C   UNL     1       4.986  25.248  52.816  1.00  0.00     0.024 A 
HETATM   23 CL   UNL     1       5.252  26.345  50.365  1.00  0.00    -0.084 Cl
HETATM   24  C   UNL     1       5.480  24.621  53.965  1.00  0.00     0.009 A 
ENDBRANCH  16  18
ENDBRANCH  12  15
ENDBRANCH   1  11
BRANCH   8  25
HETATM   25  C   UNL     1       9.140  31.463  59.164  1.00  0.00     0.270 C 
HETATM   26  N   UNL     1       9.391  30.785  60.326  1.00  0.00    -0.365 N 
HETATM   27  H   UNL     1       8.643  30.240  60.739  1.00  0.00     0.159 HD
HETATM   28  H   UNL     1      10.307  30.823  60.742  1.00  0.00     0.159 HD
HETATM   29  O   UNL     1      10.007  32.132  58.612  1.00  0.00    -0.266 OA
ENDBRANCH   8  25
TORSDOF 4
ENDMDL
MODEL 2
REMARK VINA RESULT:      -9.3      4.442      8.525
REMARK  4 active torsions:
REMARK  status: ('A' for Active; 'I' for Inactive)
REMARK    1  A    between atoms: C_2  and  C_3 
REMARK    2  A    between atoms: C_4  and  C_5 
REMARK       I    between atoms: C_5  and  N_6 
REMARK    3  A    between atoms: N_6  and  C_7 
REMARK    4  A    between atoms: C_14  and  C_15 
REMARK       I    between atoms: C_15  and  N_16 
ROOT
HETATM    1  C   UNL     1       8.794  30.000  58.496  1.00  0.00     0.035 A 
HETATM    2  C   UNL     1       7.493  29.651  58.093  1.00  0.00     0.046 A 
HETATM    3  C   UNL     1       7.261  29.235  56.765  1.00  0.00     0.030 A 
HETATM    4  C   UNL     1       8.330  29.195  55.879  1.00  0.00     0.063 A 
HETATM    5  N   UNL     1       7.804  28.763  54.694  1.00  0.00    -0.277 N 
HETATM    6  H   UNL     1       8.299  28.618  53.822  1.00  0.00     0.189 HD
HETATM    7  N   UNL     1       6.484  28.509  54.732  1.00  0.00    -0.168 NA
HETATM    8  C   UNL     1       6.136  28.797  56.005  1.00  0.00     0.156 A 
HETATM    9  C   UNL     1       9.631  29.547  56.243  1.00  0.00     0.034 A 
HETATM   10  C   UNL     1       9.838  29.949  57.571  1.00  0.00     0.032 A 
ENDROOT
BRANCH   1  11
HETATM   11  N   UNL     1       8.958  30.396  59.840  1.00  0.00    -0.327 N 
HETATM   12  C   UNL     1       9.026  31.682  60.330  1.00  0.00     0.227 C 
HETATM   13  O   UNL     1       9.037  32.721  59.685  1.00  0.00    -0.273 OA
HETATM   14  H   UNL     1       9.086  29.650  60.512  1.00  0.00     0.169 HD
BRANCH  12  15
HETATM   15  C   UNL     1       9.207  31.767  61.806  1.00  0.00     0.087 A 
HETATM   16  C   UNL     1       8.143  32.356  62.718  1.00  0.00     0.032 A 
HETATM   17  C   UNL     1       8.491  30.886  62.792  1.00  0.00     0.025 A 
BRANCH  16  18
HETATM   18  C   UNL     1       6.752  32.743  62.267  1.00  0.00    -0.053 A 
HETATM   19  C   UNL     1       5.693  31.816  62.325  1.00  0.00     0.009 A 
HETATM   20  C   UNL     1       4.394  32.159  61.938  1.00  0.00     0.024 A 
HETATM   21  C   UNL     1       4.127  33.447  61.488  1.00  0.00     0.034 A 
HETATM   22  C   UNL     1       5.145  34.392  61.436  1.00  0.00     0.024 A 
HETATM   23 CL   UNL     1       2.532  33.873  61.005  1.00  0.00    -0.084 Cl
HETATM   24  C   UNL     1       6.439  34.043  61.835  1.00  0.00     0.009 A 
ENDBRANCH  16  18
ENDBRANCH  12  15
ENDBRANCH   1  11
BRANCH   8  25
HETATM   25  C   UNL     1       4.752  28.644  56.475  1.00  0.00     0.270 C 
HETATM   26  N   UNL     1       4.366  27.345  56.660  1.00  0.00    -0.365 N 
HETATM   27  H   UNL     1       5.038  26.609  56.473  1.00  0.00     0.159 HD
HETATM   28  H   UNL     1       3.437  27.138  56.989  1.00  0.00     0.159 HD
HETATM   29  O   UNL     1       3.987  29.578  56.694  1.00  0.00    -0.266 OA
ENDBRANCH   8  25
TORSDOF 4
ENDMDL
MODEL 3
REMARK VINA RESULT:      -9.1      2.547      3.480
REMARK  4 active torsions:
REMARK  status: ('A' for Active; 'I' for Inactive)
REMARK    1  A    between atoms: C_2  and  C_3 
REMARK    2  A    between atoms: C_4  and  C_5 
REMARK       I    between atoms: C_5  and  N_6 
REMARK    3  A    between atoms: N_6  and  C_7 
REMARK    4  A    between atoms: C_14  and  C_15 
REMARK       I    between atoms: C_15  and  N_16 
ROOT
HETATM    1  C   UNL     1       7.090  28.339  55.459  1.00  0.00     0.035 A 
HETATM    2  C   UNL     1       8.165  29.054  56.014  1.00  0.00     0.046 A 
HETATM    3  C   UNL     1       7.994  29.738  57.236  1.00  0.00     0.030 A 
HETATM    4  C   UNL     1       6.752  29.699  57.856  1.00  0.00     0.063 A 
HETATM    5  N   UNL     1       6.892  30.439  58.996  1.00  0.00    -0.277 N 
HETATM    6  H   UNL     1       6.182  30.627  59.695  1.00  0.00     0.189 HD
HETATM    7  N   UNL     1       8.121  30.952  59.179  1.00  0.00    -0.168 NA
HETATM    8  C   UNL     1       8.812  30.527  58.097  1.00  0.00     0.156 A 
HETATM    9  C   UNL     1       5.660  29.009  57.326  1.00  0.00     0.034 A 
HETATM   10  C   UNL     1       5.858  28.330  56.116  1.00  0.00     0.032 A 
ENDROOT
BRANCH   1  11
HETATM   11  N   UNL     1       7.333  27.668  54.242  1.00  0.00    -0.327 N 
HETATM   12  C   UNL     1       6.561  26.686  53.661  1.00  0.00     0.227 C 
HETATM   13  O   UNL     1       5.563  26.154  54.128  1.00  0.00    -0.273 OA
HETATM   14  H   UNL     1       8.195  27.903  53.768  1.00  0.00     0.169 HD
BRANCH  12  15
HETATM   15  C   UNL     1       7.093  26.172  52.368  1.00  0.00     0.087 A 
HETATM   16  C   UNL     1       7.817  24.840  52.264  1.00  0.00     0.032 A 
HETATM   17  C   UNL     1       6.474  25.039  51.597  1.00  0.00     0.025 A 
BRANCH  16  18
HETATM   18  C   UNL     1       7.917  23.833  53.389  1.00  0.00    -0.053 A 
HETATM   19  C   UNL     1       7.677  22.466  53.154  1.00  0.00     0.009 A 
HETATM   20  C   UNL     1       7.789  21.514  54.173  1.00  0.00     0.024 A 
HETATM   21  C   UNL     1       8.151  21.916  55.454  1.00  0.00     0.034 A 
HETATM   22  C   UNL     1       8.413  23.256  55.716  1.00  0.00     0.024 A 
HETATM   23 CL   UNL     1       8.285  20.752  56.712  1.00  0.00    -0.084 Cl
HETATM   24  C   UNL     1       8.309  24.199  54.688  1.00  0.00     0.009 A 
ENDBRANCH  16  18
ENDBRANCH  12  15
ENDBRANCH   1  11
BRANCH   8  25
HETATM   25  C   UNL     1      10.228  30.870  57.909  1.00  0.00     0.270 C 
HETATM   26  N   UNL     1      10.990  29.845  57.416  1.00  0.00    -0.365 N 
HETATM   27  H   UNL     1      10.539  28.960  57.216  1.00  0.00     0.159 HD
HETATM   28  H   UNL     1      11.972  29.987  57.244  1.00  0.00     0.159 HD
HETATM   29  O   UNL     1      10.715  31.967  58.161  1.00  0.00    -0.266 OA
ENDBRANCH   8  25
TORSDOF 4
ENDMDL
MODEL 4
REMARK VINA RESULT:      -9.0      2.685      3.962
REMARK  4 active torsions:
REMARK  status: ('A' for Active; 'I' for Inactive)
REMARK    1  A    between atoms: C_2  and  C_3 
REMARK    2  A    between atoms: C_4  and  C_5 
REMARK       I    between atoms: C_5  and  N_6 
REMARK    3  A    between atoms: N_6  and  C_7 
REMARK    4  A    between atoms: C_14  and  C_15 
REMARK       I    between atoms: C_15  and  N_16 
ROOT
HETATM    1  C   UNL     1       6.569  27.926  55.988  1.00  0.00     0.035 A 
HETATM    2  C   UNL     1       5.985  29.168  56.292  1.00  0.00     0.046 A 
HETATM    3  C   UNL     1       6.456  29.912  57.394  1.00  0.00     0.030 A 
HETATM    4  C   UNL     1       7.483  29.386  58.167  1.00  0.00     0.063 A 
HETATM    5  N   UNL     1       7.717  30.315  59.142  1.00  0.00    -0.277 N 
HETATM    6  H   UNL     1       8.403  30.261  59.886  1.00  0.00     0.189 HD
HETATM    7  N   UNL     1       6.937  31.407  59.067  1.00  0.00    -0.168 NA
HETATM    8  C   UNL     1       6.152  31.170  57.993  1.00  0.00     0.156 A 
HETATM    9  C   UNL     1       8.076  28.150  57.901  1.00  0.00     0.034 A 
HETATM   10  C   UNL     1       7.597  27.434  56.795  1.00  0.00     0.032 A 
ENDROOT
BRANCH   1  11
HETATM   11  N   UNL     1       6.059  27.241  54.866  1.00  0.00    -0.327 N 
HETATM   12  C   UNL     1       6.731  26.921  53.706  1.00  0.00     0.227 C 
HETATM   13  O   UNL     1       7.870  27.240  53.398  1.00  0.00    -0.273 OA
HETATM   14  H   UNL     1       5.077  26.999  54.900  1.00  0.00     0.169 HD
BRANCH  12  15
HETATM   15  C   UNL     1       5.907  26.192  52.702  1.00  0.00     0.087 A 
HETATM   16  C   UNL     1       6.055  24.698  52.467  1.00  0.00     0.032 A 
HETATM   17  C   UNL     1       4.781  25.261  53.057  1.00  0.00     0.025 A 
BRANCH  16  18
HETATM   18  C   UNL     1       6.897  23.778  53.323  1.00  0.00    -0.053 A 
HETATM   19  C   UNL     1       6.704  23.715  54.716  1.00  0.00     0.009 A 
HETATM   20  C   UNL     1       7.454  22.854  55.524  1.00  0.00     0.024 A 
HETATM   21  C   UNL     1       8.414  22.031  54.947  1.00  0.00     0.034 A 
HETATM   22  C   UNL     1       8.618  22.055  53.572  1.00  0.00     0.024 A 
HETATM   23 CL   UNL     1       9.343  20.974  55.936  1.00  0.00    -0.084 Cl
HETATM   24  C   UNL     1       7.856  22.911  52.772  1.00  0.00     0.009 A 
ENDBRANCH  16  18
ENDBRANCH  12  15
ENDBRANCH   1  11
BRANCH   8  25
HETATM   25  C   UNL     1       5.141  32.142  57.553  1.00  0.00     0.270 C 
HETATM   26  N   UNL     1       3.850  31.715  57.710  1.00  0.00    -0.365 N 
HETATM   27  H   UNL     1       3.689  30.798  58.110  1.00  0.00     0.159 HD
HETATM   28  H   UNL     1       3.086  32.316  57.445  1.00  0.00     0.159 HD
HETATM   29  O   UNL     1       5.399  33.246  57.084  1.00  0.00    -0.266 OA
ENDBRANCH   8  25
TORSDOF 4
ENDMDL
MODEL 5
REMARK VINA RESULT:      -8.7      7.186     11.135
REMARK  4 active torsions:
REMARK  status: ('A' for Active; 'I' for Inactive)
REMARK    1  A    between atoms: C_2  and  C_3 
REMARK    2  A    between atoms: C_4  and  C_5 
REMARK       I    between atoms: C_5  and  N_6 
REMARK    3  A    between atoms: N_6  and  C_7 
REMARK    4  A    between atoms: C_14  and  C_15 
REMARK       I    between atoms: C_15  and  N_16 
ROOT
HETATM    1  C   UNL     1       6.965  33.134  63.176  1.00  0.00     0.035 A 
HETATM    2  C   UNL     1       6.343  33.159  61.916  1.00  0.00     0.046 A 
HETATM    3  C   UNL     1       6.815  32.317  60.887  1.00  0.00     0.030 A 
HETATM    4  C   UNL     1       7.900  31.490  61.143  1.00  0.00     0.063 A 
HETATM    5  N   UNL     1       8.121  30.809  59.979  1.00  0.00    -0.277 N 
HETATM    6  H   UNL     1       8.840  30.117  59.801  1.00  0.00     0.189 HD
HETATM    7  N   UNL     1       7.267  31.115  58.986  1.00  0.00    -0.168 NA
HETATM    8  C   UNL     1       6.455  32.046  59.533  1.00  0.00     0.156 A 
HETATM    9  C   UNL     1       8.549  31.450  62.378  1.00  0.00     0.034 A 
HETATM   10  C   UNL     1       8.057  32.289  63.388  1.00  0.00     0.032 A 
ENDROOT
BRANCH   1  11
HETATM   11  N   UNL     1       6.436  33.991  64.164  1.00  0.00    -0.327 N 
HETATM   12  C   UNL     1       5.273  33.820  64.882  1.00  0.00     0.227 C 
HETATM   13  O   UNL     1       4.439  32.936  64.744  1.00  0.00    -0.273 OA
HETATM   14  H   UNL     1       6.946  34.849  64.328  1.00  0.00     0.169 HD
BRANCH  12  15
HETATM   15  C   UNL     1       4.987  34.912  65.855  1.00  0.00     0.087 A 
HETATM   16  C   UNL     1       4.795  36.355  65.417  1.00  0.00     0.032 A 
HETATM   17  C   UNL     1       3.644  35.571  66.007  1.00  0.00     0.025 A 
BRANCH  16  18
HETATM   18  C   UNL     1       4.695  36.803  63.975  1.00  0.00    -0.053 A 
HETATM   19  C   UNL     1       5.819  37.319  63.303  1.00  0.00     0.009 A 
HETATM   20  C   UNL     1       5.756  37.716  61.963  1.00  0.00     0.024 A 
HETATM   21  C   UNL     1       4.559  37.597  61.266  1.00  0.00     0.034 A 
HETATM   22  C   UNL     1       3.434  37.075  61.894  1.00  0.00     0.024 A 
HETATM   23 CL   UNL     1       4.473  38.088  59.619  1.00  0.00    -0.084 Cl
HETATM   24  C   UNL     1       3.510  36.671  63.231  1.00  0.00     0.009 A 
ENDBRANCH  16  18
ENDBRANCH  12  15
ENDBRANCH   1  11
BRANCH   8  25
HETATM   25  C   UNL     1       5.356  32.650  58.768  1.00  0.00     0.270 C 
HETATM   26  N   UNL     1       4.113  32.211  59.136  1.00  0.00    -0.365 N 
HETATM   27  H   UNL     1       4.041  31.532  59.885  1.00  0.00     0.159 HD
HETATM   28  H   UNL     1       3.294  32.574  58.674  1.00  0.00     0.159 HD
HETATM   29  O   UNL     1       5.505  33.478  57.876  1.00  0.00    -0.266 OA
ENDBRANCH   8  25
TORSDOF 4
ENDMDL
MODEL 6
REMARK VINA RESULT:      -8.6      3.870      5.731
REMARK  4 active torsions:
REMARK  status: ('A' for Active; 'I' for Inactive)
REMARK    1  A    between atoms: C_2  and  C_3 
REMARK    2  A    between atoms: C_4  and  C_5 
REMARK       I    between atoms: C_5  and  N_6 
REMARK    3  A    between atoms: N_6  and  C_7 
REMARK    4  A    between atoms: C_14  and  C_15 
REMARK       I    between atoms: C_15  and  N_16 
ROOT
HETATM    1  C   UNL     1       5.721  27.444  55.434  1.00  0.00     0.035 A 
HETATM    2  C   UNL     1       5.774  27.100  54.072  1.00  0.00     0.046 A 
HETATM    3  C   UNL     1       4.877  27.701  53.164  1.00  0.00     0.030 A 
HETATM    4  C   UNL     1       3.948  28.614  53.646  1.00  0.00     0.063 A 
HETATM    5  N   UNL     1       3.234  29.016  52.552  1.00  0.00    -0.277 N 
HETATM    6  H   UNL     1       2.468  29.680  52.532  1.00  0.00     0.189 HD
HETATM    7  N   UNL     1       3.623  28.451  51.396  1.00  0.00    -0.168 NA
HETATM    8  C   UNL     1       4.637  27.635  51.760  1.00  0.00     0.156 A 
HETATM    9  C   UNL     1       3.860  28.968  54.993  1.00  0.00     0.034 A 
HETATM   10  C   UNL     1       4.767  28.364  55.875  1.00  0.00     0.032 A 
ENDROOT
BRANCH   1  11
HETATM   11  N   UNL     1       6.653  26.815  56.286  1.00  0.00    -0.327 N 
HETATM   12  C   UNL     1       6.527  25.588  56.902  1.00  0.00     0.227 C 
HETATM   13  O   UNL     1       5.551  24.851  56.892  1.00  0.00    -0.273 OA
HETATM   14  H   UNL     1       7.487  27.345  56.504  1.00  0.00     0.169 HD
BRANCH  12  15
HETATM   15  C   UNL     1       7.692  25.204  57.746  1.00  0.00     0.087 A 
HETATM   16  C   UNL     1       8.499  23.942  57.484  1.00  0.00     0.032 A 
HETATM   17  C   UNL     1       9.124  25.307  57.298  1.00  0.00     0.025 A 
BRANCH  16  18
HETATM   18  C   UNL     1       8.329  23.058  56.268  1.00  0.00    -0.053 A 
HETATM   19  C   UNL     1       8.561  23.563  54.974  1.00  0.00     0.009 A 
HETATM   20  C   UNL     1       8.436  22.758  53.838  1.00  0.00     0.024 A 
HETATM   21  C   UNL     1       8.078  21.421  53.977  1.00  0.00     0.034 A 
HETATM   22  C   UNL     1       7.860  20.886  55.241  1.00  0.00     0.024 A 
HETATM   23 CL   UNL     1       7.917  20.427  52.583  1.00  0.00    -0.084 Cl
HETATM   24  C   UNL     1       7.998  21.697  56.373  1.00  0.00     0.009 A 
ENDBRANCH  16  18
ENDBRANCH  12  15
ENDBRANCH   1  11
BRANCH   8  25
HETATM   25  C   UNL     1       5.359  26.822  50.772  1.00  0.00     0.270 C 
HETATM   26  N   UNL     1       5.515  27.429  49.556  1.00  0.00    -0.365 N 
HETATM   27  H   UNL     1       5.141  28.363  49.429  1.00  0.00     0.159 HD
HETATM   28  H   UNL     1       6.005  26.953  48.815  1.00  0.00     0.159 HD
HETATM   29  O   UNL     1       5.797  25.697  50.988  1.00  0.00    -0.266 OA
ENDBRANCH   8  25
TORSDOF 4
ENDMDL
MODEL 7
REMARK VINA RESULT:      -8.6      5.475      8.054
REMARK  4 active torsions:
REMARK  status: ('A' for Active; 'I' for Inactive)
REMARK    1  A    between atoms: C_2  and  C_3 
REMARK    2  A    between atoms: C_4  and  C_5 
REMARK       I    between atoms: C_5  and  N_6 
REMARK    3  A    between atoms: N_6  and  C_7 
REMARK    4  A    between atoms: C_14  and  C_15 
REMARK       I    between atoms: C_15  and  N_16 
ROOT
HETATM    1  C   UNL     1       4.764  27.508  50.818  1.00  0.00     0.035 A 
HETATM    2  C   UNL     1       3.806  28.484  50.495  1.00  0.00     0.046 A 
HETATM    3  C   UNL     1       2.958  28.292  49.383  1.00  0.00     0.030 A 
HETATM    4  C   UNL     1       3.104  27.140  48.622  1.00  0.00     0.063 A 
HETATM    5  N   UNL     1       2.164  27.236  47.635  1.00  0.00    -0.277 N 
HETATM    6  H   UNL     1       1.984  26.568  46.894  1.00  0.00     0.189 HD
HETATM    7  N   UNL     1       1.410  28.348  47.692  1.00  0.00    -0.168 NA
HETATM    8  C   UNL     1       1.892  29.010  48.767  1.00  0.00     0.156 A 
HETATM    9  C   UNL     1       4.053  26.157  48.907  1.00  0.00     0.034 A 
HETATM   10  C   UNL     1       4.878  26.366  50.022  1.00  0.00     0.032 A 
ENDROOT
BRANCH   1  11
HETATM   11  N   UNL     1       5.571  27.757  51.947  1.00  0.00    -0.327 N 
HETATM   12  C   UNL     1       5.308  27.408  53.255  1.00  0.00     0.227 C 
HETATM   13  O   UNL     1       4.291  26.889  53.693  1.00  0.00    -0.273 OA
HETATM   14  H   UNL     1       6.414  28.292  51.784  1.00  0.00     0.169 HD
BRANCH  12  15
HETATM   15  C   UNL     1       6.363  27.819  54.223  1.00  0.00     0.087 A 
HETATM   16  C   UNL     1       7.357  26.827  54.804  1.00  0.00     0.032 A 
HETATM   17  C   UNL     1       7.823  27.928  53.877  1.00  0.00     0.025 A 
BRANCH  16  18
HETATM   18  C   UNL     1       7.500  25.393  54.344  1.00  0.00    -0.053 A 
HETATM   19  C   UNL     1       7.204  24.325  55.214  1.00  0.00     0.009 A 
HETATM   20  C   UNL     1       7.305  22.993  54.802  1.00  0.00     0.024 A 
HETATM   21  C   UNL     1       7.701  22.702  53.501  1.00  0.00     0.034 A 
HETATM   22  C   UNL     1       7.983  23.732  52.611  1.00  0.00     0.024 A 
HETATM   23 CL   UNL     1       7.832  21.064  52.991  1.00  0.00    -0.084 Cl
HETATM   24  C   UNL     1       7.869  25.062  53.029  1.00  0.00     0.009 A 
ENDBRANCH  16  18
ENDBRANCH  12  15
ENDBRANCH   1  11
BRANCH   8  25
HETATM   25  C   UNL     1       1.327  30.299  49.190  1.00  0.00     0.270 C 
HETATM   26  N   UNL     1       0.791  30.288  50.448  1.00  0.00    -0.365 N 
HETATM   27  H   UNL     1       0.826  29.426  50.982  1.00  0.00     0.159 HD
HETATM   28  H   UNL     1       0.388  31.128  50.831  1.00  0.00     0.159 HD
HETATM   29  O   UNL     1       1.323  31.314  48.500  1.00  0.00    -0.266 OA
ENDBRANCH   8  25
TORSDOF 4
ENDMDL
MODEL 8
REMARK VINA RESULT:      -8.6      3.783      7.581
REMARK  4 active torsions:
REMARK  status: ('A' for Active; 'I' for Inactive)
REMARK    1  A    between atoms: C_2  and  C_3 
REMARK    2  A    between atoms: C_4  and  C_5 
REMARK       I    between atoms: C_5  and  N_6 
REMARK    3  A    between atoms: N_6  and  C_7 
REMARK    4  A    between atoms: C_14  and  C_15 
REMARK       I    between atoms: C_15  and  N_16 
ROOT
HETATM    1  C   UNL     1       6.570  25.505  54.104  1.00  0.00     0.035 A 
HETATM    2  C   UNL     1       6.961  24.458  54.957  1.00  0.00     0.046 A 
HETATM    3  C   UNL     1       7.690  23.368  54.437  1.00  0.00     0.030 A 
HETATM    4  C   UNL     1       7.991  23.350  53.081  1.00  0.00     0.063 A 
HETATM    5  N   UNL     1       8.688  22.192  52.879  1.00  0.00    -0.277 N 
HETATM    6  H   UNL     1       9.067  21.850  52.003  1.00  0.00     0.189 HD
HETATM    7  N   UNL     1       8.877  21.456  53.989  1.00  0.00    -0.168 NA
HETATM    8  C   UNL     1       8.263  22.171  54.958  1.00  0.00     0.156 A 
HETATM    9  C   UNL     1       7.606  24.366  52.204  1.00  0.00     0.034 A 
HETATM   10  C   UNL     1       6.891  25.443  52.746  1.00  0.00     0.032 A 
ENDROOT
BRANCH   1  11
HETATM   11  N   UNL     1       5.854  26.569  54.691  1.00  0.00    -0.327 N 
HETATM   12  C   UNL     1       5.383  26.646  55.984  1.00  0.00     0.227 C 
HETATM   13  O   UNL     1       5.425  25.776  56.841  1.00  0.00    -0.273 OA
HETATM   14  H   UNL     1       5.623  27.341  54.079  1.00  0.00     0.169 HD
BRANCH  12  15
HETATM   15  C   UNL     1       4.659  27.909  56.298  1.00  0.00     0.087 A 
HETATM   16  C   UNL     1       5.373  29.137  56.840  1.00  0.00     0.032 A 
HETATM   17  C   UNL     1       4.747  29.157  55.462  1.00  0.00     0.025 A 
BRANCH  16  18
HETATM   18  C   UNL     1       6.876  29.272  56.947  1.00  0.00    -0.053 A 
HETATM   19  C   UNL     1       7.687  29.221  55.797  1.00  0.00     0.009 A 
HETATM   20  C   UNL     1       9.075  29.369  55.870  1.00  0.00     0.024 A 
HETATM   21  C   UNL     1       9.682  29.577  57.104  1.00  0.00     0.034 A 
HETATM   22  C   UNL     1       8.909  29.652  58.257  1.00  0.00     0.024 A 
HETATM   23 CL   UNL     1      11.390  29.754  57.201  1.00  0.00    -0.084 Cl
HETATM   24  C   UNL     1       7.520  29.514  58.173  1.00  0.00     0.009 A 
ENDBRANCH  16  18
ENDBRANCH  12  15
ENDBRANCH   1  11
BRANCH   8  25
HETATM   25  C   UNL     1       8.242  21.710  56.353  1.00  0.00     0.270 C 
HETATM   26  N   UNL     1       8.017  20.368  56.495  1.00  0.00    -0.365 N 
HETATM   27  H   UNL     1       7.892  19.807  55.659  1.00  0.00     0.159 HD
HETATM   28  H   UNL     1       7.994  19.956  57.414  1.00  0.00     0.159 HD
HETATM   29  O   UNL     1       8.410  22.438  57.326  1.00  0.00    -0.266 OA
ENDBRANCH   8  25
TORSDOF 4
ENDMDL
MODEL 9
REMARK VINA RESULT:      -8.6      4.371      5.823
REMARK  4 active torsions:
REMARK  status: ('A' for Active; 'I' for Inactive)
REMARK    1  A    between atoms: C_2  and  C_3 
REMARK    2  A    between atoms: C_4  and  C_5 
REMARK       I    between atoms: C_5  and  N_6 
REMARK    3  A    between atoms: N_6  and  C_7 
REMARK    4  A    between atoms: C_14  and  C_15 
REMARK       I    between atoms: C_15  and  N_16 
ROOT
HETATM    1  C   UNL     1       6.084  26.146  53.871  1.00  0.00     0.035 A 
HETATM    2  C   UNL     1       5.424  27.387  53.873  1.00  0.00     0.046 A 
HETATM    3  C   UNL     1       4.709  27.801  52.730  1.00  0.00     0.030 A 
HETATM    4  C   UNL     1       4.689  26.970  51.617  1.00  0.00     0.063 A 
HETATM    5  N   UNL     1       3.933  27.628  50.687  1.00  0.00    -0.277 N 
HETATM    6  H   UNL     1       3.707  27.315  49.750  1.00  0.00     0.189 HD
HETATM    7  N   UNL     1       3.450  28.813  51.100  1.00  0.00    -0.168 NA
HETATM    8  C   UNL     1       3.924  28.932  52.361  1.00  0.00     0.156 A 
HETATM    9  C   UNL     1       5.344  25.738  51.577  1.00  0.00     0.034 A 
HETATM   10  C   UNL     1       6.040  25.345  52.728  1.00  0.00     0.032 A 
ENDROOT
BRANCH   1  11
HETATM   11  N   UNL     1       6.770  25.789  55.051  1.00  0.00    -0.327 N 
HETATM   12  C   UNL     1       6.225  25.299  56.218  1.00  0.00     0.227 C 
HETATM   13  O   UNL     1       5.039  25.157  56.480  1.00  0.00    -0.273 OA
HETATM   14  H   UNL     1       7.768  25.955  55.054  1.00  0.00     0.169 HD
BRANCH  12  15
HETATM   15  C   UNL     1       7.221  25.019  57.290  1.00  0.00     0.087 A 
HETATM   16  C   UNL     1       8.134  23.804  57.247  1.00  0.00     0.032 A 
HETATM   17  C   UNL     1       8.705  25.199  57.124  1.00  0.00     0.025 A 
BRANCH  16  18
HETATM   18  C   UNL     1       8.258  22.870  56.063  1.00  0.00    -0.053 A 
HETATM   19  C   UNL     1       7.789  21.545  56.141  1.00  0.00     0.009 A 
HETATM   20  C   UNL     1       7.870  20.672  55.052  1.00  0.00     0.024 A 
HETATM   21  C   UNL     1       8.420  21.114  53.854  1.00  0.00     0.034 A 
HETATM   22  C   UNL     1       8.875  22.423  53.737  1.00  0.00     0.024 A 
HETATM   23 CL   UNL     1       8.527  20.044  52.512  1.00  0.00    -0.084 Cl
HETATM   24  C   UNL     1       8.780  23.291  54.829  1.00  0.00     0.009 A 
ENDBRANCH  16  18
ENDBRANCH  12  15
ENDBRANCH   1  11
BRANCH   8  25
HETATM   25  C   UNL     1       3.615  30.107  53.187  1.00  0.00     0.270 C 
HETATM   26  N   UNL     1       2.614  30.894  52.687  1.00  0.00    -0.365 N 
HETATM   27  H   UNL     1       2.169  30.618  51.819  1.00  0.00     0.159 HD
HETATM   28  H   UNL     1       2.324  31.719  53.188  1.00  0.00     0.159 HD
HETATM   29  O   UNL     1       4.184  30.384  54.238  1.00  0.00    -0.266 OA
ENDBRANCH   8  25
TORSDOF 4
ENDMDL
MODEL 10
REMARK VINA RESULT:      -8.6      2.055      3.035
REMARK  4 active torsions:
REMARK  status: ('A' for Active; 'I' for Inactive)
REMARK    1  A    between atoms: C_2  and  C_3 
REMARK    2  A    between atoms: C_4  and  C_5 
REMARK       I    between atoms: C_5  and  N_6 
REMARK    3  A    between atoms: N_6  and  C_7 
REMARK    4  A    between atoms: C_14  and  C_15 
REMARK       I    between atoms: C_15  and  N_16 
ROOT
HETATM    1  C   UNL     1       7.307  27.719  57.010  1.00  0.00     0.035 A 
HETATM    2  C   UNL     1       6.362  28.338  56.174  1.00  0.00     0.046 A 
HETATM    3  C   UNL     1       6.007  29.686  56.397  1.00  0.00     0.030 A 
HETATM    4  C   UNL     1       6.595  30.366  57.455  1.00  0.00     0.063 A 
HETATM    5  N   UNL     1       6.063  31.624  57.417  1.00  0.00    -0.277 N 
HETATM    6  H   UNL     1       6.265  32.393  58.046  1.00  0.00     0.189 HD
HETATM    7  N   UNL     1       5.184  31.827  56.420  1.00  0.00    -0.168 NA
HETATM    8  C   UNL     1       5.140  30.636  55.782  1.00  0.00     0.156 A 
HETATM    9  C   UNL     1       7.526  29.778  58.312  1.00  0.00     0.034 A 
HETATM   10  C   UNL     1       7.870  28.441  58.065  1.00  0.00     0.032 A 
ENDROOT
BRANCH   1  11
HETATM   11  N   UNL     1       7.625  26.375  56.725  1.00  0.00    -0.327 N 
HETATM   12  C   UNL     1       6.823  25.270  56.910  1.00  0.00     0.227 C 
HETATM   13  O   UNL     1       5.717  25.235  57.430  1.00  0.00    -0.273 OA
HETATM   14  H   UNL     1       8.564  26.201  56.391  1.00  0.00     0.169 HD
BRANCH  12  15
HETATM   15  C   UNL     1       7.455  23.981  56.512  1.00  0.00     0.087 A 
HETATM   16  C   UNL     1       7.374  23.447  55.090  1.00  0.00     0.032 A 
HETATM   17  C   UNL     1       8.700  23.880  55.675  1.00  0.00     0.025 A 
BRANCH  16  18
HETATM   18  C   UNL     1       6.819  24.224  53.917  1.00  0.00    -0.053 A 
HETATM   19  C   UNL     1       7.643  24.571  52.829  1.00  0.00     0.009 A 
HETATM   20  C   UNL     1       7.146  25.267  51.723  1.00  0.00     0.024 A 
HETATM   21  C   UNL     1       5.803  25.626  51.682  1.00  0.00     0.034 A 
HETATM   22  C   UNL     1       4.958  25.283  52.731  1.00  0.00     0.024 A 
HETATM   23 CL   UNL     1       5.187  26.486  50.326  1.00  0.00    -0.084 Cl
HETATM   24  C   UNL     1       5.462  24.578  53.828  1.00  0.00     0.009 A 
ENDBRANCH  16  18
ENDBRANCH  12  15
ENDBRANCH   1  11
BRANCH   8  25
HETATM   25  C   UNL     1       4.287  30.429  54.604  1.00  0.00     0.270 C 
HETATM   26  N   UNL     1       4.968  30.038  53.483  1.00  0.00    -0.365 N 
HETATM   27  H   UNL     1       5.972  29.917  53.545  1.00  0.00     0.159 HD
HETATM   28  H   UNL     1       4.468  29.861  52.627  1.00  0.00     0.159 HD
HETATM   29  O   UNL     1       3.070  30.582  54.594  1.00  0.00    -0.266 OA
ENDBRANCH   8  25
TORSDOF 4
ENDMDL
