MODEL 1
REMARK VINA RESULT:      -8.7      0.000      0.000
REMARK  9 active torsions:
REMARK  status: ('A' for Active; 'I' for Inactive)
REMARK    1  A    between atoms: C_2  and  N_3 
REMARK    2  A    between atoms: C_6  and  C_7 
REMARK    3  A    between atoms: C_7  and  O_8 
REMARK    4  A    between atoms: O_8  and  C_9 
REMARK    5  A    between atoms: C_12  and  C_13 
REMARK    6  A    between atoms: C_14  and  C_15 
REMARK       I    between atoms: C_15  and  N_16 
REMARK    7  A    between atoms: N_16  and  C_17 
REMARK    8  A    between atoms: C_18  and  C_19 
REMARK       I    between atoms: C_19  and  N_20 
REMARK    9  A    between atoms: N_20  and  C_21 
ROOT
HETATM    1  C   UNL     1       7.753  24.949  56.792  1.00  0.00     0.245 C 
HETATM    2  N   UNL     1       6.877  24.139  56.087  1.00  0.00    -0.323 N 
HETATM    3  O   UNL     1       8.966  24.814  56.863  1.00  0.00    -0.268 OA
HETATM    4  H   UNL     1       6.009  24.594  55.825  1.00  0.00     0.169 HD
ENDROOT
BRANCH   1   5
HETATM    5  C   UNL     1       7.059  26.127  57.371  1.00  0.00     0.075 C 
HETATM    6  C   UNL     1       7.067  27.272  56.673  1.00  0.00     0.020 C 
BRANCH   6   7
HETATM    7  C   UNL     1       6.456  28.504  57.066  1.00  0.00     0.005 A 
HETATM    8  C   UNL     1       7.103  29.576  57.767  1.00  0.00     0.073 A 
HETATM    9  C   UNL     1       6.161  30.602  57.864  1.00  0.00     0.025 A 
HETATM   10  N   UNL     1       5.010  30.193  57.220  1.00  0.00    -0.353 N 
HETATM   11  C   UNL     1       6.323  31.941  58.512  1.00  0.00     0.069 C 
HETATM   12  C   UNL     1       5.162  28.897  56.759  1.00  0.00     0.019 A 
HETATM   13  C   UNL     1       4.076  28.193  56.014  1.00  0.00     0.069 C 
BRANCH   8  14
HETATM   14  C   UNL     1       8.473  29.658  58.298  1.00  0.00     0.296 C 
HETATM   15  O   UNL     1       9.473  29.711  57.588  1.00  0.00    -0.259 OA
BRANCH  14  16
HETATM   16  O   UNL     1       8.518  29.653  59.660  1.00  0.00    -0.318 OA
BRANCH  16  17
HETATM   17  C   UNL     1       9.234  30.727  60.283  1.00  0.00     0.174 C 
HETATM   18  C   UNL     1       9.284  30.517  61.785  1.00  0.00     0.034 C 
ENDBRANCH  16  17
ENDBRANCH  14  16
ENDBRANCH   8  14
BRANCH  10  19
HETATM   19  C   UNL     1       3.835  31.029  56.990  1.00  0.00     0.124 C 
HETATM   20  C   UNL     1       3.934  31.842  55.712  1.00  0.00     0.027 C 
ENDBRANCH  10  19
ENDBRANCH   6   7
ENDBRANCH   1   5
BRANCH   2  21
HETATM   21  C   UNL     1       7.334  23.127  55.201  1.00  0.00     0.050 A 
HETATM   22  C   UNL     1       7.444  23.243  53.802  1.00  0.00     0.058 A 
HETATM   23  C   UNL     1       7.773  22.100  53.045  1.00  0.00     0.019 A 
HETATM   24  C   UNL     1       8.034  20.877  53.662  1.00  0.00     0.001 A 
HETATM   25  C   UNL     1       7.992  20.783  55.047  1.00  0.00     0.002 A 
HETATM   26  C   UNL     1       7.656  21.901  55.811  1.00  0.00     0.030 A 
BRANCH  22  27
HETATM   27  C   UNL     1       7.384  24.517  53.022  1.00  0.00     0.254 C 
HETATM   28  N   UNL     1       6.239  25.277  53.175  1.00  0.00    -0.352 N 
HETATM   29  H   UNL     1       5.483  24.909  53.737  1.00  0.00     0.163 HD
HETATM   30  O   UNL     1       8.365  24.899  52.387  1.00  0.00    -0.268 OA
BRANCH  28  31
HETATM   31  C   UNL     1       6.077  26.540  52.533  1.00  0.00     0.084 A 
HETATM   32  C   UNL     1       5.328  26.644  51.233  1.00  0.00     0.027 A 
HETATM   33  C   UNL     1       4.736  27.218  52.486  1.00  0.00     0.027 A 
ENDBRANCH  28  31
ENDBRANCH  22  27
ENDBRANCH   2  21
TORSDOF 9
ENDMDL
MODEL 2
REMARK VINA RESULT:      -8.6      3.606      7.406
REMARK  9 active torsions:
REMARK  status: ('A' for Active; 'I' for Inactive)
REMARK    1  A    between atoms: C_2  and  N_3 
REMARK    2  A    between atoms: C_6  and  C_7 
REMARK    3  A    between atoms: C_7  and  O_8 
REMARK    4  A    between atoms: O_8  and  C_9 
REMARK    5  A    between atoms: C_12  and  C_13 
REMARK    6  A    between atoms: C_14  and  C_15 
REMARK       I    between atoms: C_15  and  N_16 
REMARK    7  A    between atoms: N_16  and  C_17 
REMARK    8  A    between atoms: C_18  and  C_19 
REMARK       I    between atoms: C_19  and  N_20 
REMARK    9  A    between atoms: N_20  and  C_21 
ROOT
HETATM    1  C   UNL     1       6.364  24.449  52.531  1.00  0.00     0.245 C 
HETATM    2  N   UNL     1       7.625  23.876  52.574  1.00  0.00    -0.323 N 
HETATM    3  O   UNL     1       5.348  24.003  53.044  1.00  0.00    -0.268 OA
HETATM    4  H   UNL     1       8.385  24.534  52.446  1.00  0.00     0.169 HD
ENDROOT
BRANCH   1   5
HETATM    5  C   UNL     1       6.395  25.785  51.886  1.00  0.00     0.075 C 
HETATM    6  C   UNL     1       5.291  26.208  51.252  1.00  0.00     0.020 C 
BRANCH   6   7
HETATM    7  C   UNL     1       5.132  27.459  50.575  1.00  0.00     0.005 A 
HETATM    8  C   UNL     1       4.797  27.628  49.191  1.00  0.00     0.073 A 
HETATM    9  C   UNL     1       4.666  29.003  48.988  1.00  0.00     0.025 A 
HETATM   10  N   UNL     1       4.871  29.639  50.196  1.00  0.00    -0.353 N 
HETATM   11  C   UNL     1       4.332  29.717  47.716  1.00  0.00     0.069 C 
HETATM   12  C   UNL     1       5.195  28.710  51.170  1.00  0.00     0.019 A 
HETATM   13  C   UNL     1       5.466  29.111  52.583  1.00  0.00     0.069 C 
BRANCH   8  14
HETATM   14  C   UNL     1       4.604  26.614  48.142  1.00  0.00     0.296 C 
HETATM   15  O   UNL     1       5.403  26.422  47.230  1.00  0.00    -0.259 OA
BRANCH  14  16
HETATM   16  O   UNL     1       3.440  25.919  48.279  1.00  0.00    -0.318 OA
BRANCH  16  17
HETATM   17  C   UNL     1       2.409  26.195  47.323  1.00  0.00     0.174 C 
HETATM   18  C   UNL     1       1.368  27.117  47.931  1.00  0.00     0.034 C 
ENDBRANCH  16  17
ENDBRANCH  14  16
ENDBRANCH   8  14
BRANCH  10  19
HETATM   19  C   UNL     1       4.697  31.070  50.431  1.00  0.00     0.124 C 
HETATM   20  C   UNL     1       5.934  31.877  50.080  1.00  0.00     0.027 C 
ENDBRANCH  10  19
ENDBRANCH   6   7
ENDBRANCH   1   5
BRANCH   2  21
HETATM   21  C   UNL     1       7.913  22.752  53.393  1.00  0.00     0.050 A 
HETATM   22  C   UNL     1       8.187  22.786  54.774  1.00  0.00     0.058 A 
HETATM   23  C   UNL     1       8.602  21.603  55.418  1.00  0.00     0.019 A 
HETATM   24  C   UNL     1       8.700  20.399  54.721  1.00  0.00     0.001 A 
HETATM   25  C   UNL     1       8.362  20.354  53.374  1.00  0.00     0.002 A 
HETATM   26  C   UNL     1       7.961  21.519  52.718  1.00  0.00     0.030 A 
BRANCH  22  27
HETATM   27  C   UNL     1       7.945  23.945  55.687  1.00  0.00     0.254 C 
HETATM   28  N   UNL     1       6.624  24.297  55.894  1.00  0.00    -0.352 N 
HETATM   29  H   UNL     1       5.904  23.812  55.376  1.00  0.00     0.163 HD
HETATM   30  O   UNL     1       8.881  24.456  56.298  1.00  0.00    -0.268 OA
BRANCH  28  31
HETATM   31  C   UNL     1       6.250  25.346  56.785  1.00  0.00     0.084 A 
HETATM   32  C   UNL     1       5.383  26.477  56.308  1.00  0.00     0.027 A 
HETATM   33  C   UNL     1       4.836  25.474  57.281  1.00  0.00     0.027 A 
ENDBRANCH  28  31
ENDBRANCH  22  27
ENDBRANCH   2  21
TORSDOF 9
ENDMDL
MODEL 3
REMARK VINA RESULT:      -8.6      1.840      3.941
REMARK  9 active torsions:
REMARK  status: ('A' for Active; 'I' for Inactive)
REMARK    1  A    between atoms: C_2  and  N_3 
REMARK    2  A    between atoms: C_6  and  C_7 
REMARK    3  A    between atoms: C_7  and  O_8 
REMARK    4  A    between atoms: O_8  and  C_9 
REMARK    5  A    between atoms: C_12  and  C_13 
REMARK    6  A    between atoms: C_14  and  C_15 
REMARK       I    between atoms: C_15  and  N_16 
REMARK    7  A    between atoms: N_16  and  C_17 
REMARK    8  A    between atoms: C_18  and  C_19 
REMARK       I    between atoms: C_19  and  N_20 
REMARK    9  A    between atoms: N_20  and  C_21 
ROOT
HETATM    1  C   UNL     1       7.453  27.932  56.143  1.00  0.00     0.245 C 
HETATM    2  N   UNL     1       6.696  26.825  55.795  1.00  0.00    -0.323 N 
HETATM    3  O   UNL     1       8.439  28.349  55.554  1.00  0.00    -0.268 OA
HETATM    4  H   UNL     1       5.741  26.849  56.136  1.00  0.00     0.169 HD
ENDROOT
BRANCH   1   5
HETATM    5  C   UNL     1       6.844  28.673  57.275  1.00  0.00     0.075 C 
HETATM    6  C   UNL     1       6.685  29.999  57.151  1.00  0.00     0.020 C 
BRANCH   6   7
HETATM    7  C   UNL     1       6.120  30.877  58.130  1.00  0.00     0.005 A 
HETATM    8  C   UNL     1       6.848  31.581  59.146  1.00  0.00     0.073 A 
HETATM    9  C   UNL     1       5.914  32.376  59.813  1.00  0.00     0.025 A 
HETATM   10  N   UNL     1       4.686  32.198  59.209  1.00  0.00    -0.353 N 
HETATM   11  C   UNL     1       6.151  33.303  60.964  1.00  0.00     0.069 C 
HETATM   12  C   UNL     1       4.788  31.255  58.201  1.00  0.00     0.019 A 
HETATM   13  C   UNL     1       3.612  30.862  57.367  1.00  0.00     0.069 C 
BRANCH   8  14
HETATM   14  C   UNL     1       8.282  31.535  59.475  1.00  0.00     0.296 C 
HETATM   15  O   UNL     1       9.096  32.363  59.078  1.00  0.00    -0.259 OA
BRANCH  14  16
HETATM   16  O   UNL     1       8.615  30.469  60.256  1.00  0.00    -0.318 OA
BRANCH  16  17
HETATM   17  C   UNL     1       9.328  30.755  61.465  1.00  0.00     0.174 C 
HETATM   18  C   UNL     1       8.359  30.869  62.628  1.00  0.00     0.034 C 
ENDBRANCH  16  17
ENDBRANCH  14  16
ENDBRANCH   8  14
BRANCH  10  19
HETATM   19  C   UNL     1       3.475  32.949  59.531  1.00  0.00     0.124 C 
HETATM   20  C   UNL     1       3.351  34.234  58.732  1.00  0.00     0.027 C 
ENDBRANCH  10  19
ENDBRANCH   6   7
ENDBRANCH   1   5
BRANCH   2  21
HETATM   21  C   UNL     1       6.896  26.130  54.572  1.00  0.00     0.050 A 
HETATM   22  C   UNL     1       7.634  24.941  54.411  1.00  0.00     0.058 A 
HETATM   23  C   UNL     1       7.867  24.453  53.109  1.00  0.00     0.019 A 
HETATM   24  C   UNL     1       7.342  25.100  51.991  1.00  0.00     0.001 A 
HETATM   25  C   UNL     1       6.556  26.234  52.158  1.00  0.00     0.002 A 
HETATM   26  C   UNL     1       6.326  26.738  53.439  1.00  0.00     0.030 A 
BRANCH  22  27
HETATM   27  C   UNL     1       8.093  24.039  55.511  1.00  0.00     0.254 C 
HETATM   28  N   UNL     1       8.029  22.681  55.258  1.00  0.00    -0.352 N 
HETATM   29  H   UNL     1       7.617  22.367  54.390  1.00  0.00     0.163 HD
HETATM   30  O   UNL     1       8.608  24.511  56.522  1.00  0.00    -0.268 OA
BRANCH  28  31
HETATM   31  C   UNL     1       8.488  21.713  56.200  1.00  0.00     0.084 A 
HETATM   32  C   UNL     1       7.876  20.340  56.241  1.00  0.00     0.027 A 
HETATM   33  C   UNL     1       9.284  20.517  55.755  1.00  0.00     0.027 A 
ENDBRANCH  28  31
ENDBRANCH  22  27
ENDBRANCH   2  21
TORSDOF 9
ENDMDL
MODEL 4
REMARK VINA RESULT:      -8.5      1.826      8.943
REMARK  9 active torsions:
REMARK  status: ('A' for Active; 'I' for Inactive)
REMARK    1  A    between atoms: C_2  and  N_3 
REMARK    2  A    between atoms: C_6  and  C_7 
REMARK    3  A    between atoms: C_7  and  O_8 
REMARK    4  A    between atoms: O_8  and  C_9 
REMARK    5  A    between atoms: C_12  and  C_13 
REMARK    6  A    between atoms: C_14  and  C_15 
REMARK       I    between atoms: C_15  and  N_16 
REMARK    7  A    between atoms: N_16  and  C_17 
REMARK    8  A    between atoms: C_18  and  C_19 
REMARK       I    between atoms: C_19  and  N_20 
REMARK    9  A    between atoms: N_20  and  C_21 
ROOT
HETATM    1  C   UNL     1       6.239  28.018  56.686  1.00  0.00     0.245 C 
HETATM    2  N   UNL     1       6.882  29.232  56.506  1.00  0.00    -0.323 N 
HETATM    3  O   UNL     1       5.191  27.836  57.288  1.00  0.00    -0.268 OA
HETATM    4  H   UNL     1       7.491  29.264  55.697  1.00  0.00     0.169 HD
ENDROOT
BRANCH   1   5
HETATM    5  C   UNL     1       6.906  26.931  55.927  1.00  0.00     0.075 C 
HETATM    6  C   UNL     1       6.535  25.666  56.175  1.00  0.00     0.020 C 
BRANCH   6   7
HETATM    7  C   UNL     1       7.062  24.493  55.546  1.00  0.00     0.005 A 
HETATM    8  C   UNL     1       6.838  24.096  54.186  1.00  0.00     0.073 A 
HETATM    9  C   UNL     1       7.605  22.948  53.985  1.00  0.00     0.025 A 
HETATM   10  N   UNL     1       8.295  22.680  55.150  1.00  0.00    -0.353 N 
HETATM   11  C   UNL     1       7.723  22.129  52.738  1.00  0.00     0.069 C 
HETATM   12  C   UNL     1       7.945  23.595  56.127  1.00  0.00     0.019 A 
HETATM   13  C   UNL     1       8.542  23.554  57.496  1.00  0.00     0.069 C 
BRANCH   8  14
HETATM   14  C   UNL     1       5.995  24.722  53.154  1.00  0.00     0.296 C 
HETATM   15  O   UNL     1       4.785  24.535  53.062  1.00  0.00    -0.259 OA
BRANCH  14  16
HETATM   16  O   UNL     1       6.699  25.518  52.302  1.00  0.00    -0.318 OA
BRANCH  16  17
HETATM   17  C   UNL     1       5.960  26.530  51.608  1.00  0.00     0.174 C 
HETATM   18  C   UNL     1       5.933  27.809  52.424  1.00  0.00     0.034 C 
ENDBRANCH  16  17
ENDBRANCH  14  16
ENDBRANCH   8  14
BRANCH  10  19
HETATM   19  C   UNL     1       9.303  21.635  55.306  1.00  0.00     0.124 C 
HETATM   20  C   UNL     1       8.717  20.323  55.797  1.00  0.00     0.027 C 
ENDBRANCH  10  19
ENDBRANCH   6   7
ENDBRANCH   1   5
BRANCH   2  21
HETATM   21  C   UNL     1       6.281  30.465  56.876  1.00  0.00     0.050 A 
HETATM   22  C   UNL     1       6.441  31.123  58.111  1.00  0.00     0.058 A 
HETATM   23  C   UNL     1       5.660  32.264  58.383  1.00  0.00     0.019 A 
HETATM   24  C   UNL     1       4.773  32.774  57.436  1.00  0.00     0.001 A 
HETATM   25  C   UNL     1       4.668  32.163  56.192  1.00  0.00     0.002 A 
HETATM   26  C   UNL     1       5.424  31.024  55.911  1.00  0.00     0.030 A 
BRANCH  22  27
HETATM   27  C   UNL     1       7.480  30.814  59.140  1.00  0.00     0.254 C 
HETATM   28  N   UNL     1       7.276  31.349  60.399  1.00  0.00    -0.352 N 
HETATM   29  H   UNL     1       6.491  31.970  60.542  1.00  0.00     0.163 HD
HETATM   30  O   UNL     1       8.386  30.024  58.884  1.00  0.00    -0.268 OA
BRANCH  28  31
HETATM   31  C   UNL     1       8.161  31.085  61.486  1.00  0.00     0.084 A 
HETATM   32  C   UNL     1       9.439  31.862  61.634  1.00  0.00     0.027 A 
HETATM   33  C   UNL     1       8.319  32.070  62.611  1.00  0.00     0.027 A 
ENDBRANCH  28  31
ENDBRANCH  22  27
ENDBRANCH   2  21
TORSDOF 9
ENDMDL
MODEL 5
REMARK VINA RESULT:      -8.4      3.140      6.669
REMARK  9 active torsions:
REMARK  status: ('A' for Active; 'I' for Inactive)
REMARK    1  A    between atoms: C_2  and  N_3 
REMARK    2  A    between atoms: C_6  and  C_7 
REMARK    3  A    between atoms: C_7  and  O_8 
REMARK    4  A    between atoms: O_8  and  C_9 
REMARK    5  A    between atoms: C_12  and  C_13 
REMARK    6  A    between atoms: C_14  and  C_15 
REMARK       I    between atoms: C_15  and  N_16 
REMARK    7  A    between atoms: N_16  and  C_17 
REMARK    8  A    between atoms: C_18  and  C_19 
REMARK       I    between atoms: C_19  and  N_20 
REMARK    9  A    between atoms: N_20  and  C_21 
ROOT
HETATM    1  C   UNL     1       6.514  25.154  52.164  1.00  0.00     0.245 C 
HETATM    2  N   UNL     1       6.218  24.304  53.217  1.00  0.00    -0.323 N 
HETATM    3  O   UNL     1       7.629  25.414  51.735  1.00  0.00    -0.268 OA
HETATM    4  H   UNL     1       5.282  23.916  53.189  1.00  0.00     0.169 HD
ENDROOT
BRANCH   1   5
HETATM    5  C   UNL     1       5.282  25.637  51.492  1.00  0.00     0.075 C 
HETATM    6  C   UNL     1       5.330  26.817  50.856  1.00  0.00     0.020 C 
BRANCH   6   7
HETATM    7  C   UNL     1       4.250  27.442  50.155  1.00  0.00     0.005 A 
HETATM    8  C   UNL     1       3.508  28.585  50.603  1.00  0.00     0.073 A 
HETATM    9  C   UNL     1       2.617  28.898  49.575  1.00  0.00     0.025 A 
HETATM   10  N   UNL     1       2.831  28.016  48.535  1.00  0.00    -0.353 N 
HETATM   11  C   UNL     1       1.607  30.002  49.538  1.00  0.00     0.069 C 
HETATM   12  C   UNL     1       3.802  27.095  48.890  1.00  0.00     0.019 A 
HETATM   13  C   UNL     1       4.245  26.018  47.955  1.00  0.00     0.069 C 
BRANCH   8  14
HETATM   14  C   UNL     1       3.612  29.335  51.866  1.00  0.00     0.296 C 
HETATM   15  O   UNL     1       4.055  30.477  51.942  1.00  0.00    -0.259 OA
BRANCH  14  16
HETATM   16  O   UNL     1       3.178  28.624  52.945  1.00  0.00    -0.318 OA
BRANCH  16  17
HETATM   17  C   UNL     1       4.176  28.213  53.888  1.00  0.00     0.174 C 
HETATM   18  C   UNL     1       4.041  29.012  55.171  1.00  0.00     0.034 C 
ENDBRANCH  16  17
ENDBRANCH  14  16
ENDBRANCH   8  14
BRANCH  10  19
HETATM   19  C   UNL     1       2.186  28.089  47.227  1.00  0.00     0.124 C 
HETATM   20  C   UNL     1       0.908  27.273  47.157  1.00  0.00     0.027 C 
ENDBRANCH  10  19
ENDBRANCH   6   7
ENDBRANCH   1   5
BRANCH   2  21
HETATM   21  C   UNL     1       7.207  23.483  53.824  1.00  0.00     0.050 A 
HETATM   22  C   UNL     1       7.905  23.775  55.012  1.00  0.00     0.058 A 
HETATM   23  C   UNL     1       8.963  22.931  55.407  1.00  0.00     0.019 A 
HETATM   24  C   UNL     1       9.295  21.796  54.668  1.00  0.00     0.001 A 
HETATM   25  C   UNL     1       8.560  21.474  53.534  1.00  0.00     0.002 A 
HETATM   26  C   UNL     1       7.517  22.304  53.122  1.00  0.00     0.030 A 
BRANCH  22  27
HETATM   27  C   UNL     1       7.544  24.834  56.002  1.00  0.00     0.254 C 
HETATM   28  N   UNL     1       7.661  26.143  55.570  1.00  0.00    -0.352 N 
HETATM   29  H   UNL     1       8.046  26.320  54.652  1.00  0.00     0.163 HD
HETATM   30  O   UNL     1       7.056  24.526  57.086  1.00  0.00    -0.268 OA
BRANCH  28  31
HETATM   31  C   UNL     1       7.295  27.248  56.395  1.00  0.00     0.084 A 
HETATM   32  C   UNL     1       8.325  27.938  57.244  1.00  0.00     0.027 A 
HETATM   33  C   UNL     1       7.739  28.645  56.058  1.00  0.00     0.027 A 
ENDBRANCH  28  31
ENDBRANCH  22  27
ENDBRANCH   2  21
TORSDOF 9
ENDMDL
MODEL 6
REMARK VINA RESULT:      -8.3      3.613      7.208
REMARK  9 active torsions:
REMARK  status: ('A' for Active; 'I' for Inactive)
REMARK    1  A    between atoms: C_2  and  N_3 
REMARK    2  A    between atoms: C_6  and  C_7 
REMARK    3  A    between atoms: C_7  and  O_8 
REMARK    4  A    between atoms: O_8  and  C_9 
REMARK    5  A    between atoms: C_12  and  C_13 
REMARK    6  A    between atoms: C_14  and  C_15 
REMARK       I    between atoms: C_15  and  N_16 
REMARK    7  A    between atoms: N_16  and  C_17 
REMARK    8  A    between atoms: C_18  and  C_19 
REMARK       I    between atoms: C_19  and  N_20 
REMARK    9  A    between atoms: N_20  and  C_21 
ROOT
HETATM    1  C   UNL     1       5.375  26.742  51.456  1.00  0.00     0.245 C 
HETATM    2  N   UNL     1       5.625  26.588  50.102  1.00  0.00    -0.323 N 
HETATM    3  O   UNL     1       4.351  27.179  51.959  1.00  0.00    -0.268 OA
HETATM    4  H   UNL     1       6.324  25.887  49.884  1.00  0.00     0.169 HD
ENDROOT
BRANCH   1   5
HETATM    5  C   UNL     1       6.473  26.175  52.279  1.00  0.00     0.075 C 
HETATM    6  C   UNL     1       6.144  25.431  53.346  1.00  0.00     0.020 C 
BRANCH   6   7
HETATM    7  C   UNL     1       7.058  24.805  54.252  1.00  0.00     0.005 A 
HETATM    8  C   UNL     1       7.423  25.296  55.549  1.00  0.00     0.073 A 
HETATM    9  C   UNL     1       8.265  24.333  56.107  1.00  0.00     0.025 A 
HETATM   10  N   UNL     1       8.377  23.287  55.213  1.00  0.00    -0.353 N 
HETATM   11  C   UNL     1       8.932  24.359  57.447  1.00  0.00     0.069 C 
HETATM   12  C   UNL     1       7.674  23.578  54.056  1.00  0.00     0.019 A 
HETATM   13  C   UNL     1       7.611  22.622  52.911  1.00  0.00     0.069 C 
BRANCH   8  14
HETATM   14  C   UNL     1       7.027  26.542  56.226  1.00  0.00     0.296 C 
HETATM   15  O   UNL     1       5.973  26.674  56.841  1.00  0.00    -0.259 OA
BRANCH  14  16
HETATM   16  O   UNL     1       7.946  27.539  56.087  1.00  0.00    -0.318 OA
BRANCH  16  17
HETATM   17  C   UNL     1       8.400  28.167  57.292  1.00  0.00     0.174 C 
HETATM   18  C   UNL     1       9.625  29.017  57.007  1.00  0.00     0.034 C 
ENDBRANCH  16  17
ENDBRANCH  14  16
ENDBRANCH   8  14
BRANCH  10  19
HETATM   19  C   UNL     1       9.068  22.028  55.476  1.00  0.00     0.124 C 
HETATM   20  C   UNL     1       8.181  21.003  56.159  1.00  0.00     0.027 C 
ENDBRANCH  10  19
ENDBRANCH   6   7
ENDBRANCH   1   5
BRANCH   2  21
HETATM   21  C   UNL     1       4.611  26.773  49.124  1.00  0.00     0.050 A 
HETATM   22  C   UNL     1       4.211  28.006  48.573  1.00  0.00     0.058 A 
HETATM   23  C   UNL     1       3.088  28.042  47.722  1.00  0.00     0.019 A 
HETATM   24  C   UNL     1       2.402  26.876  47.383  1.00  0.00     0.001 A 
HETATM   25  C   UNL     1       2.841  25.652  47.873  1.00  0.00     0.002 A 
HETATM   26  C   UNL     1       3.944  25.600  48.727  1.00  0.00     0.030 A 
BRANCH  22  27
HETATM   27  C   UNL     1       4.954  29.298  48.687  1.00  0.00     0.254 C 
HETATM   28  N   UNL     1       4.289  30.429  48.251  1.00  0.00    -0.352 N 
HETATM   29  H   UNL     1       3.381  30.323  47.819  1.00  0.00     0.163 HD
HETATM   30  O   UNL     1       6.043  29.335  49.254  1.00  0.00    -0.268 OA
BRANCH  28  31
HETATM   31  C   UNL     1       4.860  31.732  48.356  1.00  0.00     0.084 A 
HETATM   32  C   UNL     1       5.322  32.462  47.126  1.00  0.00     0.027 A 
HETATM   33  C   UNL     1       4.115  32.945  47.874  1.00  0.00     0.027 A 
ENDBRANCH  28  31
ENDBRANCH  22  27
ENDBRANCH   2  21
TORSDOF 9
ENDMDL
MODEL 7
REMARK VINA RESULT:      -8.3      1.945      4.238
REMARK  9 active torsions:
REMARK  status: ('A' for Active; 'I' for Inactive)
REMARK    1  A    between atoms: C_2  and  N_3 
REMARK    2  A    between atoms: C_6  and  C_7 
REMARK    3  A    between atoms: C_7  and  O_8 
REMARK    4  A    between atoms: O_8  and  C_9 
REMARK    5  A    between atoms: C_12  and  C_13 
REMARK    6  A    between atoms: C_14  and  C_15 
REMARK       I    between atoms: C_15  and  N_16 
REMARK    7  A    between atoms: N_16  and  C_17 
REMARK    8  A    between atoms: C_18  and  C_19 
REMARK       I    between atoms: C_19  and  N_20 
REMARK    9  A    between atoms: N_20  and  C_21 
ROOT
HETATM    1  C   UNL     1       6.684  28.139  55.520  1.00  0.00     0.245 C 
HETATM    2  N   UNL     1       5.627  27.327  55.142  1.00  0.00    -0.323 N 
HETATM    3  O   UNL     1       7.665  28.414  54.845  1.00  0.00    -0.268 OA
HETATM    4  H   UNL     1       4.762  27.513  55.636  1.00  0.00     0.169 HD
ENDROOT
BRANCH   1   5
HETATM    5  C   UNL     1       6.434  28.779  56.836  1.00  0.00     0.075 C 
HETATM    6  C   UNL     1       6.523  30.115  56.917  1.00  0.00     0.020 C 
BRANCH   6   7
HETATM    7  C   UNL     1       6.317  30.905  58.093  1.00  0.00     0.005 A 
HETATM    8  C   UNL     1       7.323  31.261  59.051  1.00  0.00     0.073 A 
HETATM    9  C   UNL     1       6.698  32.100  59.976  1.00  0.00     0.025 A 
HETATM   10  N   UNL     1       5.388  32.279  59.581  1.00  0.00    -0.353 N 
HETATM   11  C   UNL     1       7.300  32.746  61.185  1.00  0.00     0.069 C 
HETATM   12  C   UNL     1       5.129  31.524  58.450  1.00  0.00     0.019 A 
HETATM   13  C   UNL     1       3.788  31.526  57.791  1.00  0.00     0.069 C 
BRANCH   8  14
HETATM   14  C   UNL     1       8.741  30.872  59.112  1.00  0.00     0.296 C 
HETATM   15  O   UNL     1       9.181  30.033  59.892  1.00  0.00    -0.259 OA
BRANCH  14  16
HETATM   16  O   UNL     1       9.518  31.550  58.221  1.00  0.00    -0.318 OA
BRANCH  16  17
HETATM   17  C   UNL     1      10.688  30.875  57.743  1.00  0.00     0.174 C 
HETATM   18  C   UNL     1      10.331  29.977  56.574  1.00  0.00     0.034 C 
ENDBRANCH  16  17
ENDBRANCH  14  16
ENDBRANCH   8  14
BRANCH  10  19
HETATM   19  C   UNL     1       4.438  33.190  60.213  1.00  0.00     0.124 C 
HETATM   20  C   UNL     1       3.656  32.534  61.338  1.00  0.00     0.027 C 
ENDBRANCH  10  19
ENDBRANCH   6   7
ENDBRANCH   1   5
BRANCH   2  21
HETATM   21  C   UNL     1       5.487  26.845  53.813  1.00  0.00     0.050 A 
HETATM   22  C   UNL     1       5.992  25.626  53.320  1.00  0.00     0.058 A 
HETATM   23  C   UNL     1       5.900  25.356  51.940  1.00  0.00     0.019 A 
HETATM   24  C   UNL     1       5.278  26.251  51.070  1.00  0.00     0.001 A 
HETATM   25  C   UNL     1       4.719  27.421  51.570  1.00  0.00     0.002 A 
HETATM   26  C   UNL     1       4.813  27.710  52.932  1.00  0.00     0.030 A 
BRANCH  22  27
HETATM   27  C   UNL     1       6.507  24.493  54.148  1.00  0.00     0.254 C 
HETATM   28  N   UNL     1       7.080  23.440  53.459  1.00  0.00    -0.352 N 
HETATM   29  H   UNL     1       7.058  23.451  52.448  1.00  0.00     0.163 HD
HETATM   30  O   UNL     1       6.519  24.580  55.374  1.00  0.00    -0.268 OA
BRANCH  28  31
HETATM   31  C   UNL     1       7.661  22.323  54.129  1.00  0.00     0.084 A 
HETATM   32  C   UNL     1       7.936  21.046  53.384  1.00  0.00     0.027 A 
HETATM   33  C   UNL     1       9.077  21.903  53.848  1.00  0.00     0.027 A 
ENDBRANCH  28  31
ENDBRANCH  22  27
ENDBRANCH   2  21
TORSDOF 9
ENDMDL
MODEL 8
REMARK VINA RESULT:      -8.0      2.375      5.146
REMARK  9 active torsions:
REMARK  status: ('A' for Active; 'I' for Inactive)
REMARK    1  A    between atoms: C_2  and  N_3 
REMARK    2  A    between atoms: C_6  and  C_7 
REMARK    3  A    between atoms: C_7  and  O_8 
REMARK    4  A    between atoms: O_8  and  C_9 
REMARK    5  A    between atoms: C_12  and  C_13 
REMARK    6  A    between atoms: C_14  and  C_15 
REMARK       I    between atoms: C_15  and  N_16 
REMARK    7  A    between atoms: N_16  and  C_17 
REMARK    8  A    between atoms: C_18  and  C_19 
REMARK       I    between atoms: C_19  and  N_20 
REMARK    9  A    between atoms: N_20  and  C_21 
ROOT
HETATM    1  C   UNL     1       6.804  27.905  56.201  1.00  0.00     0.245 C 
HETATM    2  N   UNL     1       5.896  26.863  56.102  1.00  0.00    -0.323 N 
HETATM    3  O   UNL     1       7.677  28.185  55.392  1.00  0.00    -0.268 OA
HETATM    4  H   UNL     1       5.042  27.004  56.628  1.00  0.00     0.169 HD
ENDROOT
BRANCH   1   5
HETATM    5  C   UNL     1       6.516  28.769  57.373  1.00  0.00     0.075 C 
HETATM    6  C   UNL     1       6.935  30.042  57.339  1.00  0.00     0.020 C 
BRANCH   6   7
HETATM    7  C   UNL     1       6.750  31.019  58.368  1.00  0.00     0.005 A 
HETATM    8  C   UNL     1       5.537  31.736  58.639  1.00  0.00     0.073 A 
HETATM    9  C   UNL     1       5.788  32.512  59.771  1.00  0.00     0.025 A 
HETATM   10  N   UNL     1       7.077  32.254  60.195  1.00  0.00    -0.353 N 
HETATM   11  C   UNL     1       4.855  33.453  60.466  1.00  0.00     0.069 C 
HETATM   12  C   UNL     1       7.691  31.370  59.324  1.00  0.00     0.019 A 
HETATM   13  C   UNL     1       9.094  30.903  59.536  1.00  0.00     0.069 C 
BRANCH   8  14
HETATM   14  C   UNL     1       4.251  31.706  57.923  1.00  0.00     0.296 C 
HETATM   15  O   UNL     1       3.245  31.156  58.361  1.00  0.00    -0.259 OA
BRANCH  14  16
HETATM   16  O   UNL     1       4.297  32.340  56.718  1.00  0.00    -0.318 OA
BRANCH  16  17
HETATM   17  C   UNL     1       4.104  33.760  56.731  1.00  0.00     0.174 C 
HETATM   18  C   UNL     1       4.968  34.413  55.668  1.00  0.00     0.034 C 
ENDBRANCH  16  17
ENDBRANCH  14  16
ENDBRANCH   8  14
BRANCH  10  19
HETATM   19  C   UNL     1       7.677  32.773  61.420  1.00  0.00     0.124 C 
HETATM   20  C   UNL     1       7.454  31.861  62.614  1.00  0.00     0.027 C 
ENDBRANCH  10  19
ENDBRANCH   6   7
ENDBRANCH   1   5
BRANCH   2  21
HETATM   21  C   UNL     1       5.772  26.082  54.922  1.00  0.00     0.050 A 
HETATM   22  C   UNL     1       6.382  24.833  54.691  1.00  0.00     0.058 A 
HETATM   23  C   UNL     1       6.283  24.251  53.411  1.00  0.00     0.019 A 
HETATM   24  C   UNL     1       5.557  24.867  52.392  1.00  0.00     0.001 A 
HETATM   25  C   UNL     1       4.900  26.065  52.644  1.00  0.00     0.002 A 
HETATM   26  C   UNL     1       4.997  26.661  53.901  1.00  0.00     0.030 A 
BRANCH  22  27
HETATM   27  C   UNL     1       7.024  23.968  55.727  1.00  0.00     0.254 C 
HETATM   28  N   UNL     1       7.497  22.742  55.295  1.00  0.00    -0.352 N 
HETATM   29  H   UNL     1       7.326  22.464  54.338  1.00  0.00     0.163 HD
HETATM   30  O   UNL     1       7.216  24.401  56.861  1.00  0.00    -0.268 OA
BRANCH  28  31
HETATM   31  C   UNL     1       8.181  21.844  56.168  1.00  0.00     0.084 A 
HETATM   32  C   UNL     1       7.830  20.383  56.184  1.00  0.00     0.027 A 
HETATM   33  C   UNL     1       9.150  20.828  55.628  1.00  0.00     0.027 A 
ENDBRANCH  28  31
ENDBRANCH  22  27
ENDBRANCH   2  21
TORSDOF 9
ENDMDL
MODEL 9
REMARK VINA RESULT:      -8.0      2.382      8.555
REMARK  9 active torsions:
REMARK  status: ('A' for Active; 'I' for Inactive)
REMARK    1  A    between atoms: C_2  and  N_3 
REMARK    2  A    between atoms: C_6  and  C_7 
REMARK    3  A    between atoms: C_7  and  O_8 
REMARK    4  A    between atoms: O_8  and  C_9 
REMARK    5  A    between atoms: C_12  and  C_13 
REMARK    6  A    between atoms: C_14  and  C_15 
REMARK       I    between atoms: C_15  and  N_16 
REMARK    7  A    between atoms: N_16  and  C_17 
REMARK    8  A    between atoms: C_18  and  C_19 
REMARK       I    between atoms: C_19  and  N_20 
REMARK    9  A    between atoms: N_20  and  C_21 
ROOT
HETATM    1  C   UNL     1       4.638  30.775  57.383  1.00  0.00     0.245 C 
HETATM    2  N   UNL     1       4.282  30.779  58.722  1.00  0.00    -0.323 N 
HETATM    3  O   UNL     1       4.858  31.757  56.689  1.00  0.00    -0.268 OA
HETATM    4  H   UNL     1       4.511  29.924  59.216  1.00  0.00     0.169 HD
ENDROOT
BRANCH   1   5
HETATM    5  C   UNL     1       4.868  29.395  56.885  1.00  0.00     0.075 C 
HETATM    6  C   UNL     1       5.882  29.191  56.031  1.00  0.00     0.020 C 
BRANCH   6   7
HETATM    7  C   UNL     1       6.255  27.939  55.448  1.00  0.00     0.005 A 
HETATM    8  C   UNL     1       7.186  26.999  56.002  1.00  0.00     0.073 A 
HETATM    9  C   UNL     1       7.178  25.894  55.149  1.00  0.00     0.025 A 
HETATM   10  N   UNL     1       6.260  26.130  54.146  1.00  0.00    -0.353 N 
HETATM   11  C   UNL     1       7.979  24.635  55.267  1.00  0.00     0.069 C 
HETATM   12  C   UNL     1       5.713  27.394  54.294  1.00  0.00     0.019 A 
HETATM   13  C   UNL     1       4.681  27.921  53.352  1.00  0.00     0.069 C 
BRANCH   8  14
HETATM   14  C   UNL     1       8.010  27.100  57.218  1.00  0.00     0.296 C 
HETATM   15  O   UNL     1       7.633  26.729  58.325  1.00  0.00    -0.259 OA
BRANCH  14  16
HETATM   16  O   UNL     1       9.230  27.662  56.989  1.00  0.00    -0.318 OA
BRANCH  16  17
HETATM   17  C   UNL     1       9.340  29.074  57.210  1.00  0.00     0.174 C 
HETATM   18  C   UNL     1      10.128  29.718  56.085  1.00  0.00     0.034 C 
ENDBRANCH  16  17
ENDBRANCH  14  16
ENDBRANCH   8  14
BRANCH  10  19
HETATM   19  C   UNL     1       5.864  25.164  53.125  1.00  0.00     0.124 C 
HETATM   20  C   UNL     1       6.757  25.208  51.898  1.00  0.00     0.027 C 
ENDBRANCH  10  19
ENDBRANCH   6   7
ENDBRANCH   1   5
BRANCH   2  21
HETATM   21  C   UNL     1       4.299  31.966  59.502  1.00  0.00     0.050 A 
HETATM   22  C   UNL     1       5.413  32.487  60.188  1.00  0.00     0.058 A 
HETATM   23  C   UNL     1       5.234  33.594  61.041  1.00  0.00     0.019 A 
HETATM   24  C   UNL     1       3.988  34.205  61.178  1.00  0.00     0.001 A 
HETATM   25  C   UNL     1       2.905  33.731  60.447  1.00  0.00     0.002 A 
HETATM   26  C   UNL     1       3.062  32.628  59.607  1.00  0.00     0.030 A 
BRANCH  22  27
HETATM   27  C   UNL     1       6.834  32.066  59.996  1.00  0.00     0.254 C 
HETATM   28  N   UNL     1       7.357  31.216  60.954  1.00  0.00    -0.352 N 
HETATM   29  H   UNL     1       6.791  30.983  61.758  1.00  0.00     0.163 HD
HETATM   30  O   UNL     1       7.436  32.374  58.970  1.00  0.00    -0.268 OA
BRANCH  28  31
HETATM   31  C   UNL     1       8.681  30.693  60.860  1.00  0.00     0.084 A 
HETATM   32  C   UNL     1       9.851  31.489  61.368  1.00  0.00     0.027 A 
HETATM   33  C   UNL     1       9.424  30.244  62.088  1.00  0.00     0.027 A 
ENDBRANCH  28  31
ENDBRANCH  22  27
ENDBRANCH   2  21
TORSDOF 9
ENDMDL
MODEL 10
REMARK VINA RESULT:      -8.0      1.974      4.848
REMARK  9 active torsions:
REMARK  status: ('A' for Active; 'I' for Inactive)
REMARK    1  A    between atoms: C_2  and  N_3 
REMARK    2  A    between atoms: C_6  and  C_7 
REMARK    3  A    between atoms: C_7  and  O_8 
REMARK    4  A    between atoms: O_8  and  C_9 
REMARK    5  A    between atoms: C_12  and  C_13 
REMARK    6  A    between atoms: C_14  and  C_15 
REMARK       I    between atoms: C_15  and  N_16 
REMARK    7  A    between atoms: N_16  and  C_17 
REMARK    8  A    between atoms: C_18  and  C_19 
REMARK       I    between atoms: C_19  and  N_20 
REMARK    9  A    between atoms: N_20  and  C_21 
ROOT
HETATM    1  C   UNL     1       5.122  28.927  54.274  1.00  0.00     0.245 C 
HETATM    2  N   UNL     1       5.768  28.906  53.048  1.00  0.00    -0.323 N 
HETATM    3  O   UNL     1       4.080  28.354  54.553  1.00  0.00    -0.268 OA
HETATM    4  H   UNL     1       6.762  29.097  53.098  1.00  0.00     0.169 HD
ENDROOT
BRANCH   1   5
HETATM    5  C   UNL     1       5.926  29.637  55.300  1.00  0.00     0.075 C 
HETATM    6  C   UNL     1       5.566  29.510  56.585  1.00  0.00     0.020 C 
BRANCH   6   7
HETATM    7  C   UNL     1       6.215  30.115  57.708  1.00  0.00     0.005 A 
HETATM    8  C   UNL     1       7.514  29.774  58.212  1.00  0.00     0.073 A 
HETATM    9  C   UNL     1       7.775  30.668  59.251  1.00  0.00     0.025 A 
HETATM   10  N   UNL     1       6.707  31.537  59.352  1.00  0.00    -0.353 N 
HETATM   11  C   UNL     1       8.993  30.740  60.118  1.00  0.00     0.069 C 
HETATM   12  C   UNL     1       5.727  31.188  58.438  1.00  0.00     0.019 A 
HETATM   13  C   UNL     1       4.454  31.960  58.316  1.00  0.00     0.069 C 
BRANCH   8  14
HETATM   14  C   UNL     1       8.443  28.721  57.772  1.00  0.00     0.296 C 
HETATM   15  O   UNL     1       9.481  28.946  57.156  1.00  0.00    -0.259 OA
BRANCH  14  16
HETATM   16  O   UNL     1       8.026  27.468  58.107  1.00  0.00    -0.318 OA
BRANCH  16  17
HETATM   17  C   UNL     1       7.871  26.532  57.033  1.00  0.00     0.174 C 
HETATM   18  C   UNL     1       8.454  25.187  57.425  1.00  0.00     0.034 C 
ENDBRANCH  16  17
ENDBRANCH  14  16
ENDBRANCH   8  14
BRANCH  10  19
HETATM   19  C   UNL     1       6.651  32.699  60.235  1.00  0.00     0.124 C 
HETATM   20  C   UNL     1       6.067  32.372  61.598  1.00  0.00     0.027 C 
ENDBRANCH  10  19
ENDBRANCH   6   7
ENDBRANCH   1   5
BRANCH   2  21
HETATM   21  C   UNL     1       5.357  28.046  51.995  1.00  0.00     0.050 A 
HETATM   22  C   UNL     1       5.916  26.789  51.690  1.00  0.00     0.058 A 
HETATM   23  C   UNL     1       5.498  26.121  50.522  1.00  0.00     0.019 A 
HETATM   24  C   UNL     1       4.514  26.661  49.694  1.00  0.00     0.001 A 
HETATM   25  C   UNL     1       3.915  27.868  50.034  1.00  0.00     0.002 A 
HETATM   26  C   UNL     1       4.325  28.549  51.181  1.00  0.00     0.030 A 
BRANCH  22  27
HETATM   27  C   UNL     1       6.830  26.001  52.572  1.00  0.00     0.254 C 
HETATM   28  N   UNL     1       7.051  24.686  52.207  1.00  0.00    -0.352 N 
HETATM   29  H   UNL     1       6.540  24.306  51.421  1.00  0.00     0.163 HD
HETATM   30  O   UNL     1       7.431  26.554  53.489  1.00  0.00    -0.268 OA
BRANCH  28  31
HETATM   31  C   UNL     1       7.945  23.840  52.928  1.00  0.00     0.084 A 
HETATM   32  C   UNL     1       7.493  23.149  54.184  1.00  0.00     0.027 A 
HETATM   33  C   UNL     1       7.756  22.348  52.943  1.00  0.00     0.027 A 
ENDBRANCH  28  31
ENDBRANCH  22  27
ENDBRANCH   2  21
TORSDOF 9
ENDMDL
