MODEL 1
REMARK VINA RESULT:     -10.7      0.000      0.000
REMARK  7 active torsions:
REMARK  status: ('A' for Active; 'I' for Inactive)
REMARK    1  A    between atoms: C_2  and  C_3 
REMARK    2  A    between atoms: C_5  and  N_6 
REMARK    3  A    between atoms: C_8  and  C_9 
REMARK    4  A    between atoms: C_15  and  N_16 
REMARK       I    between atoms: N_16  and  C_17 
REMARK    5  A    between atoms: C_17  and  C_18 
REMARK    6  A    between atoms: C_18  and  O_19 
REMARK    7  A    between atoms: O_19  and  C_20 
ROOT
HETATM    1  N   UNL     1       6.330  30.250  56.959  1.00  0.00    -0.044 N 
HETATM    2  N   UNL     1       6.735  31.090  57.963  1.00  0.00    -0.148 NA
HETATM    3  C   UNL     1       7.545  30.335  58.713  1.00  0.00     0.115 C 
HETATM    4  C   UNL     1       7.733  29.044  58.172  1.00  0.00     0.087 C 
HETATM    5  C   UNL     1       7.039  29.052  56.985  1.00  0.00     0.152 C 
ENDROOT
BRANCH   5   6
HETATM    6  N   UNL     1       7.073  28.009  56.071  1.00  0.00    -0.309 N 
HETATM    7  C   UNL     1       7.870  28.103  54.876  1.00  0.00     0.247 C 
HETATM    8  O   UNL     1       8.728  28.971  54.790  1.00  0.00    -0.271 OA
HETATM    9  H   UNL     1       6.635  27.118  56.283  1.00  0.00     0.170 HD
BRANCH   7  10
HETATM   10  C   UNL     1       7.555  27.079  53.807  1.00  0.00     0.278 C 
BRANCH  10  11
HETATM   11  O   UNL     1       6.742  26.043  54.352  1.00  0.00    -0.342 OA
BRANCH  11  12
HETATM   12  C   UNL     1       7.172  24.770  54.072  1.00  0.00     0.070 A 
HETATM   13  C   UNL     1       7.296  23.920  55.173  1.00  0.00     0.049 A 
HETATM   14  C   UNL     1       7.739  22.593  55.021  1.00  0.00    -0.023 A 
HETATM   15  C   UNL     1       8.043  22.111  53.729  1.00  0.00    -0.026 A 
HETATM   16  C   UNL     1       7.891  21.736  56.123  1.00  0.00     0.012 A 
HETATM   17  C   UNL     1       7.894  22.964  52.628  1.00  0.00     0.015 A 
HETATM   18  C   UNL     1       8.489  20.789  53.571  1.00  0.00     0.012 A 
HETATM   19  C   UNL     1       7.460  24.284  52.795  1.00  0.00     0.037 A 
HETATM   20  C   UNL     1       8.635  19.951  54.677  1.00  0.00     0.001 A 
HETATM   21  C   UNL     1       8.337  20.424  55.951  1.00  0.00     0.001 A 
ENDBRANCH  11  12
ENDBRANCH  10  11
ENDBRANCH   7  10
ENDBRANCH   5   6
BRANCH   1  22
HETATM   22  C   UNL     1       5.205  30.610  56.188  1.00  0.00     0.732 A 
HETATM   23  N   UNL     1       4.867  30.029  55.079  1.00  0.00    -0.067 NA
HETATM   24  C   UNL     1       3.715  30.496  54.472  1.00  0.00     0.062 A 
HETATM   25  C   UNL     1       2.941  31.462  54.996  1.00  0.00     0.103 A 
HETATM   26  C   UNL     1       3.332  32.078  56.272  1.00  0.00     0.261 A 
HETATM   27  N   UNL     1       4.493  31.610  56.795  1.00  0.00    -0.152 N 
HETATM   28  O   UNL     1       2.646  32.937  56.808  1.00  0.00    -0.268 OA
HETATM   29  H   UNL     1       4.805  31.981  57.688  1.00  0.00     0.187 HD
BRANCH  24  30
HETATM   30  C   UNL     1       3.332  29.857  53.144  1.00  0.00     0.030 C 
HETATM   31  C   UNL     1       3.714  28.375  53.090  1.00  0.00     0.016 C 
HETATM   32  C   UNL     1       3.946  30.624  51.973  1.00  0.00     0.016 C 
ENDBRANCH  24  30
ENDBRANCH   1  22
BRANCH   3  33
HETATM   33  C   UNL     1       8.178  30.836  59.967  1.00  0.00     0.105 A 
HETATM   34  O   UNL     1       9.029  30.102  60.748  1.00  0.00    -0.320 OA
HETATM   35  C   UNL     1       9.397  30.889  61.792  1.00  0.00     0.142 A 
HETATM   36  C   UNL     1       8.798  32.122  61.701  1.00  0.00     0.027 A 
HETATM   37  C   UNL     1       8.011  32.090  60.525  1.00  0.00     0.041 A 
ENDBRANCH   3  33
TORSDOF 7
ENDMDL
MODEL 2
REMARK VINA RESULT:     -10.6      2.589      4.485
REMARK  7 active torsions:
REMARK  status: ('A' for Active; 'I' for Inactive)
REMARK    1  A    between atoms: C_2  and  C_3 
REMARK    2  A    between atoms: C_5  and  N_6 
REMARK    3  A    between atoms: C_8  and  C_9 
REMARK    4  A    between atoms: C_15  and  N_16 
REMARK       I    between atoms: N_16  and  C_17 
REMARK    5  A    between atoms: C_17  and  C_18 
REMARK    6  A    between atoms: C_18  and  O_19 
REMARK    7  A    between atoms: O_19  and  C_20 
ROOT
HETATM    1  N   UNL     1       6.401  32.104  60.253  1.00  0.00    -0.044 N 
HETATM    2  N   UNL     1       5.976  32.889  61.293  1.00  0.00    -0.148 NA
HETATM    3  C   UNL     1       6.710  32.478  62.333  1.00  0.00     0.115 C 
HETATM    4  C   UNL     1       7.656  31.495  61.970  1.00  0.00     0.087 C 
HETATM    5  C   UNL     1       7.521  31.357  60.609  1.00  0.00     0.152 C 
ENDROOT
BRANCH   5   6
HETATM    6  N   UNL     1       8.363  30.575  59.832  1.00  0.00    -0.309 N 
HETATM    7  C   UNL     1       9.249  31.180  58.871  1.00  0.00     0.247 C 
HETATM    8  O   UNL     1       9.466  32.382  58.923  1.00  0.00    -0.271 OA
HETATM    9  H   UNL     1       8.457  29.580  60.007  1.00  0.00     0.170 HD
BRANCH   7  10
HETATM   10  C   UNL     1       9.844  30.230  57.854  1.00  0.00     0.278 C 
BRANCH  10  11
HETATM   11  O   UNL     1       9.286  28.928  58.021  1.00  0.00    -0.342 OA
BRANCH  11  12
HETATM   12  C   UNL     1       8.710  28.403  56.892  1.00  0.00     0.070 A 
HETATM   13  C   UNL     1       8.168  27.123  57.033  1.00  0.00     0.049 A 
HETATM   14  C   UNL     1       7.558  26.468  55.947  1.00  0.00    -0.023 A 
HETATM   15  C   UNL     1       7.480  27.127  54.700  1.00  0.00    -0.026 A 
HETATM   16  C   UNL     1       7.030  25.173  56.068  1.00  0.00     0.012 A 
HETATM   17  C   UNL     1       8.007  28.419  54.574  1.00  0.00     0.015 A 
HETATM   18  C   UNL     1       6.876  26.477  53.611  1.00  0.00     0.012 A 
HETATM   19  C   UNL     1       8.616  29.054  55.661  1.00  0.00     0.037 A 
HETATM   20  C   UNL     1       6.358  25.190  53.749  1.00  0.00     0.001 A 
HETATM   21  C   UNL     1       6.435  24.538  54.976  1.00  0.00     0.001 A 
ENDBRANCH  11  12
ENDBRANCH  10  11
ENDBRANCH   7  10
ENDBRANCH   5   6
BRANCH   1  22
HETATM   22  C   UNL     1       5.604  32.028  59.092  1.00  0.00     0.732 A 
HETATM   23  N   UNL     1       5.751  31.131  58.166  1.00  0.00    -0.067 NA
HETATM   24  C   UNL     1       4.857  31.192  57.112  1.00  0.00     0.062 A 
HETATM   25  C   UNL     1       3.855  32.084  57.040  1.00  0.00     0.103 A 
HETATM   26  C   UNL     1       3.692  33.066  58.122  1.00  0.00     0.261 A 
HETATM   27  N   UNL     1       4.625  32.986  59.105  1.00  0.00    -0.152 N 
HETATM   28  O   UNL     1       2.778  33.878  58.122  1.00  0.00    -0.268 OA
HETATM   29  H   UNL     1       4.553  33.623  59.893  1.00  0.00     0.187 HD
BRANCH  24  30
HETATM   30  C   UNL     1       5.047  30.177  55.993  1.00  0.00     0.030 C 
HETATM   31  C   UNL     1       4.232  30.536  54.748  1.00  0.00     0.016 C 
HETATM   32  C   UNL     1       4.716  28.764  56.477  1.00  0.00     0.016 C 
ENDBRANCH  24  30
ENDBRANCH   1  22
BRANCH   3  33
HETATM   33  C   UNL     1       6.535  33.031  63.708  1.00  0.00     0.105 A 
HETATM   34  O   UNL     1       5.323  33.241  64.306  1.00  0.00    -0.320 OA
HETATM   35  C   UNL     1       5.566  33.746  65.543  1.00  0.00     0.142 A 
HETATM   36  C   UNL     1       6.918  33.869  65.756  1.00  0.00     0.027 A 
HETATM   37  C   UNL     1       7.545  33.408  64.573  1.00  0.00     0.041 A 
ENDBRANCH   3  33
TORSDOF 7
ENDMDL
MODEL 3
REMARK VINA RESULT:     -10.5      1.683      5.762
REMARK  7 active torsions:
REMARK  status: ('A' for Active; 'I' for Inactive)
REMARK    1  A    between atoms: C_2  and  C_3 
REMARK    2  A    between atoms: C_5  and  N_6 
REMARK    3  A    between atoms: C_8  and  C_9 
REMARK    4  A    between atoms: C_15  and  N_16 
REMARK       I    between atoms: N_16  and  C_17 
REMARK    5  A    between atoms: C_17  and  C_18 
REMARK    6  A    between atoms: C_18  and  O_19 
REMARK    7  A    between atoms: O_19  and  C_20 
ROOT
HETATM    1  N   UNL     1       5.804  31.076  58.123  1.00  0.00    -0.044 N 
HETATM    2  N   UNL     1       4.846  31.909  57.605  1.00  0.00    -0.148 NA
HETATM    3  C   UNL     1       4.422  31.275  56.507  1.00  0.00     0.115 C 
HETATM    4  C   UNL     1       5.032  30.011  56.345  1.00  0.00     0.087 C 
HETATM    5  C   UNL     1       5.825  29.854  57.456  1.00  0.00     0.152 C 
ENDROOT
BRANCH   5   6
HETATM    6  N   UNL     1       6.504  28.681  57.752  1.00  0.00    -0.309 N 
HETATM    7  C   UNL     1       7.773  28.390  57.138  1.00  0.00     0.247 C 
HETATM    8  O   UNL     1       8.388  29.283  56.572  1.00  0.00    -0.271 OA
HETATM    9  H   UNL     1       6.180  28.066  58.492  1.00  0.00     0.170 HD
BRANCH   7  10
HETATM   10  C   UNL     1       8.235  26.954  57.259  1.00  0.00     0.278 C 
BRANCH  10  11
HETATM   11  O   UNL     1       7.144  26.070  57.012  1.00  0.00    -0.342 OA
BRANCH  11  12
HETATM   12  C   UNL     1       7.323  25.224  55.946  1.00  0.00     0.070 A 
HETATM   13  C   UNL     1       7.417  23.867  56.265  1.00  0.00     0.049 A 
HETATM   14  C   UNL     1       7.613  22.897  55.264  1.00  0.00    -0.023 A 
HETATM   15  C   UNL     1       7.696  23.306  53.915  1.00  0.00    -0.026 A 
HETATM   16  C   UNL     1       7.733  21.533  55.573  1.00  0.00     0.012 A 
HETATM   17  C   UNL     1       7.578  24.667  53.603  1.00  0.00     0.015 A 
HETATM   18  C   UNL     1       7.894  22.343  52.911  1.00  0.00     0.012 A 
HETATM   19  C   UNL     1       7.391  25.620  54.609  1.00  0.00     0.037 A 
HETATM   20  C   UNL     1       8.013  20.992  53.236  1.00  0.00     0.001 A 
HETATM   21  C   UNL     1       7.932  20.587  54.565  1.00  0.00     0.001 A 
ENDBRANCH  11  12
ENDBRANCH  10  11
ENDBRANCH   7  10
ENDBRANCH   5   6
BRANCH   1  22
HETATM   22  C   UNL     1       6.699  31.590  59.084  1.00  0.00     0.732 A 
HETATM   23  N   UNL     1       6.358  31.924  60.290  1.00  0.00    -0.067 NA
HETATM   24  C   UNL     1       7.377  32.382  61.107  1.00  0.00     0.062 A 
HETATM   25  C   UNL     1       8.663  32.446  60.722  1.00  0.00     0.103 A 
HETATM   26  C   UNL     1       9.024  32.027  59.360  1.00  0.00     0.261 A 
HETATM   27  N   UNL     1       7.977  31.632  58.593  1.00  0.00    -0.152 N 
HETATM   28  O   UNL     1      10.183  32.035  58.971  1.00  0.00    -0.268 OA
HETATM   29  H   UNL     1       8.165  31.308  57.649  1.00  0.00     0.187 HD
BRANCH  24  30
HETATM   30  C   UNL     1       6.984  32.825  62.510  1.00  0.00     0.030 C 
HETATM   31  C   UNL     1       8.118  32.614  63.516  1.00  0.00     0.016 C 
HETATM   32  C   UNL     1       5.707  32.117  62.966  1.00  0.00     0.016 C 
ENDBRANCH  24  30
ENDBRANCH   1  22
BRANCH   3  33
HETATM   33  C   UNL     1       3.403  31.857  55.586  1.00  0.00     0.105 A 
HETATM   34  O   UNL     1       2.148  32.242  55.970  1.00  0.00    -0.320 OA
HETATM   35  C   UNL     1       1.518  32.722  54.866  1.00  0.00     0.142 A 
HETATM   36  C   UNL     1       2.346  32.652  53.771  1.00  0.00     0.027 A 
HETATM   37  C   UNL     1       3.562  32.094  54.233  1.00  0.00     0.041 A 
ENDBRANCH   3  33
TORSDOF 7
ENDMDL
MODEL 4
REMARK VINA RESULT:     -10.5      2.931      6.653
REMARK  7 active torsions:
REMARK  status: ('A' for Active; 'I' for Inactive)
REMARK    1  A    between atoms: C_2  and  C_3 
REMARK    2  A    between atoms: C_5  and  N_6 
REMARK    3  A    between atoms: C_8  and  C_9 
REMARK    4  A    between atoms: C_15  and  N_16 
REMARK       I    between atoms: N_16  and  C_17 
REMARK    5  A    between atoms: C_17  and  C_18 
REMARK    6  A    between atoms: C_18  and  O_19 
REMARK    7  A    between atoms: O_19  and  C_20 
ROOT
HETATM    1  N   UNL     1       7.394  27.671  56.544  1.00  0.00    -0.044 N 
HETATM    2  N   UNL     1       7.990  28.036  57.724  1.00  0.00    -0.148 NA
HETATM    3  C   UNL     1       7.978  29.373  57.695  1.00  0.00     0.115 C 
HETATM    4  C   UNL     1       7.316  29.882  56.556  1.00  0.00     0.087 C 
HETATM    5  C   UNL     1       6.846  28.773  55.893  1.00  0.00     0.152 C 
ENDROOT
BRANCH   5   6
HETATM    6  N   UNL     1       6.021  28.839  54.779  1.00  0.00    -0.309 N 
HETATM    7  C   UNL     1       4.618  28.536  54.885  1.00  0.00     0.247 C 
HETATM    8  O   UNL     1       4.092  28.489  55.988  1.00  0.00    -0.271 OA
HETATM    9  H   UNL     1       6.364  29.214  53.901  1.00  0.00     0.170 HD
BRANCH   7  10
HETATM   10  C   UNL     1       3.908  28.298  53.570  1.00  0.00     0.278 C 
BRANCH  10  11
HETATM   11  O   UNL     1       4.773  28.627  52.485  1.00  0.00    -0.342 OA
BRANCH  11  12
HETATM   12  C   UNL     1       4.437  28.046  51.288  1.00  0.00     0.070 A 
HETATM   13  C   UNL     1       3.321  28.588  50.647  1.00  0.00     0.049 A 
HETATM   14  C   UNL     1       2.867  28.074  49.419  1.00  0.00    -0.023 A 
HETATM   15  C   UNL     1       3.565  27.003  48.818  1.00  0.00    -0.026 A 
HETATM   16  C   UNL     1       1.732  28.594  48.776  1.00  0.00     0.012 A 
HETATM   17  C   UNL     1       4.697  26.480  49.458  1.00  0.00     0.015 A 
HETATM   18  C   UNL     1       3.115  26.483  47.594  1.00  0.00     0.012 A 
HETATM   19  C   UNL     1       5.132  26.997  50.682  1.00  0.00     0.037 A 
HETATM   20  C   UNL     1       1.985  27.011  46.970  1.00  0.00     0.001 A 
HETATM   21  C   UNL     1       1.294  28.066  47.560  1.00  0.00     0.001 A 
ENDBRANCH  11  12
ENDBRANCH  10  11
ENDBRANCH   7  10
ENDBRANCH   5   6
BRANCH   1  22
HETATM   22  C   UNL     1       7.550  26.345  56.089  1.00  0.00     0.732 A 
HETATM   23  N   UNL     1       7.358  25.970  54.862  1.00  0.00    -0.067 NA
HETATM   24  C   UNL     1       7.588  24.633  54.590  1.00  0.00     0.062 A 
HETATM   25  C   UNL     1       8.030  23.756  55.507  1.00  0.00     0.103 A 
HETATM   26  C   UNL     1       8.272  24.219  56.882  1.00  0.00     0.261 A 
HETATM   27  N   UNL     1       7.985  25.527  57.097  1.00  0.00    -0.152 N 
HETATM   28  O   UNL     1       8.705  23.469  57.745  1.00  0.00    -0.268 OA
HETATM   29  H   UNL     1       8.154  25.912  58.022  1.00  0.00     0.187 HD
BRANCH  24  30
HETATM   30  C   UNL     1       7.320  24.168  53.165  1.00  0.00     0.030 C 
HETATM   31  C   UNL     1       7.763  22.720  52.942  1.00  0.00     0.016 C 
HETATM   32  C   UNL     1       7.979  25.106  52.153  1.00  0.00     0.016 C 
ENDBRANCH  24  30
ENDBRANCH   1  22
BRANCH   3  33
HETATM   33  C   UNL     1       8.588  30.205  58.772  1.00  0.00     0.105 A 
HETATM   34  O   UNL     1       8.500  29.923  60.108  1.00  0.00    -0.320 OA
HETATM   35  C   UNL     1       9.175  30.897  60.771  1.00  0.00     0.142 A 
HETATM   36  C   UNL     1       9.699  31.808  59.886  1.00  0.00     0.027 A 
HETATM   37  C   UNL     1       9.321  31.364  58.595  1.00  0.00     0.041 A 
ENDBRANCH   3  33
TORSDOF 7
ENDMDL
MODEL 5
REMARK VINA RESULT:     -10.2      2.947      9.605
REMARK  7 active torsions:
REMARK  status: ('A' for Active; 'I' for Inactive)
REMARK    1  A    between atoms: C_2  and  C_3 
REMARK    2  A    between atoms: C_5  and  N_6 
REMARK    3  A    between atoms: C_8  and  C_9 
REMARK    4  A    between atoms: C_15  and  N_16 
REMARK       I    between atoms: N_16  and  C_17 
REMARK    5  A    between atoms: C_17  and  C_18 
REMARK    6  A    between atoms: C_18  and  O_19 
REMARK    7  A    between atoms: O_19  and  C_20 
ROOT
HETATM    1  N   UNL     1       6.325  26.550  52.640  1.00  0.00    -0.044 N 
HETATM    2  N   UNL     1       6.000  26.124  51.378  1.00  0.00    -0.148 NA
HETATM    3  C   UNL     1       5.259  27.120  50.878  1.00  0.00     0.115 C 
HETATM    4  C   UNL     1       5.162  28.216  51.764  1.00  0.00     0.087 C 
HETATM    5  C   UNL     1       5.952  27.877  52.837  1.00  0.00     0.152 C 
ENDROOT
BRANCH   5   6
HETATM    6  N   UNL     1       6.236  28.744  53.882  1.00  0.00    -0.309 N 
HETATM    7  C   UNL     1       5.305  28.920  54.966  1.00  0.00     0.247 C 
HETATM    8  O   UNL     1       4.397  28.115  55.117  1.00  0.00    -0.271 OA
HETATM    9  H   UNL     1       7.150  29.178  53.963  1.00  0.00     0.170 HD
BRANCH   7  10
HETATM   10  C   UNL     1       5.554  30.128  55.842  1.00  0.00     0.278 C 
BRANCH  10  11
HETATM   11  O   UNL     1       6.769  29.959  56.568  1.00  0.00    -0.342 OA
BRANCH  11  12
HETATM   12  C   UNL     1       6.838  30.665  57.743  1.00  0.00     0.070 A 
HETATM   13  C   UNL     1       7.868  30.291  58.610  1.00  0.00     0.049 A 
HETATM   14  C   UNL     1       8.039  30.930  59.852  1.00  0.00    -0.023 A 
HETATM   15  C   UNL     1       7.165  31.978  60.216  1.00  0.00    -0.026 A 
HETATM   16  C   UNL     1       9.056  30.548  60.743  1.00  0.00     0.012 A 
HETATM   17  C   UNL     1       6.149  32.360  59.330  1.00  0.00     0.015 A 
HETATM   18  C   UNL     1       7.329  32.617  61.456  1.00  0.00     0.012 A 
HETATM   19  C   UNL     1       5.986  31.711  58.102  1.00  0.00     0.037 A 
HETATM   20  C   UNL     1       8.343  32.224  62.329  1.00  0.00     0.001 A 
HETATM   21  C   UNL     1       9.205  31.191  61.974  1.00  0.00     0.001 A 
ENDBRANCH  11  12
ENDBRANCH  10  11
ENDBRANCH   7  10
ENDBRANCH   5   6
BRANCH   1  22
HETATM   22  C   UNL     1       6.807  25.606  53.570  1.00  0.00     0.732 A 
HETATM   23  N   UNL     1       6.977  25.850  54.833  1.00  0.00    -0.067 NA
HETATM   24  C   UNL     1       7.430  24.793  55.602  1.00  0.00     0.062 A 
HETATM   25  C   UNL     1       7.646  23.560  55.114  1.00  0.00     0.103 A 
HETATM   26  C   UNL     1       7.411  23.305  53.685  1.00  0.00     0.261 A 
HETATM   27  N   UNL     1       7.012  24.390  52.975  1.00  0.00    -0.152 N 
HETATM   28  O   UNL     1       7.561  22.194  53.197  1.00  0.00    -0.268 OA
HETATM   29  H   UNL     1       6.811  24.272  51.986  1.00  0.00     0.187 HD
BRANCH  24  30
HETATM   30  C   UNL     1       7.681  25.078  57.077  1.00  0.00     0.030 C 
HETATM   31  C   UNL     1       7.751  26.579  57.367  1.00  0.00     0.016 C 
HETATM   32  C   UNL     1       8.946  24.367  57.561  1.00  0.00     0.016 C 
ENDBRANCH  24  30
ENDBRANCH   1  22
BRANCH   3  33
HETATM   33  C   UNL     1       4.634  27.055  49.526  1.00  0.00     0.105 A 
HETATM   34  O   UNL     1       4.020  25.945  49.013  1.00  0.00    -0.320 OA
HETATM   35  C   UNL     1       3.576  26.269  47.770  1.00  0.00     0.142 A 
HETATM   36  C   UNL     1       3.894  27.572  47.469  1.00  0.00     0.027 A 
HETATM   37  C   UNL     1       4.577  28.081  48.600  1.00  0.00     0.041 A 
ENDBRANCH   3  33
TORSDOF 7
ENDMDL
MODEL 6
REMARK VINA RESULT:     -10.2      2.581      9.690
REMARK  7 active torsions:
REMARK  status: ('A' for Active; 'I' for Inactive)
REMARK    1  A    between atoms: C_2  and  C_3 
REMARK    2  A    between atoms: C_5  and  N_6 
REMARK    3  A    between atoms: C_8  and  C_9 
REMARK    4  A    between atoms: C_15  and  N_16 
REMARK       I    between atoms: N_16  and  C_17 
REMARK    5  A    between atoms: C_17  and  C_18 
REMARK    6  A    between atoms: C_18  and  O_19 
REMARK    7  A    between atoms: O_19  and  C_20 
ROOT
HETATM    1  N   UNL     1       6.693  25.773  54.089  1.00  0.00    -0.044 N 
HETATM    2  N   UNL     1       6.517  25.701  52.732  1.00  0.00    -0.148 NA
HETATM    3  C   UNL     1       5.669  26.699  52.459  1.00  0.00     0.115 C 
HETATM    4  C   UNL     1       5.352  27.464  53.603  1.00  0.00     0.087 C 
HETATM    5  C   UNL     1       6.113  26.925  54.613  1.00  0.00     0.152 C 
ENDROOT
BRANCH   5   6
HETATM    6  N   UNL     1       6.196  27.473  55.885  1.00  0.00    -0.309 N 
HETATM    7  C   UNL     1       7.399  28.129  56.326  1.00  0.00     0.247 C 
HETATM    8  O   UNL     1       8.247  28.450  55.506  1.00  0.00    -0.271 OA
HETATM    9  H   UNL     1       5.376  27.528  56.482  1.00  0.00     0.170 HD
BRANCH   7  10
HETATM   10  C   UNL     1       7.496  28.365  57.818  1.00  0.00     0.278 C 
BRANCH  10  11
HETATM   11  O   UNL     1       8.370  29.460  58.081  1.00  0.00    -0.342 OA
BRANCH  11  12
HETATM   12  C   UNL     1       7.846  30.428  58.900  1.00  0.00     0.070 A 
HETATM   13  C   UNL     1       8.444  30.541  60.157  1.00  0.00     0.049 A 
HETATM   14  C   UNL     1       7.991  31.488  61.095  1.00  0.00    -0.023 A 
HETATM   15  C   UNL     1       6.926  32.348  60.748  1.00  0.00    -0.026 A 
HETATM   16  C   UNL     1       8.568  31.596  62.371  1.00  0.00     0.012 A 
HETATM   17  C   UNL     1       6.347  32.241  59.477  1.00  0.00     0.015 A 
HETATM   18  C   UNL     1       6.467  33.292  61.681  1.00  0.00     0.012 A 
HETATM   19  C   UNL     1       6.803  31.290  58.558  1.00  0.00     0.037 A 
HETATM   20  C   UNL     1       7.051  33.385  62.944  1.00  0.00     0.001 A 
HETATM   21  C   UNL     1       8.100  32.538  63.289  1.00  0.00     0.001 A 
ENDBRANCH  11  12
ENDBRANCH  10  11
ENDBRANCH   7  10
ENDBRANCH   5   6
BRANCH   1  22
HETATM   22  C   UNL     1       7.249  24.664  54.759  1.00  0.00     0.732 A 
HETATM   23  N   UNL     1       7.190  23.444  54.321  1.00  0.00    -0.067 NA
HETATM   24  C   UNL     1       7.819  22.487  55.097  1.00  0.00     0.062 A 
HETATM   25  C   UNL     1       8.500  22.772  56.219  1.00  0.00     0.103 A 
HETATM   26  C   UNL     1       8.579  24.169  56.672  1.00  0.00     0.261 A 
HETATM   27  N   UNL     1       7.906  25.055  55.896  1.00  0.00    -0.152 N 
HETATM   28  O   UNL     1       9.214  24.487  57.667  1.00  0.00    -0.268 OA
HETATM   29  H   UNL     1       7.942  26.039  56.144  1.00  0.00     0.187 HD
BRANCH  24  30
HETATM   30  C   UNL     1       7.716  21.044  54.621  1.00  0.00     0.030 C 
HETATM   31  C   UNL     1       8.362  20.067  55.607  1.00  0.00     0.016 C 
HETATM   32  C   UNL     1       8.314  20.887  53.222  1.00  0.00     0.016 C 
ENDBRANCH  24  30
ENDBRANCH   1  22
BRANCH   3  33
HETATM   33  C   UNL     1       5.148  26.959  51.086  1.00  0.00     0.105 A 
HETATM   34  O   UNL     1       4.821  25.980  50.187  1.00  0.00    -0.320 OA
HETATM   35  C   UNL     1       4.387  26.598  49.059  1.00  0.00     0.142 A 
HETATM   36  C   UNL     1       4.428  27.964  49.211  1.00  0.00     0.027 A 
HETATM   37  C   UNL     1       4.919  28.198  50.518  1.00  0.00     0.041 A 
ENDBRANCH   3  33
TORSDOF 7
ENDMDL
MODEL 7
REMARK VINA RESULT:     -10.2      2.181      8.740
REMARK  7 active torsions:
REMARK  status: ('A' for Active; 'I' for Inactive)
REMARK    1  A    between atoms: C_2  and  C_3 
REMARK    2  A    between atoms: C_5  and  N_6 
REMARK    3  A    between atoms: C_8  and  C_9 
REMARK    4  A    between atoms: C_15  and  N_16 
REMARK       I    between atoms: N_16  and  C_17 
REMARK    5  A    between atoms: C_17  and  C_18 
REMARK    6  A    between atoms: C_18  and  O_19 
REMARK    7  A    between atoms: O_19  and  C_20 
ROOT
HETATM    1  N   UNL     1       6.216  26.499  56.262  1.00  0.00    -0.044 N 
HETATM    2  N   UNL     1       6.140  25.195  55.847  1.00  0.00    -0.148 NA
HETATM    3  C   UNL     1       7.300  24.658  56.243  1.00  0.00     0.115 C 
HETATM    4  C   UNL     1       8.093  25.569  56.974  1.00  0.00     0.087 C 
HETATM    5  C   UNL     1       7.327  26.706  57.076  1.00  0.00     0.152 C 
ENDROOT
BRANCH   5   6
HETATM    6  N   UNL     1       7.689  27.808  57.838  1.00  0.00    -0.309 N 
HETATM    7  C   UNL     1       8.410  28.905  57.247  1.00  0.00     0.247 C 
HETATM    8  O   UNL     1       8.466  29.005  56.030  1.00  0.00    -0.271 OA
HETATM    9  H   UNL     1       7.353  27.915  58.789  1.00  0.00     0.170 HD
BRANCH   7  10
HETATM   10  C   UNL     1       9.048  29.862  58.231  1.00  0.00     0.278 C 
BRANCH  10  11
HETATM   11  O   UNL     1       8.131  30.902  58.561  1.00  0.00    -0.342 OA
BRANCH  11  12
HETATM   12  C   UNL     1       8.158  31.294  59.876  1.00  0.00     0.070 A 
HETATM   13  C   UNL     1       7.230  32.276  60.231  1.00  0.00     0.049 A 
HETATM   14  C   UNL     1       7.164  32.772  61.546  1.00  0.00    -0.023 A 
HETATM   15  C   UNL     1       8.039  32.252  62.524  1.00  0.00    -0.026 A 
HETATM   16  C   UNL     1       6.252  33.777  61.910  1.00  0.00     0.012 A 
HETATM   17  C   UNL     1       8.950  31.251  62.165  1.00  0.00     0.015 A 
HETATM   18  C   UNL     1       7.980  32.745  63.838  1.00  0.00     0.012 A 
HETATM   19  C   UNL     1       9.010  30.773  60.851  1.00  0.00     0.037 A 
HETATM   20  C   UNL     1       7.069  33.744  64.182  1.00  0.00     0.001 A 
HETATM   21  C   UNL     1       6.206  34.259  63.219  1.00  0.00     0.001 A 
ENDBRANCH  11  12
ENDBRANCH  10  11
ENDBRANCH   7  10
ENDBRANCH   5   6
BRANCH   1  22
HETATM   22  C   UNL     1       5.320  27.438  55.711  1.00  0.00     0.732 A 
HETATM   23  N   UNL     1       4.876  28.479  56.345  1.00  0.00    -0.067 NA
HETATM   24  C   UNL     1       4.026  29.308  55.636  1.00  0.00     0.062 A 
HETATM   25  C   UNL     1       3.694  29.104  54.350  1.00  0.00     0.103 A 
HETATM   26  C   UNL     1       4.241  27.934  53.647  1.00  0.00     0.261 A 
HETATM   27  N   UNL     1       5.030  27.135  54.407  1.00  0.00    -0.152 N 
HETATM   28  O   UNL     1       3.997  27.721  52.468  1.00  0.00    -0.268 OA
HETATM   29  H   UNL     1       5.457  26.322  53.972  1.00  0.00     0.187 HD
BRANCH  24  30
HETATM   30  C   UNL     1       3.458  30.508  56.383  1.00  0.00     0.030 C 
HETATM   31  C   UNL     1       2.611  31.401  55.473  1.00  0.00     0.016 C 
HETATM   32  C   UNL     1       4.574  31.309  57.054  1.00  0.00     0.016 C 
ENDBRANCH  24  30
ENDBRANCH   1  22
BRANCH   3  33
HETATM   33  C   UNL     1       7.675  23.246  55.945  1.00  0.00     0.105 A 
HETATM   34  O   UNL     1       7.371  22.597  54.779  1.00  0.00    -0.320 OA
HETATM   35  C   UNL     1       7.875  21.339  54.875  1.00  0.00     0.142 A 
HETATM   36  C   UNL     1       8.500  21.161  56.086  1.00  0.00     0.027 A 
HETATM   37  C   UNL     1       8.372  22.390  56.778  1.00  0.00     0.041 A 
ENDBRANCH   3  33
TORSDOF 7
ENDMDL
MODEL 8
REMARK VINA RESULT:     -10.2      2.540      5.175
REMARK  7 active torsions:
REMARK  status: ('A' for Active; 'I' for Inactive)
REMARK    1  A    between atoms: C_2  and  C_3 
REMARK    2  A    between atoms: C_5  and  N_6 
REMARK    3  A    between atoms: C_8  and  C_9 
REMARK    4  A    between atoms: C_15  and  N_16 
REMARK       I    between atoms: N_16  and  C_17 
REMARK    5  A    between atoms: C_17  and  C_18 
REMARK    6  A    between atoms: C_18  and  O_19 
REMARK    7  A    between atoms: O_19  and  C_20 
ROOT
HETATM    1  N   UNL     1       5.640  31.575  58.860  1.00  0.00    -0.044 N 
HETATM    2  N   UNL     1       5.274  32.749  59.465  1.00  0.00    -0.148 NA
HETATM    3  C   UNL     1       4.025  32.961  59.038  1.00  0.00     0.115 C 
HETATM    4  C   UNL     1       3.546  31.908  58.229  1.00  0.00     0.087 C 
HETATM    5  C   UNL     1       4.556  30.974  58.226  1.00  0.00     0.152 C 
ENDROOT
BRANCH   5   6
HETATM    6  N   UNL     1       4.436  29.719  57.648  1.00  0.00    -0.309 N 
HETATM    7  C   UNL     1       4.656  29.534  56.237  1.00  0.00     0.247 C 
HETATM    8  O   UNL     1       5.212  30.412  55.593  1.00  0.00    -0.271 OA
HETATM    9  H   UNL     1       4.309  28.892  58.223  1.00  0.00     0.170 HD
BRANCH   7  10
HETATM   10  C   UNL     1       4.158  28.221  55.673  1.00  0.00     0.278 C 
BRANCH  10  11
HETATM   11  O   UNL     1       5.055  27.753  54.669  1.00  0.00    -0.342 OA
BRANCH  11  12
HETATM   12  C   UNL     1       5.646  26.546  54.946  1.00  0.00     0.070 A 
HETATM   13  C   UNL     1       6.189  25.875  53.848  1.00  0.00     0.049 A 
HETATM   14  C   UNL     1       6.812  24.622  53.997  1.00  0.00    -0.023 A 
HETATM   15  C   UNL     1       6.905  24.047  55.283  1.00  0.00    -0.026 A 
HETATM   16  C   UNL     1       7.341  23.926  52.898  1.00  0.00     0.012 A 
HETATM   17  C   UNL     1       6.378  24.737  56.382  1.00  0.00     0.015 A 
HETATM   18  C   UNL     1       7.523  22.795  55.438  1.00  0.00     0.012 A 
HETATM   19  C   UNL     1       5.754  25.979  56.217  1.00  0.00     0.037 A 
HETATM   20  C   UNL     1       8.042  22.117  54.335  1.00  0.00     0.001 A 
HETATM   21  C   UNL     1       7.951  22.681  53.066  1.00  0.00     0.001 A 
ENDBRANCH  11  12
ENDBRANCH  10  11
ENDBRANCH   7  10
ENDBRANCH   5   6
BRANCH   1  22
HETATM   22  C   UNL     1       7.008  31.235  58.812  1.00  0.00     0.732 A 
HETATM   23  N   UNL     1       7.511  30.355  58.003  1.00  0.00    -0.067 NA
HETATM   24  C   UNL     1       8.881  30.173  58.076  1.00  0.00     0.062 A 
HETATM   25  C   UNL     1       9.680  30.881  58.892  1.00  0.00     0.103 A 
HETATM   26  C   UNL     1       9.085  31.896  59.773  1.00  0.00     0.261 A 
HETATM   27  N   UNL     1       7.734  31.997  59.689  1.00  0.00    -0.152 N 
HETATM   28  O   UNL     1       9.771  32.590  60.510  1.00  0.00    -0.268 OA
HETATM   29  H   UNL     1       7.266  32.697  60.256  1.00  0.00     0.187 HD
BRANCH  24  30
HETATM   30  C   UNL     1       9.480  29.108  57.167  1.00  0.00     0.030 C 
HETATM   31  C   UNL     1      10.877  29.493  56.676  1.00  0.00     0.016 C 
HETATM   32  C   UNL     1       8.548  28.809  55.992  1.00  0.00     0.016 C 
ENDBRANCH  24  30
ENDBRANCH   1  22
BRANCH   3  33
HETATM   33  C   UNL     1       3.244  34.177  59.408  1.00  0.00     0.105 A 
HETATM   34  O   UNL     1       2.016  34.492  58.893  1.00  0.00    -0.320 OA
HETATM   35  C   UNL     1       1.626  35.660  59.466  1.00  0.00     0.142 A 
HETATM   36  C   UNL     1       2.583  36.109  60.345  1.00  0.00     0.027 A 
HETATM   37  C   UNL     1       3.628  35.154  60.309  1.00  0.00     0.041 A 
ENDBRANCH   3  33
TORSDOF 7
ENDMDL
MODEL 9
REMARK VINA RESULT:     -10.0      2.342      8.413
REMARK  7 active torsions:
REMARK  status: ('A' for Active; 'I' for Inactive)
REMARK    1  A    between atoms: C_2  and  C_3 
REMARK    2  A    between atoms: C_5  and  N_6 
REMARK    3  A    between atoms: C_8  and  C_9 
REMARK    4  A    between atoms: C_15  and  N_16 
REMARK       I    between atoms: N_16  and  C_17 
REMARK    5  A    between atoms: C_17  and  C_18 
REMARK    6  A    between atoms: C_18  and  O_19 
REMARK    7  A    between atoms: O_19  and  C_20 
ROOT
HETATM    1  N   UNL     1       6.017  25.837  53.585  1.00  0.00    -0.044 N 
HETATM    2  N   UNL     1       6.108  24.505  53.274  1.00  0.00    -0.148 NA
HETATM    3  C   UNL     1       7.023  24.033  54.128  1.00  0.00     0.115 C 
HETATM    4  C   UNL     1       7.471  25.017  55.036  1.00  0.00     0.087 C 
HETATM    5  C   UNL     1       6.724  26.135  54.746  1.00  0.00     0.152 C 
ENDROOT
BRANCH   5   6
HETATM    6  N   UNL     1       6.763  27.298  55.502  1.00  0.00    -0.309 N 
HETATM    7  C   UNL     1       5.710  27.604  56.435  1.00  0.00     0.247 C 
HETATM    8  O   UNL     1       4.928  26.726  56.771  1.00  0.00    -0.271 OA
HETATM    9  H   UNL     1       7.585  27.893  55.498  1.00  0.00     0.170 HD
BRANCH   7  10
HETATM   10  C   UNL     1       5.679  29.035  56.927  1.00  0.00     0.278 C 
BRANCH  10  11
HETATM   11  O   UNL     1       6.890  29.697  56.571  1.00  0.00    -0.342 OA
BRANCH  11  12
HETATM   12  C   UNL     1       7.631  30.148  57.634  1.00  0.00     0.070 A 
HETATM   13  C   UNL     1       6.911  30.808  58.632  1.00  0.00     0.049 A 
HETATM   14  C   UNL     1       7.555  31.329  59.770  1.00  0.00    -0.023 A 
HETATM   15  C   UNL     1       8.950  31.162  59.910  1.00  0.00    -0.026 A 
HETATM   16  C   UNL     1       6.846  32.016  60.770  1.00  0.00     0.012 A 
HETATM   17  C   UNL     1       9.661  30.479  58.914  1.00  0.00     0.015 A 
HETATM   18  C   UNL     1       9.599  31.682  61.041  1.00  0.00     0.012 A 
HETATM   19  C   UNL     1       9.008  29.973  57.785  1.00  0.00     0.037 A 
HETATM   20  C   UNL     1       8.880  32.363  62.024  1.00  0.00     0.001 A 
HETATM   21  C   UNL     1       7.505  32.529  61.888  1.00  0.00     0.001 A 
ENDBRANCH  11  12
ENDBRANCH  10  11
ENDBRANCH   7  10
ENDBRANCH   5   6
BRANCH   1  22
HETATM   22  C   UNL     1       5.404  26.708  52.660  1.00  0.00     0.732 A 
HETATM   23  N   UNL     1       5.034  27.920  52.936  1.00  0.00    -0.067 NA
HETATM   24  C   UNL     1       4.476  28.640  51.895  1.00  0.00     0.062 A 
HETATM   25  C   UNL     1       4.351  28.160  50.646  1.00  0.00     0.103 A 
HETATM   26  C   UNL     1       4.810  26.794  50.355  1.00  0.00     0.261 A 
HETATM   27  N   UNL     1       5.306  26.123  51.425  1.00  0.00    -0.152 N 
HETATM   28  O   UNL     1       4.749  26.321  49.229  1.00  0.00    -0.268 OA
HETATM   29  H   UNL     1       5.661  25.182  51.283  1.00  0.00     0.187 HD
BRANCH  24  30
HETATM   30  C   UNL     1       3.993  30.048  52.216  1.00  0.00     0.030 C 
HETATM   31  C   UNL     1       3.568  30.188  53.680  1.00  0.00     0.016 C 
HETATM   32  C   UNL     1       2.862  30.464  51.275  1.00  0.00     0.016 C 
ENDBRANCH  24  30
ENDBRANCH   1  22
BRANCH   3  33
HETATM   33  C   UNL     1       7.485  22.615  54.107  1.00  0.00     0.105 A 
HETATM   34  O   UNL     1       7.546  21.808  55.210  1.00  0.00    -0.320 OA
HETATM   35  C   UNL     1       8.008  20.599  54.799  1.00  0.00     0.142 A 
HETATM   36  C   UNL     1       8.249  20.609  53.446  1.00  0.00     0.027 A 
HETATM   37  C   UNL     1       7.912  21.909  52.998  1.00  0.00     0.041 A 
ENDBRANCH   3  33
TORSDOF 7
ENDMDL
MODEL 10
REMARK VINA RESULT:      -9.9      1.526      2.276
REMARK  7 active torsions:
REMARK  status: ('A' for Active; 'I' for Inactive)
REMARK    1  A    between atoms: C_2  and  C_3 
REMARK    2  A    between atoms: C_5  and  N_6 
REMARK    3  A    between atoms: C_8  and  C_9 
REMARK    4  A    between atoms: C_15  and  N_16 
REMARK       I    between atoms: N_16  and  C_17 
REMARK    5  A    between atoms: C_17  and  C_18 
REMARK    6  A    between atoms: C_18  and  O_19 
REMARK    7  A    between atoms: O_19  and  C_20 
ROOT
HETATM    1  N   UNL     1       6.048  31.615  57.220  1.00  0.00    -0.044 N 
HETATM    2  N   UNL     1       6.603  32.098  58.377  1.00  0.00    -0.148 NA
HETATM    3  C   UNL     1       7.312  31.068  58.853  1.00  0.00     0.115 C 
HETATM    4  C   UNL     1       7.289  29.952  57.987  1.00  0.00     0.087 C 
HETATM    5  C   UNL     1       6.571  30.367  56.891  1.00  0.00     0.152 C 
ENDROOT
BRANCH   5   6
HETATM    6  N   UNL     1       6.422  29.607  55.740  1.00  0.00    -0.309 N 
HETATM    7  C   UNL     1       5.323  28.687  55.603  1.00  0.00     0.247 C 
HETATM    8  O   UNL     1       4.371  28.767  56.365  1.00  0.00    -0.271 OA
HETATM    9  H   UNL     1       7.013  29.769  54.931  1.00  0.00     0.170 HD
BRANCH   7  10
HETATM   10  C   UNL     1       5.462  27.677  54.485  1.00  0.00     0.278 C 
BRANCH  10  11
HETATM   11  O   UNL     1       6.815  27.234  54.396  1.00  0.00    -0.342 OA
BRANCH  11  12
HETATM   12  C   UNL     1       7.014  25.923  54.750  1.00  0.00     0.070 A 
HETATM   13  C   UNL     1       7.319  25.056  53.698  1.00  0.00     0.049 A 
HETATM   14  C   UNL     1       7.534  23.684  53.926  1.00  0.00    -0.023 A 
HETATM   15  C   UNL     1       7.458  23.184  55.244  1.00  0.00    -0.026 A 
HETATM   16  C   UNL     1       7.818  22.797  52.875  1.00  0.00     0.012 A 
HETATM   17  C   UNL     1       7.173  24.066  56.295  1.00  0.00     0.015 A 
HETATM   18  C   UNL     1       7.668  21.815  55.478  1.00  0.00     0.012 A 
HETATM   19  C   UNL     1       6.954  25.426  56.052  1.00  0.00     0.037 A 
HETATM   20  C   UNL     1       7.948  20.948  54.422  1.00  0.00     0.001 A 
HETATM   21  C   UNL     1       8.022  21.439  53.122  1.00  0.00     0.001 A 
ENDBRANCH  11  12
ENDBRANCH  10  11
ENDBRANCH   7  10
ENDBRANCH   5   6
BRANCH   1  22
HETATM   22  C   UNL     1       4.969  32.317  56.643  1.00  0.00     0.732 A 
HETATM   23  N   UNL     1       4.642  32.246  55.390  1.00  0.00    -0.067 NA
HETATM   24  C   UNL     1       3.534  32.981  55.006  1.00  0.00     0.062 A 
HETATM   25  C   UNL     1       2.790  33.700  55.863  1.00  0.00     0.103 A 
HETATM   26  C   UNL     1       3.166  33.734  57.284  1.00  0.00     0.261 A 
HETATM   27  N   UNL     1       4.285  33.031  57.590  1.00  0.00    -0.152 N 
HETATM   28  O   UNL     1       2.503  34.346  58.109  1.00  0.00    -0.268 OA
HETATM   29  H   UNL     1       4.583  32.997  58.561  1.00  0.00     0.187 HD
BRANCH  24  30
HETATM   30  C   UNL     1       3.167  32.946  53.529  1.00  0.00     0.030 C 
HETATM   31  C   UNL     1       1.655  33.031  53.312  1.00  0.00     0.016 C 
HETATM   32  C   UNL     1       3.750  31.705  52.852  1.00  0.00     0.016 C 
ENDBRANCH  24  30
ENDBRANCH   1  22
BRANCH   3  33
HETATM   33  C   UNL     1       8.048  31.130  60.148  1.00  0.00     0.105 A 
HETATM   34  O   UNL     1       8.899  30.158  60.598  1.00  0.00    -0.320 OA
HETATM   35  C   UNL     1       9.376  30.567  61.803  1.00  0.00     0.142 A 
HETATM   36  C   UNL     1       8.846  31.789  62.142  1.00  0.00     0.027 A 
HETATM   37  C   UNL     1       7.989  32.154  61.076  1.00  0.00     0.041 A 
ENDBRANCH   3  33
TORSDOF 7
ENDMDL
