MODEL 1
REMARK VINA RESULT:      -8.3      0.000      0.000
REMARK  3 active torsions:
REMARK  status: ('A' for Active; 'I' for Inactive)
REMARK    1  A    between atoms: C_8  and  C_9 
REMARK    2  A    between atoms: C_16  and  O_17 
REMARK    3  A    between atoms: C_24  and  N_25 
ROOT
HETATM    1  C   UNL     1       4.348  29.039  55.569  1.00  0.00     0.073 C 
HETATM    2  C   UNL     1       4.904  29.766  56.735  1.00  0.00     0.062 A 
HETATM    3  N   UNL     1       4.087  30.397  57.597  1.00  0.00    -0.177 NA
HETATM    4  N   UNL     1       4.919  30.938  58.511  1.00  0.00    -0.256 N 
HETATM    5  H   UNL     1       4.526  31.482  59.269  1.00  0.00     0.191 HD
HETATM    6  C   UNL     1       6.224  30.662  58.260  1.00  0.00     0.175 A 
HETATM    7  C   UNL     1       6.258  29.900  57.122  1.00  0.00     0.034 A 
HETATM    8  C   UNL     1       7.566  29.444  56.566  1.00  0.00     0.106 A 
HETATM    9  C   UNL     1       8.722  29.987  57.414  1.00  0.00     0.081 A 
HETATM   10  C   UNL     1      10.039  29.711  56.946  1.00  0.00     0.100 C 
HETATM   11  N   UNL     1      11.116  29.493  56.572  1.00  0.00    -0.191 NA
HETATM   12  C   UNL     1       8.530  30.743  58.531  1.00  0.00     0.140 A 
HETATM   13  O   UNL     1       7.246  31.079  58.996  1.00  0.00    -0.279 OA
ENDROOT
BRANCH   8  14
HETATM   14  C   UNL     1       7.518  27.913  56.522  1.00  0.00    -0.033 A 
HETATM   15  C   UNL     1       7.456  27.187  55.292  1.00  0.00    -0.016 A 
HETATM   16  C   UNL     1       7.400  25.763  55.333  1.00  0.00     0.008 A 
HETATM   17  C   UNL     1       7.456  27.798  54.009  1.00  0.00     0.013 A 
HETATM   18  C   UNL     1       7.332  25.043  54.117  1.00  0.00     0.015 A 
HETATM   19  C   UNL     1       7.420  25.083  56.577  1.00  0.00     0.079 A 
HETATM   20  C   UNL     1       7.327  25.679  52.879  1.00  0.00     0.001 A 
HETATM   21  C   UNL     1       7.392  27.058  52.825  1.00  0.00     0.001 A 
HETATM   22  C   UNL     1       7.520  25.803  57.763  1.00  0.00     0.038 A 
HETATM   23  C   UNL     1       7.577  27.193  57.734  1.00  0.00     0.012 A 
BRANCH  19  24
HETATM   24  O   UNL     1       7.354  23.710  56.525  1.00  0.00    -0.355 OA
HETATM   25  C   UNL     1       8.451  22.972  57.048  1.00  0.00     0.210 C 
ENDBRANCH  19  24
ENDBRANCH   8  14
BRANCH  12  26
HETATM   26  N   UNL     1       9.531  31.264  59.321  1.00  0.00    -0.282 NA
HETATM   27  H   UNL     1       9.446  32.254  59.545  1.00  0.00     0.126 HD
HETATM   28  H   UNL     1      10.457  31.007  58.989  1.00  0.00     0.126 HD
ENDBRANCH  12  26
TORSDOF 3
ENDMDL
MODEL 2
REMARK VINA RESULT:      -7.6      6.813     10.906
REMARK  3 active torsions:
REMARK  status: ('A' for Active; 'I' for Inactive)
REMARK    1  A    between atoms: C_8  and  C_9 
REMARK    2  A    between atoms: C_16  and  O_17 
REMARK    3  A    between atoms: C_24  and  N_25 
ROOT
HETATM    1  C   UNL     1       1.761  34.536  62.114  1.00  0.00     0.073 C 
HETATM    2  C   UNL     1       2.640  34.115  60.996  1.00  0.00     0.062 A 
HETATM    3  N   UNL     1       2.173  34.088  59.736  1.00  0.00    -0.177 NA
HETATM    4  N   UNL     1       3.222  33.666  59.000  1.00  0.00    -0.256 N 
HETATM    5  H   UNL     1       3.105  33.555  58.000  1.00  0.00     0.191 HD
HETATM    6  C   UNL     1       4.329  33.437  59.749  1.00  0.00     0.175 A 
HETATM    7  C   UNL     1       3.998  33.722  61.048  1.00  0.00     0.034 A 
HETATM    8  C   UNL     1       5.009  33.549  62.132  1.00  0.00     0.106 A 
HETATM    9  C   UNL     1       6.320  33.006  61.556  1.00  0.00     0.081 A 
HETATM   10  C   UNL     1       7.349  32.700  62.493  1.00  0.00     0.100 C 
HETATM   11  N   UNL     1       8.193  32.446  63.248  1.00  0.00    -0.191 NA
HETATM   12  C   UNL     1       6.503  32.767  60.227  1.00  0.00     0.140 A 
HETATM   13  O   UNL     1       5.493  33.008  59.277  1.00  0.00    -0.279 OA
ENDROOT
BRANCH   8  14
HETATM   14  C   UNL     1       5.166  34.915  62.810  1.00  0.00    -0.033 A 
HETATM   15  C   UNL     1       4.854  35.124  64.190  1.00  0.00    -0.016 A 
HETATM   16  C   UNL     1       5.015  36.427  64.744  1.00  0.00     0.008 A 
HETATM   17  C   UNL     1       4.394  34.101  65.061  1.00  0.00     0.013 A 
HETATM   18  C   UNL     1       4.698  36.637  66.107  1.00  0.00     0.015 A 
HETATM   19  C   UNL     1       5.491  37.492  63.939  1.00  0.00     0.079 A 
HETATM   20  C   UNL     1       4.244  35.610  66.929  1.00  0.00     0.001 A 
HETATM   21  C   UNL     1       4.094  34.339  66.406  1.00  0.00     0.001 A 
HETATM   22  C   UNL     1       5.829  37.263  62.608  1.00  0.00     0.038 A 
HETATM   23  C   UNL     1       5.677  35.994  62.057  1.00  0.00     0.012 A 
BRANCH  19  24
HETATM   24  O   UNL     1       5.609  38.718  64.552  1.00  0.00    -0.355 OA
HETATM   25  C   UNL     1       6.598  39.614  64.062  1.00  0.00     0.210 C 
ENDBRANCH  19  24
ENDBRANCH   8  14
BRANCH  12  26
HETATM   26  N   UNL     1       7.654  32.269  59.659  1.00  0.00    -0.282 NA
HETATM   27  H   UNL     1       7.688  31.259  59.543  1.00  0.00     0.126 HD
HETATM   28  H   UNL     1       8.492  32.652  60.089  1.00  0.00     0.126 HD
ENDBRANCH  12  26
TORSDOF 3
ENDMDL
MODEL 3
REMARK VINA RESULT:      -7.5      8.783     10.683
REMARK  3 active torsions:
REMARK  status: ('A' for Active; 'I' for Inactive)
REMARK    1  A    between atoms: C_8  and  C_9 
REMARK    2  A    between atoms: C_16  and  O_17 
REMARK    3  A    between atoms: C_24  and  N_25 
ROOT
HETATM    1  C   UNL     1       3.418  32.857  61.223  1.00  0.00     0.073 C 
HETATM    2  C   UNL     1       2.778  34.136  60.832  1.00  0.00     0.062 A 
HETATM    3  N   UNL     1       1.509  34.153  60.389  1.00  0.00    -0.177 NA
HETATM    4  N   UNL     1       1.263  35.455  60.132  1.00  0.00    -0.256 N 
HETATM    5  H   UNL     1       0.354  35.719  59.769  1.00  0.00     0.191 HD
HETATM    6  C   UNL     1       2.326  36.252  60.405  1.00  0.00     0.175 A 
HETATM    7  C   UNL     1       3.327  35.439  60.868  1.00  0.00     0.034 A 
HETATM    8  C   UNL     1       4.649  36.020  61.242  1.00  0.00     0.106 A 
HETATM    9  C   UNL     1       4.659  37.530  60.983  1.00  0.00     0.081 A 
HETATM   10  C   UNL     1       5.894  38.206  61.205  1.00  0.00     0.100 C 
HETATM   11  N   UNL     1       6.896  38.765  61.381  1.00  0.00    -0.191 NA
HETATM   12  C   UNL     1       3.576  38.209  60.514  1.00  0.00     0.140 A 
HETATM   13  O   UNL     1       2.354  37.568  60.234  1.00  0.00    -0.279 OA
ENDROOT
BRANCH   8  14
HETATM   14  C   UNL     1       4.891  35.657  62.711  1.00  0.00    -0.033 A 
HETATM   15  C   UNL     1       5.858  34.681  63.108  1.00  0.00    -0.016 A 
HETATM   16  C   UNL     1       6.015  34.389  64.494  1.00  0.00     0.008 A 
HETATM   17  C   UNL     1       6.692  33.977  62.198  1.00  0.00     0.013 A 
HETATM   18  C   UNL     1       6.966  33.418  64.888  1.00  0.00     0.015 A 
HETATM   19  C   UNL     1       5.233  35.069  65.461  1.00  0.00     0.079 A 
HETATM   20  C   UNL     1       7.762  32.744  63.966  1.00  0.00     0.001 A 
HETATM   21  C   UNL     1       7.626  33.026  62.619  1.00  0.00     0.001 A 
HETATM   22  C   UNL     1       4.324  36.045  65.061  1.00  0.00     0.038 A 
HETATM   23  C   UNL     1       4.163  36.339  63.710  1.00  0.00     0.012 A 
BRANCH  19  24
HETATM   24  O   UNL     1       5.443  34.721  66.774  1.00  0.00    -0.355 OA
HETATM   25  C   UNL     1       4.366  34.123  67.484  1.00  0.00     0.210 C 
ENDBRANCH  19  24
ENDBRANCH   8  14
BRANCH  12  26
HETATM   26  N   UNL     1       3.534  39.560  60.253  1.00  0.00    -0.282 NA
HETATM   27  H   UNL     1       3.184  40.145  61.009  1.00  0.00     0.126 HD
HETATM   28  H   UNL     1       3.104  39.767  59.356  1.00  0.00     0.126 HD
ENDBRANCH  12  26
TORSDOF 3
ENDMDL
MODEL 4
REMARK VINA RESULT:      -7.5      7.259     10.735
REMARK  3 active torsions:
REMARK  status: ('A' for Active; 'I' for Inactive)
REMARK    1  A    between atoms: C_8  and  C_9 
REMARK    2  A    between atoms: C_16  and  O_17 
REMARK    3  A    between atoms: C_24  and  N_25 
ROOT
HETATM    1  C   UNL     1       5.932  32.628  60.394  1.00  0.00     0.073 C 
HETATM    2  C   UNL     1       6.715  32.658  61.653  1.00  0.00     0.062 A 
HETATM    3  N   UNL     1       7.956  32.145  61.695  1.00  0.00    -0.177 NA
HETATM    4  N   UNL     1       8.356  32.340  62.969  1.00  0.00    -0.256 N 
HETATM    5  H   UNL     1       9.275  32.018  63.248  1.00  0.00     0.191 HD
HETATM    6  C   UNL     1       7.416  32.965  63.722  1.00  0.00     0.175 A 
HETATM    7  C   UNL     1       6.339  33.195  62.907  1.00  0.00     0.034 A 
HETATM    8  C   UNL     1       5.118  33.859  63.451  1.00  0.00     0.106 A 
HETATM    9  C   UNL     1       5.291  34.148  64.945  1.00  0.00     0.081 A 
HETATM   10  C   UNL     1       4.163  34.696  65.622  1.00  0.00     0.100 C 
HETATM   11  N   UNL     1       3.250  35.141  66.183  1.00  0.00    -0.191 NA
HETATM   12  C   UNL     1       6.433  33.857  65.630  1.00  0.00     0.140 A 
HETATM   13  O   UNL     1       7.549  33.269  65.007  1.00  0.00    -0.279 OA
ENDROOT
BRANCH   8  14
HETATM   14  C   UNL     1       4.893  35.122  62.613  1.00  0.00    -0.033 A 
HETATM   15  C   UNL     1       3.755  35.282  61.763  1.00  0.00    -0.016 A 
HETATM   16  C   UNL     1       3.622  36.482  61.005  1.00  0.00     0.008 A 
HETATM   17  C   UNL     1       2.725  34.313  61.627  1.00  0.00     0.013 A 
HETATM   18  C   UNL     1       2.500  36.638  60.157  1.00  0.00     0.015 A 
HETATM   19  C   UNL     1       4.600  37.503  61.107  1.00  0.00     0.079 A 
HETATM   20  C   UNL     1       1.514  35.662  60.046  1.00  0.00     0.001 A 
HETATM   21  C   UNL     1       1.626  34.499  60.784  1.00  0.00     0.001 A 
HETATM   22  C   UNL     1       5.682  37.349  61.969  1.00  0.00     0.038 A 
HETATM   23  C   UNL     1       5.820  36.182  62.715  1.00  0.00     0.012 A 
BRANCH  19  24
HETATM   24  O   UNL     1       4.399  38.623  60.335  1.00  0.00    -0.355 OA
HETATM   25  C   UNL     1       5.463  39.052  59.496  1.00  0.00     0.210 C 
ENDBRANCH  19  24
ENDBRANCH   8  14
BRANCH  12  26
HETATM   26  N   UNL     1       6.636  34.085  66.972  1.00  0.00    -0.282 NA
HETATM   27  H   UNL     1       7.208  33.395  67.455  1.00  0.00     0.126 HD
HETATM   28  H   UNL     1       5.772  34.302  67.461  1.00  0.00     0.126 HD
ENDBRANCH  12  26
TORSDOF 3
ENDMDL
MODEL 5
REMARK VINA RESULT:      -7.3      7.999     10.693
REMARK  3 active torsions:
REMARK  status: ('A' for Active; 'I' for Inactive)
REMARK    1  A    between atoms: C_8  and  C_9 
REMARK    2  A    between atoms: C_16  and  O_17 
REMARK    3  A    between atoms: C_24  and  N_25 
ROOT
HETATM    1  C   UNL     1       6.143  38.066  61.777  1.00  0.00     0.073 C 
HETATM    2  C   UNL     1       5.028  37.613  60.910  1.00  0.00     0.062 A 
HETATM    3  N   UNL     1       4.885  38.113  59.670  1.00  0.00    -0.177 NA
HETATM    4  N   UNL     1       3.792  37.490  59.183  1.00  0.00    -0.256 N 
HETATM    5  H   UNL     1       3.474  37.717  58.249  1.00  0.00     0.191 HD
HETATM    6  C   UNL     1       3.252  36.613  60.067  1.00  0.00     0.175 A 
HETATM    7  C   UNL     1       4.027  36.656  61.196  1.00  0.00     0.034 A 
HETATM    8  C   UNL     1       3.678  35.810  62.375  1.00  0.00     0.106 A 
HETATM    9  C   UNL     1       2.399  35.014  62.099  1.00  0.00     0.081 A 
HETATM   10  C   UNL     1       1.891  34.230  63.175  1.00  0.00     0.100 C 
HETATM   11  N   UNL     1       1.468  33.590  64.046  1.00  0.00    -0.191 NA
HETATM   12  C   UNL     1       1.729  35.075  60.914  1.00  0.00     0.140 A 
HETATM   13  O   UNL     1       2.170  35.876  59.845  1.00  0.00    -0.279 OA
ENDROOT
BRANCH   8  14
HETATM   14  C   UNL     1       4.895  34.919  62.652  1.00  0.00    -0.033 A 
HETATM   15  C   UNL     1       5.392  34.696  63.974  1.00  0.00    -0.016 A 
HETATM   16  C   UNL     1       6.537  33.865  64.150  1.00  0.00     0.008 A 
HETATM   17  C   UNL     1       4.807  35.249  65.145  1.00  0.00     0.013 A 
HETATM   18  C   UNL     1       7.035  33.649  65.456  1.00  0.00     0.015 A 
HETATM   19  C   UNL     1       7.159  33.260  63.029  1.00  0.00     0.079 A 
HETATM   20  C   UNL     1       6.437  34.214  66.579  1.00  0.00     0.001 A 
HETATM   21  C   UNL     1       5.320  35.013  66.423  1.00  0.00     0.001 A 
HETATM   22  C   UNL     1       6.639  33.456  61.753  1.00  0.00     0.038 A 
HETATM   23  C   UNL     1       5.521  34.264  61.570  1.00  0.00     0.012 A 
BRANCH  19  24
HETATM   24  O   UNL     1       8.263  32.481  63.288  1.00  0.00    -0.355 OA
HETATM   25  C   UNL     1       8.391  31.255  62.581  1.00  0.00     0.210 C 
ENDBRANCH  19  24
ENDBRANCH   8  14
BRANCH  12  26
HETATM   26  N   UNL     1       0.571  34.392  60.618  1.00  0.00    -0.282 NA
HETATM   27  H   UNL     1       0.689  33.415  60.356  1.00  0.00     0.126 HD
HETATM   28  H   UNL     1      -0.028  34.908  59.978  1.00  0.00     0.126 HD
ENDBRANCH  12  26
TORSDOF 3
ENDMDL
MODEL 6
REMARK VINA RESULT:      -7.1      4.023      7.073
REMARK  3 active torsions:
REMARK  status: ('A' for Active; 'I' for Inactive)
REMARK    1  A    between atoms: C_8  and  C_9 
REMARK    2  A    between atoms: C_16  and  O_17 
REMARK    3  A    between atoms: C_24  and  N_25 
ROOT
HETATM    1  C   UNL     1       7.372  28.919  58.197  1.00  0.00     0.073 C 
HETATM    2  C   UNL     1       6.044  29.133  57.572  1.00  0.00     0.062 A 
HETATM    3  N   UNL     1       5.313  28.086  57.153  1.00  0.00    -0.177 NA
HETATM    4  N   UNL     1       4.192  28.642  56.649  1.00  0.00    -0.256 N 
HETATM    5  H   UNL     1       3.480  28.038  56.255  1.00  0.00     0.191 HD
HETATM    6  C   UNL     1       4.190  29.996  56.745  1.00  0.00     0.175 A 
HETATM    7  C   UNL     1       5.369  30.355  57.344  1.00  0.00     0.034 A 
HETATM    8  C   UNL     1       5.681  31.795  57.576  1.00  0.00     0.106 A 
HETATM    9  C   UNL     1       4.556  32.679  57.026  1.00  0.00     0.081 A 
HETATM   10  C   UNL     1       4.762  34.087  57.093  1.00  0.00     0.100 C 
HETATM   11  N   UNL     1       4.921  35.236  57.141  1.00  0.00    -0.191 NA
HETATM   12  C   UNL     1       3.431  32.172  56.449  1.00  0.00     0.140 A 
HETATM   13  O   UNL     1       3.214  30.788  56.319  1.00  0.00    -0.279 OA
ENDROOT
BRANCH   8  14
HETATM   14  C   UNL     1       5.897  31.962  59.084  1.00  0.00    -0.033 A 
HETATM   15  C   UNL     1       7.199  31.965  59.674  1.00  0.00    -0.016 A 
HETATM   16  C   UNL     1       7.318  32.112  61.087  1.00  0.00     0.008 A 
HETATM   17  C   UNL     1       8.405  31.837  58.932  1.00  0.00     0.013 A 
HETATM   18  C   UNL     1       8.605  32.107  61.672  1.00  0.00     0.015 A 
HETATM   19  C   UNL     1       6.159  32.266  61.888  1.00  0.00     0.079 A 
HETATM   20  C   UNL     1       9.764  31.974  60.913  1.00  0.00     0.001 A 
HETATM   21  C   UNL     1       9.663  31.841  59.540  1.00  0.00     0.001 A 
HETATM   22  C   UNL     1       4.900  32.301  61.295  1.00  0.00     0.038 A 
HETATM   23  C   UNL     1       4.773  32.160  59.916  1.00  0.00     0.012 A 
BRANCH  19  24
HETATM   24  O   UNL     1       6.363  32.393  63.242  1.00  0.00    -0.355 OA
HETATM   25  C   UNL     1       5.296  32.904  64.031  1.00  0.00     0.210 C 
ENDBRANCH  19  24
ENDBRANCH   8  14
BRANCH  12  26
HETATM   26  N   UNL     1       2.397  32.919  55.929  1.00  0.00    -0.282 NA
HETATM   27  H   UNL     1       2.618  33.889  55.713  1.00  0.00     0.126 HD
HETATM   28  H   UNL     1       1.539  32.815  56.465  1.00  0.00     0.126 HD
ENDBRANCH  12  26
TORSDOF 3
ENDMDL
MODEL 7
REMARK VINA RESULT:      -6.7      5.314      7.833
REMARK  3 active torsions:
REMARK  status: ('A' for Active; 'I' for Inactive)
REMARK    1  A    between atoms: C_8  and  C_9 
REMARK    2  A    between atoms: C_16  and  O_17 
REMARK    3  A    between atoms: C_24  and  N_25 
ROOT
HETATM    1  C   UNL     1       0.871  35.413  59.137  1.00  0.00     0.073 C 
HETATM    2  C   UNL     1       0.965  34.988  60.554  1.00  0.00     0.062 A 
HETATM    3  N   UNL     1      -0.130  34.966  61.333  1.00  0.00    -0.177 NA
HETATM    4  N   UNL     1       0.319  34.538  62.531  1.00  0.00    -0.256 N 
HETATM    5  H   UNL     1      -0.338  34.451  63.297  1.00  0.00     0.191 HD
HETATM    6  C   UNL     1       1.652  34.283  62.529  1.00  0.00     0.175 A 
HETATM    7  C   UNL     1       2.109  34.555  61.266  1.00  0.00     0.034 A 
HETATM    8  C   UNL     1       3.556  34.389  60.944  1.00  0.00     0.106 A 
HETATM    9  C   UNL     1       4.332  33.950  62.189  1.00  0.00     0.081 A 
HETATM   10  C   UNL     1       5.747  33.844  62.054  1.00  0.00     0.100 C 
HETATM   11  N   UNL     1       6.900  33.757  61.955  1.00  0.00    -0.191 NA
HETATM   12  C   UNL     1       3.735  33.718  63.392  1.00  0.00     0.140 A 
HETATM   13  O   UNL     1       2.347  33.860  63.578  1.00  0.00    -0.279 OA
ENDROOT
BRANCH   8  14
HETATM   14  C   UNL     1       3.639  33.380  59.793  1.00  0.00    -0.033 A 
HETATM   15  C   UNL     1       4.033  33.759  58.472  1.00  0.00    -0.016 A 
HETATM   16  C   UNL     1       4.073  32.764  57.452  1.00  0.00     0.008 A 
HETATM   17  C   UNL     1       4.401  35.080  58.103  1.00  0.00     0.013 A 
HETATM   18  C   UNL     1       4.455  33.138  56.142  1.00  0.00     0.015 A 
HETATM   19  C   UNL     1       3.741  31.419  57.752  1.00  0.00     0.079 A 
HETATM   20  C   UNL     1       4.804  34.446  55.818  1.00  0.00     0.001 A 
HETATM   21  C   UNL     1       4.779  35.418  56.801  1.00  0.00     0.001 A 
HETATM   22  C   UNL     1       3.398  31.059  59.052  1.00  0.00     0.038 A 
HETATM   23  C   UNL     1       3.356  32.022  60.056  1.00  0.00     0.012 A 
BRANCH  19  24
HETATM   24  O   UNL     1       3.798  30.526  56.708  1.00  0.00    -0.355 OA
HETATM   25  C   UNL     1       4.711  29.442  56.809  1.00  0.00     0.210 C 
ENDBRANCH  19  24
ENDBRANCH   8  14
BRANCH  12  26
HETATM   26  N   UNL     1       4.385  33.333  64.543  1.00  0.00    -0.282 NA
HETATM   27  H   UNL     1       5.400  33.288  64.483  1.00  0.00     0.126 HD
HETATM   28  H   UNL     1       3.971  32.503  64.960  1.00  0.00     0.126 HD
ENDBRANCH  12  26
TORSDOF 3
ENDMDL
MODEL 8
REMARK VINA RESULT:      -6.7      6.975      9.994
REMARK  3 active torsions:
REMARK  status: ('A' for Active; 'I' for Inactive)
REMARK    1  A    between atoms: C_8  and  C_9 
REMARK    2  A    between atoms: C_16  and  O_17 
REMARK    3  A    between atoms: C_24  and  N_25 
ROOT
HETATM    1  C   UNL     1       2.070  33.861  63.475  1.00  0.00     0.073 C 
HETATM    2  C   UNL     1       2.850  34.780  64.339  1.00  0.00     0.062 A 
HETATM    3  N   UNL     1       2.715  34.737  65.675  1.00  0.00    -0.177 NA
HETATM    4  N   UNL     1       3.556  35.690  66.127  1.00  0.00    -0.256 N 
HETATM    5  H   UNL     1       3.620  35.855  67.125  1.00  0.00     0.191 HD
HETATM    6  C   UNL     1       4.219  36.321  65.125  1.00  0.00     0.175 A 
HETATM    7  C   UNL     1       3.796  35.757  63.950  1.00  0.00     0.034 A 
HETATM    8  C   UNL     1       4.332  36.252  62.648  1.00  0.00     0.106 A 
HETATM    9  C   UNL     1       5.301  37.416  62.879  1.00  0.00     0.081 A 
HETATM   10  C   UNL     1       5.820  38.054  61.715  1.00  0.00     0.100 C 
HETATM   11  N   UNL     1       6.246  38.582  60.774  1.00  0.00    -0.191 NA
HETATM   12  C   UNL     1       5.628  37.873  64.121  1.00  0.00     0.140 A 
HETATM   13  O   UNL     1       5.097  37.302  65.292  1.00  0.00    -0.279 OA
ENDROOT
BRANCH   8  14
HETATM   14  C   UNL     1       4.984  35.051  61.954  1.00  0.00    -0.033 A 
HETATM   15  C   UNL     1       6.001  34.267  62.582  1.00  0.00    -0.016 A 
HETATM   16  C   UNL     1       6.569  33.172  61.866  1.00  0.00     0.008 A 
HETATM   17  C   UNL     1       6.487  34.503  63.896  1.00  0.00     0.013 A 
HETATM   18  C   UNL     1       7.581  32.400  62.482  1.00  0.00     0.015 A 
HETATM   19  C   UNL     1       6.117  32.863  60.558  1.00  0.00     0.079 A 
HETATM   20  C   UNL     1       8.035  32.666  63.771  1.00  0.00     0.001 A 
HETATM   21  C   UNL     1       7.485  33.718  64.479  1.00  0.00     0.001 A 
HETATM   22  C   UNL     1       5.099  33.612  59.977  1.00  0.00     0.038 A 
HETATM   23  C   UNL     1       4.537  34.682  60.667  1.00  0.00     0.012 A 
BRANCH  19  24
HETATM   24  O   UNL     1       6.724  31.797  59.937  1.00  0.00    -0.355 OA
HETATM   25  C   UNL     1       6.488  31.615  58.547  1.00  0.00     0.210 C 
ENDBRANCH  19  24
ENDBRANCH   8  14
BRANCH  12  26
HETATM   26  N   UNL     1       6.482  38.920  64.384  1.00  0.00    -0.282 NA
HETATM   27  H   UNL     1       7.188  39.104  63.674  1.00  0.00     0.126 HD
HETATM   28  H   UNL     1       6.864  38.878  65.325  1.00  0.00     0.126 HD
ENDBRANCH  12  26
TORSDOF 3
ENDMDL
MODEL 9
REMARK VINA RESULT:      -6.6      7.848     11.540
REMARK  3 active torsions:
REMARK  status: ('A' for Active; 'I' for Inactive)
REMARK    1  A    between atoms: C_8  and  C_9 
REMARK    2  A    between atoms: C_16  and  O_17 
REMARK    3  A    between atoms: C_24  and  N_25 
ROOT
HETATM    1  C   UNL     1       6.503  33.545  61.389  1.00  0.00     0.073 C 
HETATM    2  C   UNL     1       5.140  33.290  60.863  1.00  0.00     0.062 A 
HETATM    3  N   UNL     1       4.731  32.034  60.615  1.00  0.00    -0.177 NA
HETATM    4  N   UNL     1       3.470  32.178  60.157  1.00  0.00    -0.256 N 
HETATM    5  H   UNL     1       2.950  31.351  59.887  1.00  0.00     0.191 HD
HETATM    6  C   UNL     1       3.072  33.474  60.118  1.00  0.00     0.175 A 
HETATM    7  C   UNL     1       4.121  34.228  60.574  1.00  0.00     0.034 A 
HETATM    8  C   UNL     1       4.004  35.714  60.635  1.00  0.00     0.106 A 
HETATM    9  C   UNL     1       2.640  36.162  60.099  1.00  0.00     0.081 A 
HETATM   10  C   UNL     1       2.422  37.568  60.009  1.00  0.00     0.100 C 
HETATM   11  N   UNL     1       2.235  38.710  59.928  1.00  0.00    -0.191 NA
HETATM   12  C   UNL     1       1.686  35.287  59.674  1.00  0.00     0.140 A 
HETATM   13  O   UNL     1       1.884  33.894  59.701  1.00  0.00    -0.279 OA
ENDROOT
BRANCH   8  14
HETATM   14  C   UNL     1       4.240  36.115  62.095  1.00  0.00    -0.033 A 
HETATM   15  C   UNL     1       5.092  37.205  62.460  1.00  0.00    -0.016 A 
HETATM   16  C   UNL     1       5.272  37.508  63.840  1.00  0.00     0.008 A 
HETATM   17  C   UNL     1       5.776  38.024  61.521  1.00  0.00     0.013 A 
HETATM   18  C   UNL     1       6.121  38.581  64.203  1.00  0.00     0.015 A 
HETATM   19  C   UNL     1       4.603  36.747  64.832  1.00  0.00     0.079 A 
HETATM   20  C   UNL     1       6.779  39.358  63.254  1.00  0.00     0.001 A 
HETATM   21  C   UNL     1       6.604  39.080  61.911  1.00  0.00     0.001 A 
HETATM   22  C   UNL     1       3.747  35.716  64.460  1.00  0.00     0.038 A 
HETATM   23  C   UNL     1       3.563  35.412  63.114  1.00  0.00     0.012 A 
BRANCH  19  24
HETATM   24  O   UNL     1       4.840  37.103  66.140  1.00  0.00    -0.355 OA
HETATM   25  C   UNL     1       4.667  36.108  67.140  1.00  0.00     0.210 C 
ENDBRANCH  19  24
ENDBRANCH   8  14
BRANCH  12  26
HETATM   26  N   UNL     1       0.452  35.635  59.174  1.00  0.00    -0.282 NA
HETATM   27  H   UNL     1      -0.263  35.842  59.868  1.00  0.00     0.126 HD
HETATM   28  H   UNL     1       0.134  34.995  58.451  1.00  0.00     0.126 HD
ENDBRANCH  12  26
TORSDOF 3
ENDMDL
MODEL 10
REMARK VINA RESULT:      -6.6     16.717     19.057
REMARK  3 active torsions:
REMARK  status: ('A' for Active; 'I' for Inactive)
REMARK    1  A    between atoms: C_8  and  C_9 
REMARK    2  A    between atoms: C_16  and  O_17 
REMARK    3  A    between atoms: C_24  and  N_25 
ROOT
HETATM    1  C   UNL     1      12.095  10.423  57.051  1.00  0.00     0.073 C 
HETATM    2  C   UNL     1      13.295  10.253  56.196  1.00  0.00     0.062 A 
HETATM    3  N   UNL     1      14.407   9.683  56.690  1.00  0.00    -0.177 NA
HETATM    4  N   UNL     1      15.275   9.694  55.658  1.00  0.00    -0.256 N 
HETATM    5  H   UNL     1      16.206   9.318  55.796  1.00  0.00     0.191 HD
HETATM    6  C   UNL     1      14.745  10.240  54.534  1.00  0.00     0.175 A 
HETATM    7  C   UNL     1      13.461  10.609  54.837  1.00  0.00     0.034 A 
HETATM    8  C   UNL     1      12.608  11.266  53.804  1.00  0.00     0.106 A 
HETATM    9  C   UNL     1      13.398  11.456  52.505  1.00  0.00     0.081 A 
HETATM   10  C   UNL     1      12.739  12.159  51.455  1.00  0.00     0.100 C 
HETATM   11  N   UNL     1      12.211  12.732  50.595  1.00  0.00    -0.191 NA
HETATM   12  C   UNL     1      14.684  11.033  52.350  1.00  0.00     0.140 A 
HETATM   13  O   UNL     1      15.386  10.380  53.380  1.00  0.00    -0.279 OA
ENDROOT
BRANCH   8  14
HETATM   14  C   UNL     1      11.367  10.384  53.632  1.00  0.00    -0.033 A 
HETATM   15  C   UNL     1      10.050  10.852  53.936  1.00  0.00    -0.016 A 
HETATM   16  C   UNL     1       8.946   9.967  53.762  1.00  0.00     0.008 A 
HETATM   17  C   UNL     1       9.762  12.164  54.399  1.00  0.00     0.013 A 
HETATM   18  C   UNL     1       7.643  10.426  54.069  1.00  0.00     0.015 A 
HETATM   19  C   UNL     1       9.155   8.650  53.281  1.00  0.00     0.079 A 
HETATM   20  C   UNL     1       7.402  11.718  54.527  1.00  0.00     0.001 A 
HETATM   21  C   UNL     1       8.463  12.589  54.690  1.00  0.00     0.001 A 
HETATM   22  C   UNL     1      10.438   8.223  52.953  1.00  0.00     0.038 A 
HETATM   23  C   UNL     1      11.523   9.079  53.117  1.00  0.00     0.012 A 
BRANCH  19  24
HETATM   24  O   UNL     1       8.036   7.861  53.151  1.00  0.00    -0.355 OA
HETATM   25  C   UNL     1       8.039   6.864  52.138  1.00  0.00     0.210 C 
ENDBRANCH  19  24
ENDBRANCH   8  14
BRANCH  12  26
HETATM   26  N   UNL     1      15.442  11.188  51.212  1.00  0.00    -0.282 NA
HETATM   27  H   UNL     1      14.950  11.051  50.331  1.00  0.00     0.126 HD
HETATM   28  H   UNL     1      16.321  10.680  51.262  1.00  0.00     0.126 HD
ENDBRANCH  12  26
TORSDOF 3
ENDMDL
