MODEL 1
REMARK VINA RESULT:      -8.3      0.000      0.000
REMARK  6 active torsions:
REMARK  status: ('A' for Active; 'I' for Inactive)
REMARK    1  A    between atoms: N_4  and  C_5 
REMARK    2  A    between atoms: C_5  and  C_6 
REMARK    3  A    between atoms: C_6  and  C_7 
REMARK    4  A    between atoms: C_7  and  N_8 
REMARK       I    between atoms: N_8  and  C_9 
REMARK       I    between atoms: C_9  and  N_10 
REMARK    5  A    between atoms: N_10  and  C_11 
REMARK    6  A    between atoms: C_12  and  O_13 
ROOT
HETATM    1  N   UNL     1       6.012  27.719  57.078  1.00  0.00    -0.343 N 
HETATM    2  C   UNL     1       7.099  28.252  57.735  1.00  0.00     0.320 C 
HETATM    3  N   UNL     1       7.078  29.632  57.670  1.00  0.00    -0.306 N 
HETATM    4  O   UNL     1       7.983  27.566  58.235  1.00  0.00    -0.247 OA
HETATM    5  H   UNL     1       5.161  28.270  57.130  1.00  0.00     0.164 HD
HETATM    6  H   UNL     1       6.805  29.960  56.755  1.00  0.00     0.171 HD
ENDROOT
BRANCH   1   7
HETATM    7  C   UNL     1       5.836  26.288  56.952  1.00  0.00     0.126 C 
BRANCH   7   8
HETATM    8  C   UNL     1       6.100  25.738  55.549  1.00  0.00     0.041 C 
BRANCH   8   9
HETATM    9  C   UNL     1       7.533  25.275  55.307  1.00  0.00     0.152 C 
BRANCH   9  10
HETATM   10  N   UNL     1       7.634  23.862  54.990  1.00  0.00    -0.272 N 
HETATM   11  N   UNL     1       7.622  22.968  56.002  1.00  0.00    -0.176 NA
HETATM   12  C   UNL     1       7.775  21.785  55.392  1.00  0.00     0.074 A 
HETATM   13  C   UNL     1       7.843  20.533  56.184  1.00  0.00     0.074 C 
HETATM   14  C   UNL     1       7.856  21.933  53.989  1.00  0.00     0.083 A 
HETATM   15  C   UNL     1       7.755  23.287  53.750  1.00  0.00     0.050 A 
HETATM   16 CL   UNL     1       8.049  20.683  52.858  1.00  0.00    -0.080 Cl
HETATM   17  C   UNL     1       7.782  24.057  52.483  1.00  0.00     0.072 C 
ENDBRANCH   9  10
ENDBRANCH   8   9
ENDBRANCH   7   8
ENDBRANCH   1   7
BRANCH   3  18
HETATM   18  C   UNL     1       7.980  30.436  58.404  1.00  0.00     0.071 A 
HETATM   19  C   UNL     1       9.272  30.751  57.929  1.00  0.00     0.095 A 
HETATM   20  C   UNL     1      10.096  31.587  58.693  1.00  0.00     0.041 A 
HETATM   21  C   UNL     1       9.653  32.082  59.923  1.00  0.00     0.026 A 
HETATM   22  C   UNL     1       8.397  31.725  60.404  1.00  0.00     0.036 A 
HETATM   23 CL   UNL     1       7.868  32.324  61.929  1.00  0.00    -0.084 Cl
HETATM   24  C   UNL     1       7.564  30.893  59.660  1.00  0.00     0.056 A 
BRANCH  19  25
HETATM   25  O   UNL     1       9.674  30.126  56.775  1.00  0.00    -0.354 OA
HETATM   26  C   UNL     1      10.877  29.373  56.819  1.00  0.00     0.210 C 
ENDBRANCH  19  25
ENDBRANCH   3  18
TORSDOF 6
ENDMDL
MODEL 2
REMARK VINA RESULT:      -8.0      5.470      7.561
REMARK  6 active torsions:
REMARK  status: ('A' for Active; 'I' for Inactive)
REMARK    1  A    between atoms: N_4  and  C_5 
REMARK    2  A    between atoms: C_5  and  C_6 
REMARK    3  A    between atoms: C_6  and  C_7 
REMARK    4  A    between atoms: C_7  and  N_8 
REMARK       I    between atoms: N_8  and  C_9 
REMARK       I    between atoms: C_9  and  N_10 
REMARK    5  A    between atoms: N_10  and  C_11 
REMARK    6  A    between atoms: C_12  and  O_13 
ROOT
HETATM    1  N   UNL     1       6.026  26.616  53.691  1.00  0.00    -0.343 N 
HETATM    2  C   UNL     1       5.228  27.080  52.669  1.00  0.00     0.320 C 
HETATM    3  N   UNL     1       5.937  27.133  51.485  1.00  0.00    -0.306 N 
HETATM    4  O   UNL     1       4.073  27.453  52.837  1.00  0.00    -0.247 OA
HETATM    5  H   UNL     1       6.720  25.926  53.421  1.00  0.00     0.164 HD
HETATM    6  H   UNL     1       6.872  27.489  51.622  1.00  0.00     0.171 HD
ENDROOT
BRANCH   1   7
HETATM    7  C   UNL     1       5.533  26.524  55.049  1.00  0.00     0.126 C 
BRANCH   7   8
HETATM    8  C   UNL     1       6.178  25.417  55.884  1.00  0.00     0.041 C 
BRANCH   8   9
HETATM    9  C   UNL     1       7.587  25.029  55.445  1.00  0.00     0.152 C 
BRANCH   9  10
HETATM   10  N   UNL     1       7.706  23.631  55.069  1.00  0.00    -0.272 N 
HETATM   11  N   UNL     1       7.679  22.694  56.041  1.00  0.00    -0.176 NA
HETATM   12  C   UNL     1       7.855  21.540  55.383  1.00  0.00     0.074 A 
HETATM   13  C   UNL     1       7.915  20.256  56.122  1.00  0.00     0.074 C 
HETATM   14  C   UNL     1       7.966  21.750  53.990  1.00  0.00     0.083 A 
HETATM   15  C   UNL     1       7.859  23.112  53.808  1.00  0.00     0.050 A 
HETATM   16 CL   UNL     1       8.193  20.551  52.811  1.00  0.00    -0.080 Cl
HETATM   17  C   UNL     1       7.908  23.937  52.576  1.00  0.00     0.072 C 
ENDBRANCH   9  10
ENDBRANCH   8   9
ENDBRANCH   7   8
ENDBRANCH   1   7
BRANCH   3  18
HETATM   18  C   UNL     1       5.315  27.409  50.244  1.00  0.00     0.071 A 
HETATM   19  C   UNL     1       5.372  28.682  49.637  1.00  0.00     0.095 A 
HETATM   20  C   UNL     1       4.767  28.870  48.388  1.00  0.00     0.041 A 
HETATM   21  C   UNL     1       4.093  27.817  47.763  1.00  0.00     0.026 A 
HETATM   22  C   UNL     1       4.001  26.580  48.395  1.00  0.00     0.036 A 
HETATM   23 CL   UNL     1       3.153  25.293  47.628  1.00  0.00    -0.084 Cl
HETATM   24  C   UNL     1       4.595  26.374  49.637  1.00  0.00     0.056 A 
BRANCH  19  25
HETATM   25  O   UNL     1       5.945  29.691  50.370  1.00  0.00    -0.354 OA
HETATM   26  C   UNL     1       5.144  30.826  50.665  1.00  0.00     0.210 C 
ENDBRANCH  19  25
ENDBRANCH   3  18
TORSDOF 6
ENDMDL
MODEL 3
REMARK VINA RESULT:      -7.9      2.571      8.209
REMARK  6 active torsions:
REMARK  status: ('A' for Active; 'I' for Inactive)
REMARK    1  A    between atoms: N_4  and  C_5 
REMARK    2  A    between atoms: C_5  and  C_6 
REMARK    3  A    between atoms: C_6  and  C_7 
REMARK    4  A    between atoms: C_7  and  N_8 
REMARK       I    between atoms: N_8  and  C_9 
REMARK       I    between atoms: C_9  and  N_10 
REMARK    5  A    between atoms: N_10  and  C_11 
REMARK    6  A    between atoms: C_12  and  O_13 
ROOT
HETATM    1  N   UNL     1       5.993  26.912  53.500  1.00  0.00    -0.343 N 
HETATM    2  C   UNL     1       5.986  25.555  53.739  1.00  0.00     0.320 C 
HETATM    3  N   UNL     1       7.271  25.091  53.938  1.00  0.00    -0.306 N 
HETATM    4  O   UNL     1       4.969  24.873  53.700  1.00  0.00    -0.247 OA
HETATM    5  H   UNL     1       6.708  27.436  53.994  1.00  0.00     0.164 HD
HETATM    6  H   UNL     1       7.925  25.506  53.291  1.00  0.00     0.171 HD
ENDROOT
BRANCH   1   7
HETATM    7  C   UNL     1       4.772  27.629  53.201  1.00  0.00     0.126 C 
BRANCH   7   8
HETATM    8  C   UNL     1       4.392  28.693  54.233  1.00  0.00     0.041 C 
BRANCH   8   9
HETATM    9  C   UNL     1       4.426  28.214  55.681  1.00  0.00     0.152 C 
BRANCH   9  10
HETATM   10  N   UNL     1       5.554  28.736  56.432  1.00  0.00    -0.272 N 
HETATM   11  N   UNL     1       6.775  28.196  56.227  1.00  0.00    -0.176 NA
HETATM   12  C   UNL     1       7.567  28.853  57.085  1.00  0.00     0.074 A 
HETATM   13  C   UNL     1       9.009  28.518  57.184  1.00  0.00     0.074 C 
HETATM   14  C   UNL     1       6.848  29.828  57.813  1.00  0.00     0.083 A 
HETATM   15  C   UNL     1       5.546  29.740  57.368  1.00  0.00     0.050 A 
HETATM   16 CL   UNL     1       7.482  30.869  58.992  1.00  0.00    -0.080 Cl
HETATM   17  C   UNL     1       4.330  30.493  57.759  1.00  0.00     0.072 C 
ENDBRANCH   9  10
ENDBRANCH   8   9
ENDBRANCH   7   8
ENDBRANCH   1   7
BRANCH   3  18
HETATM   18  C   UNL     1       7.538  23.771  54.371  1.00  0.00     0.071 A 
HETATM   19  C   UNL     1       7.557  23.412  55.737  1.00  0.00     0.095 A 
HETATM   20  C   UNL     1       7.788  22.077  56.089  1.00  0.00     0.041 A 
HETATM   21  C   UNL     1       8.023  21.116  55.101  1.00  0.00     0.026 A 
HETATM   22  C   UNL     1       8.052  21.491  53.762  1.00  0.00     0.036 A 
HETATM   23 CL   UNL     1       8.362  20.305  52.552  1.00  0.00    -0.084 Cl
HETATM   24  C   UNL     1       7.826  22.814  53.392  1.00  0.00     0.056 A 
BRANCH  19  25
HETATM   25  O   UNL     1       7.439  24.434  56.645  1.00  0.00    -0.354 OA
HETATM   26  C   UNL     1       8.599  24.799  57.379  1.00  0.00     0.210 C 
ENDBRANCH  19  25
ENDBRANCH   3  18
TORSDOF 6
ENDMDL
MODEL 4
REMARK VINA RESULT:      -7.8      5.846      7.782
REMARK  6 active torsions:
REMARK  status: ('A' for Active; 'I' for Inactive)
REMARK    1  A    between atoms: N_4  and  C_5 
REMARK    2  A    between atoms: C_5  and  C_6 
REMARK    3  A    between atoms: C_6  and  C_7 
REMARK    4  A    between atoms: C_7  and  N_8 
REMARK       I    between atoms: N_8  and  C_9 
REMARK       I    between atoms: C_9  and  N_10 
REMARK    5  A    between atoms: N_10  and  C_11 
REMARK    6  A    between atoms: C_12  and  O_13 
ROOT
HETATM    1  N   UNL     1       4.391  26.081  52.889  1.00  0.00    -0.343 N 
HETATM    2  C   UNL     1       4.774  26.564  51.657  1.00  0.00     0.320 C 
HETATM    3  N   UNL     1       3.956  27.607  51.269  1.00  0.00    -0.306 N 
HETATM    4  O   UNL     1       5.674  26.067  50.992  1.00  0.00    -0.247 OA
HETATM    5  H   UNL     1       4.023  26.774  53.532  1.00  0.00     0.164 HD
HETATM    6  H   UNL     1       2.986  27.423  51.482  1.00  0.00     0.171 HD
ENDROOT
BRANCH   1   7
HETATM    7  C   UNL     1       5.055  24.944  53.491  1.00  0.00     0.126 C 
BRANCH   7   8
HETATM    8  C   UNL     1       6.124  25.309  54.524  1.00  0.00     0.041 C 
BRANCH   8   9
HETATM    9  C   UNL     1       7.558  25.059  54.069  1.00  0.00     0.152 C 
BRANCH   9  10
HETATM   10  N   UNL     1       7.984  23.682  54.244  1.00  0.00    -0.272 N 
HETATM   11  N   UNL     1       7.880  22.834  53.199  1.00  0.00    -0.176 NA
HETATM   12  C   UNL     1       8.302  21.661  53.690  1.00  0.00     0.074 A 
HETATM   13  C   UNL     1       8.309  20.447  52.837  1.00  0.00     0.074 C 
HETATM   14  C   UNL     1       8.699  21.778  55.041  1.00  0.00     0.083 A 
HETATM   15  C   UNL     1       8.492  23.098  55.378  1.00  0.00     0.050 A 
HETATM   16 CL   UNL     1       9.294  20.529  56.023  1.00  0.00    -0.080 Cl
HETATM   17  C   UNL     1       8.711  23.825  56.652  1.00  0.00     0.072 C 
ENDBRANCH   9  10
ENDBRANCH   8   9
ENDBRANCH   7   8
ENDBRANCH   1   7
BRANCH   3  18
HETATM   18  C   UNL     1       4.230  28.397  50.128  1.00  0.00     0.071 A 
HETATM   19  C   UNL     1       3.724  28.078  48.848  1.00  0.00     0.095 A 
HETATM   20  C   UNL     1       4.004  28.930  47.773  1.00  0.00     0.041 A 
HETATM   21  C   UNL     1       4.795  30.067  47.959  1.00  0.00     0.026 A 
HETATM   22  C   UNL     1       5.330  30.343  49.213  1.00  0.00     0.036 A 
HETATM   23 CL   UNL     1       6.320  31.735  49.430  1.00  0.00    -0.084 Cl
HETATM   24  C   UNL     1       5.064  29.508  50.295  1.00  0.00     0.056 A 
BRANCH  19  25
HETATM   25  O   UNL     1       3.060  26.883  48.727  1.00  0.00    -0.354 OA
HETATM   26  C   UNL     1       3.659  25.878  47.923  1.00  0.00     0.210 C 
ENDBRANCH  19  25
ENDBRANCH   3  18
TORSDOF 6
ENDMDL
MODEL 5
REMARK VINA RESULT:      -7.8      2.117      8.622
REMARK  6 active torsions:
REMARK  status: ('A' for Active; 'I' for Inactive)
REMARK    1  A    between atoms: N_4  and  C_5 
REMARK    2  A    between atoms: C_5  and  C_6 
REMARK    3  A    between atoms: C_6  and  C_7 
REMARK    4  A    between atoms: C_7  and  N_8 
REMARK       I    between atoms: N_8  and  C_9 
REMARK       I    between atoms: C_9  and  N_10 
REMARK    5  A    between atoms: N_10  and  C_11 
REMARK    6  A    between atoms: C_12  and  O_13 
ROOT
HETATM    1  N   UNL     1       6.616  27.049  56.703  1.00  0.00    -0.343 N 
HETATM    2  C   UNL     1       6.447  25.959  55.877  1.00  0.00     0.320 C 
HETATM    3  N   UNL     1       7.664  25.370  55.596  1.00  0.00    -0.306 N 
HETATM    4  O   UNL     1       5.361  25.631  55.415  1.00  0.00    -0.247 OA
HETATM    5  H   UNL     1       7.369  26.968  57.378  1.00  0.00     0.164 HD
HETATM    6  H   UNL     1       8.382  26.056  55.418  1.00  0.00     0.171 HD
ENDROOT
BRANCH   1   7
HETATM    7  C   UNL     1       5.495  27.875  57.097  1.00  0.00     0.126 C 
BRANCH   7   8
HETATM    8  C   UNL     1       5.490  29.274  56.476  1.00  0.00     0.041 C 
BRANCH   8   9
HETATM    9  C   UNL     1       5.550  30.416  57.485  1.00  0.00     0.152 C 
BRANCH   9  10
HETATM   10  N   UNL     1       6.891  30.676  57.978  1.00  0.00    -0.272 N 
HETATM   11  N   UNL     1       7.934  30.071  57.370  1.00  0.00    -0.176 NA
HETATM   12  C   UNL     1       8.999  30.474  58.076  1.00  0.00     0.074 A 
HETATM   13  C   UNL     1      10.358  29.990  57.730  1.00  0.00     0.074 C 
HETATM   14  C   UNL     1       8.628  31.357  59.115  1.00  0.00     0.083 A 
HETATM   15  C   UNL     1       7.258  31.481  59.029  1.00  0.00     0.050 A 
HETATM   16 CL   UNL     1       9.676  32.091  60.230  1.00  0.00    -0.080 Cl
HETATM   17  C   UNL     1       6.296  32.259  59.846  1.00  0.00     0.072 C 
ENDBRANCH   9  10
ENDBRANCH   8   9
ENDBRANCH   7   8
ENDBRANCH   1   7
BRANCH   3  18
HETATM   18  C   UNL     1       7.764  24.135  54.912  1.00  0.00     0.071 A 
HETATM   19  C   UNL     1       7.971  24.058  53.517  1.00  0.00     0.095 A 
HETATM   20  C   UNL     1       8.101  22.801  52.916  1.00  0.00     0.041 A 
HETATM   21  C   UNL     1       8.002  21.636  53.682  1.00  0.00     0.026 A 
HETATM   22  C   UNL     1       7.748  21.724  55.048  1.00  0.00     0.036 A 
HETATM   23 CL   UNL     1       7.608  20.284  55.982  1.00  0.00    -0.084 Cl
HETATM   24  C   UNL     1       7.614  22.965  55.665  1.00  0.00     0.056 A 
BRANCH  19  25
HETATM   25  O   UNL     1       7.933  25.240  52.822  1.00  0.00    -0.354 OA
HETATM   26  C   UNL     1       6.789  25.496  52.021  1.00  0.00     0.210 C 
ENDBRANCH  19  25
ENDBRANCH   3  18
TORSDOF 6
ENDMDL
MODEL 6
REMARK VINA RESULT:      -7.8      6.420      9.770
REMARK  6 active torsions:
REMARK  status: ('A' for Active; 'I' for Inactive)
REMARK    1  A    between atoms: N_4  and  C_5 
REMARK    2  A    between atoms: C_5  and  C_6 
REMARK    3  A    between atoms: C_6  and  C_7 
REMARK    4  A    between atoms: C_7  and  N_8 
REMARK       I    between atoms: N_8  and  C_9 
REMARK       I    between atoms: C_9  and  N_10 
REMARK    5  A    between atoms: N_10  and  C_11 
REMARK    6  A    between atoms: C_12  and  O_13 
ROOT
HETATM    1  N   UNL     1       6.063  26.737  51.090  1.00  0.00    -0.343 N 
HETATM    2  C   UNL     1       5.993  25.555  51.794  1.00  0.00     0.320 C 
HETATM    3  N   UNL     1       7.229  25.229  52.319  1.00  0.00    -0.306 N 
HETATM    4  O   UNL     1       4.977  24.875  51.864  1.00  0.00    -0.247 OA
HETATM    5  H   UNL     1       6.715  27.423  51.457  1.00  0.00     0.164 HD
HETATM    6  H   UNL     1       7.974  25.404  51.661  1.00  0.00     0.171 HD
ENDROOT
BRANCH   1   7
HETATM    7  C   UNL     1       4.910  27.266  50.392  1.00  0.00     0.126 C 
BRANCH   7   8
HETATM    8  C   UNL     1       5.243  28.285  49.301  1.00  0.00     0.041 C 
BRANCH   8   9
HETATM    9  C   UNL     1       4.992  27.795  47.878  1.00  0.00     0.152 C 
BRANCH   9  10
HETATM   10  N   UNL     1       3.647  28.069  47.405  1.00  0.00    -0.272 N 
HETATM   11  N   UNL     1       3.291  29.350  47.167  1.00  0.00    -0.176 NA
HETATM   12  C   UNL     1       2.006  29.266  46.796  1.00  0.00     0.074 A 
HETATM   13  C   UNL     1       1.236  30.491  46.473  1.00  0.00     0.074 C 
HETATM   14  C   UNL     1       1.560  27.925  46.775  1.00  0.00     0.083 A 
HETATM   15  C   UNL     1       2.641  27.165  47.166  1.00  0.00     0.050 A 
HETATM   16 CL   UNL     1       0.003  27.393  46.360  1.00  0.00    -0.080 Cl
HETATM   17  C   UNL     1       2.790  25.700  47.344  1.00  0.00     0.072 C 
ENDBRANCH   9  10
ENDBRANCH   8   9
ENDBRANCH   7   8
ENDBRANCH   1   7
BRANCH   3  18
HETATM   18  C   UNL     1       7.405  24.158  53.226  1.00  0.00     0.071 A 
HETATM   19  C   UNL     1       7.186  24.300  54.614  1.00  0.00     0.095 A 
HETATM   20  C   UNL     1       7.340  23.185  55.447  1.00  0.00     0.041 A 
HETATM   21  C   UNL     1       7.732  21.953  54.913  1.00  0.00     0.026 A 
HETATM   22  C   UNL     1       7.993  21.838  53.551  1.00  0.00     0.036 A 
HETATM   23 CL   UNL     1       8.493  20.323  52.905  1.00  0.00    -0.084 Cl
HETATM   24  C   UNL     1       7.846  22.936  52.707  1.00  0.00     0.056 A 
BRANCH  19  25
HETATM   25  O   UNL     1       6.925  25.567  55.072  1.00  0.00    -0.354 OA
HETATM   26  C   UNL     1       5.613  25.840  55.542  1.00  0.00     0.210 C 
ENDBRANCH  19  25
ENDBRANCH   3  18
TORSDOF 6
ENDMDL
MODEL 7
REMARK VINA RESULT:      -7.5      2.003      2.750
REMARK  6 active torsions:
REMARK  status: ('A' for Active; 'I' for Inactive)
REMARK    1  A    between atoms: N_4  and  C_5 
REMARK    2  A    between atoms: C_5  and  C_6 
REMARK    3  A    between atoms: C_6  and  C_7 
REMARK    4  A    between atoms: C_7  and  N_8 
REMARK       I    between atoms: N_8  and  C_9 
REMARK       I    between atoms: C_9  and  N_10 
REMARK    5  A    between atoms: N_10  and  C_11 
REMARK    6  A    between atoms: C_12  and  O_13 
ROOT
HETATM    1  N   UNL     1       7.157  28.299  55.372  1.00  0.00    -0.343 N 
HETATM    2  C   UNL     1       6.941  28.675  56.679  1.00  0.00     0.320 C 
HETATM    3  N   UNL     1       7.745  29.747  57.015  1.00  0.00    -0.306 N 
HETATM    4  O   UNL     1       6.185  28.074  57.433  1.00  0.00    -0.247 OA
HETATM    5  H   UNL     1       7.378  29.056  54.733  1.00  0.00     0.164 HD
HETATM    6  H   UNL     1       8.679  29.646  56.647  1.00  0.00     0.171 HD
ENDROOT
BRANCH   1   7
HETATM    7  C   UNL     1       6.477  27.159  54.794  1.00  0.00     0.126 C 
BRANCH   7   8
HETATM    8  C   UNL     1       7.304  25.871  54.775  1.00  0.00     0.041 C 
BRANCH   8   9
HETATM    9  C   UNL     1       6.519  24.608  55.112  1.00  0.00     0.152 C 
BRANCH   9  10
HETATM   10  N   UNL     1       7.299  23.391  54.966  1.00  0.00    -0.272 N 
HETATM   11  N   UNL     1       7.254  22.730  53.789  1.00  0.00    -0.176 NA
HETATM   12  C   UNL     1       8.026  21.655  53.992  1.00  0.00     0.074 A 
HETATM   13  C   UNL     1       8.208  20.646  52.920  1.00  0.00     0.074 C 
HETATM   14  C   UNL     1       8.581  21.653  55.293  1.00  0.00     0.083 A 
HETATM   15  C   UNL     1       8.102  22.792  55.904  1.00  0.00     0.050 A 
HETATM   16 CL   UNL     1       9.612  20.472  55.942  1.00  0.00    -0.080 Cl
HETATM   17  C   UNL     1       8.321  23.331  57.268  1.00  0.00     0.072 C 
ENDBRANCH   9  10
ENDBRANCH   8   9
ENDBRANCH   7   8
ENDBRANCH   1   7
BRANCH   3  18
HETATM   18  C   UNL     1       7.603  30.442  58.239  1.00  0.00     0.071 A 
HETATM   19  C   UNL     1       6.617  31.434  58.436  1.00  0.00     0.095 A 
HETATM   20  C   UNL     1       6.510  32.050  59.688  1.00  0.00     0.041 A 
HETATM   21  C   UNL     1       7.385  31.707  60.723  1.00  0.00     0.026 A 
HETATM   22  C   UNL     1       8.385  30.764  60.502  1.00  0.00     0.036 A 
HETATM   23 CL   UNL     1       9.471  30.361  61.775  1.00  0.00    -0.084 Cl
HETATM   24  C   UNL     1       8.508  30.141  59.263  1.00  0.00     0.056 A 
BRANCH  19  25
HETATM   25  O   UNL     1       5.880  31.799  57.337  1.00  0.00    -0.354 OA
HETATM   26  C   UNL     1       4.495  31.484  57.339  1.00  0.00     0.210 C 
ENDBRANCH  19  25
ENDBRANCH   3  18
TORSDOF 6
ENDMDL
MODEL 8
REMARK VINA RESULT:      -7.4      5.287      8.468
REMARK  6 active torsions:
REMARK  status: ('A' for Active; 'I' for Inactive)
REMARK    1  A    between atoms: N_4  and  C_5 
REMARK    2  A    between atoms: C_5  and  C_6 
REMARK    3  A    between atoms: C_6  and  C_7 
REMARK    4  A    between atoms: C_7  and  N_8 
REMARK       I    between atoms: N_8  and  C_9 
REMARK       I    between atoms: C_9  and  N_10 
REMARK    5  A    between atoms: N_10  and  C_11 
REMARK    6  A    between atoms: C_12  and  O_13 
ROOT
HETATM    1  N   UNL     1       6.743  27.330  53.310  1.00  0.00    -0.343 N 
HETATM    2  C   UNL     1       6.573  26.028  53.729  1.00  0.00     0.320 C 
HETATM    3  N   UNL     1       7.762  25.331  53.641  1.00  0.00    -0.306 N 
HETATM    4  O   UNL     1       5.488  25.567  54.059  1.00  0.00    -0.247 OA
HETATM    5  H   UNL     1       7.648  27.738  53.516  1.00  0.00     0.164 HD
HETATM    6  H   UNL     1       8.262  25.547  52.791  1.00  0.00     0.171 HD
ENDROOT
BRANCH   1   7
HETATM    7  C   UNL     1       5.628  28.252  53.250  1.00  0.00     0.126 C 
BRANCH   7   8
HETATM    8  C   UNL     1       4.637  27.976  52.118  1.00  0.00     0.041 C 
BRANCH   8   9
HETATM    9  C   UNL     1       5.256  27.944  50.725  1.00  0.00     0.152 C 
BRANCH   9  10
HETATM   10  N   UNL     1       4.327  27.521  49.692  1.00  0.00    -0.272 N 
HETATM   11  N   UNL     1       4.267  26.210  49.372  1.00  0.00    -0.176 NA
HETATM   12  C   UNL     1       3.368  26.160  48.380  1.00  0.00     0.074 A 
HETATM   13  C   UNL     1       3.042  24.869  47.726  1.00  0.00     0.074 C 
HETATM   14  C   UNL     1       2.842  27.440  48.092  1.00  0.00     0.083 A 
HETATM   15  C   UNL     1       3.471  28.306  48.960  1.00  0.00     0.050 A 
HETATM   16 CL   UNL     1       1.681  27.804  46.910  1.00  0.00    -0.080 Cl
HETATM   17  C   UNL     1       3.346  29.774  49.134  1.00  0.00     0.072 C 
ENDBRANCH   9  10
ENDBRANCH   8   9
ENDBRANCH   7   8
ENDBRANCH   1   7
BRANCH   3  18
HETATM   18  C   UNL     1       7.913  24.027  54.168  1.00  0.00     0.071 A 
HETATM   19  C   UNL     1       8.011  23.779  55.555  1.00  0.00     0.095 A 
HETATM   20  C   UNL     1       8.117  22.457  56.005  1.00  0.00     0.041 A 
HETATM   21  C   UNL     1       8.153  21.400  55.092  1.00  0.00     0.026 A 
HETATM   22  C   UNL     1       8.106  21.661  53.726  1.00  0.00     0.036 A 
HETATM   23 CL   UNL     1       8.169  20.354  52.606  1.00  0.00    -0.084 Cl
HETATM   24  C   UNL     1       8.001  22.968  53.258  1.00  0.00     0.056 A 
BRANCH  19  25
HETATM   25  O   UNL     1       8.092  24.876  56.375  1.00  0.00    -0.354 OA
HETATM   26  C   UNL     1       8.794  24.731  57.601  1.00  0.00     0.210 C 
ENDBRANCH  19  25
ENDBRANCH   3  18
TORSDOF 6
ENDMDL
MODEL 9
REMARK VINA RESULT:      -7.4      6.738      9.231
REMARK  6 active torsions:
REMARK  status: ('A' for Active; 'I' for Inactive)
REMARK    1  A    between atoms: N_4  and  C_5 
REMARK    2  A    between atoms: C_5  and  C_6 
REMARK    3  A    between atoms: C_6  and  C_7 
REMARK    4  A    between atoms: C_7  and  N_8 
REMARK       I    between atoms: N_8  and  C_9 
REMARK       I    between atoms: C_9  and  N_10 
REMARK    5  A    between atoms: N_10  and  C_11 
REMARK    6  A    between atoms: C_12  and  O_13 
ROOT
HETATM    1  N   UNL     1       4.642  26.691  51.179  1.00  0.00    -0.343 N 
HETATM    2  C   UNL     1       4.191  26.988  49.912  1.00  0.00     0.320 C 
HETATM    3  N   UNL     1       3.132  27.873  49.969  1.00  0.00    -0.306 N 
HETATM    4  O   UNL     1       4.642  26.466  48.901  1.00  0.00    -0.247 OA
HETATM    5  H   UNL     1       4.581  27.449  51.851  1.00  0.00     0.164 HD
HETATM    6  H   UNL     1       2.490  27.644  50.714  1.00  0.00     0.171 HD
ENDROOT
BRANCH   1   7
HETATM    7  C   UNL     1       5.710  25.737  51.393  1.00  0.00     0.126 C 
BRANCH   7   8
HETATM    8  C   UNL     1       5.482  24.783  52.567  1.00  0.00     0.041 C 
BRANCH   8   9
HETATM    9  C   UNL     1       6.518  24.889  53.682  1.00  0.00     0.152 C 
BRANCH   9  10
HETATM   10  N   UNL     1       7.127  23.615  54.022  1.00  0.00    -0.272 N 
HETATM   11  N   UNL     1       7.406  22.744  53.028  1.00  0.00    -0.176 NA
HETATM   12  C   UNL     1       7.906  21.676  53.664  1.00  0.00     0.074 A 
HETATM   13  C   UNL     1       8.312  20.470  52.903  1.00  0.00     0.074 C 
HETATM   14  C   UNL     1       7.966  21.886  55.060  1.00  0.00     0.083 A 
HETATM   15  C   UNL     1       7.464  23.152  55.270  1.00  0.00     0.050 A 
HETATM   16 CL   UNL     1       8.536  20.783  56.216  1.00  0.00    -0.080 Cl
HETATM   17  C   UNL     1       7.265  23.928  56.518  1.00  0.00     0.072 C 
ENDBRANCH   9  10
ENDBRANCH   8   9
ENDBRANCH   7   8
ENDBRANCH   1   7
BRANCH   3  18
HETATM   18  C   UNL     1       2.590  28.477  48.811  1.00  0.00     0.071 A 
HETATM   19  C   UNL     1       3.133  29.653  48.247  1.00  0.00     0.095 A 
HETATM   20  C   UNL     1       2.568  30.171  47.075  1.00  0.00     0.041 A 
HETATM   21  C   UNL     1       1.465  29.546  46.485  1.00  0.00     0.026 A 
HETATM   22  C   UNL     1       0.908  28.417  47.078  1.00  0.00     0.036 A 
HETATM   23 CL   UNL     1      -0.462  27.664  46.356  1.00  0.00    -0.084 Cl
HETATM   24  C   UNL     1       1.455  27.887  48.244  1.00  0.00     0.056 A 
BRANCH  19  25
HETATM   25  O   UNL     1       4.134  30.271  48.953  1.00  0.00    -0.354 OA
HETATM   26  C   UNL     1       3.802  31.455  49.665  1.00  0.00     0.210 C 
ENDBRANCH  19  25
ENDBRANCH   3  18
TORSDOF 6
ENDMDL
MODEL 10
REMARK VINA RESULT:      -7.4      6.516      9.191
REMARK  6 active torsions:
REMARK  status: ('A' for Active; 'I' for Inactive)
REMARK    1  A    between atoms: N_4  and  C_5 
REMARK    2  A    between atoms: C_5  and  C_6 
REMARK    3  A    between atoms: C_6  and  C_7 
REMARK    4  A    between atoms: C_7  and  N_8 
REMARK       I    between atoms: N_8  and  C_9 
REMARK       I    between atoms: C_9  and  N_10 
REMARK    5  A    between atoms: N_10  and  C_11 
REMARK    6  A    between atoms: C_12  and  O_13 
ROOT
HETATM    1  N   UNL     1       6.229  25.969  51.082  1.00  0.00    -0.343 N 
HETATM    2  C   UNL     1       6.203  25.252  52.258  1.00  0.00     0.320 C 
HETATM    3  N   UNL     1       7.480  24.868  52.620  1.00  0.00    -0.306 N 
HETATM    4  O   UNL     1       5.167  24.954  52.839  1.00  0.00    -0.247 OA
HETATM    5  H   UNL     1       7.049  26.550  50.945  1.00  0.00     0.164 HD
HETATM    6  H   UNL     1       8.016  24.552  51.825  1.00  0.00     0.171 HD
ENDROOT
BRANCH   1   7
HETATM    7  C   UNL     1       5.008  26.436  50.459  1.00  0.00     0.126 C 
BRANCH   7   8
HETATM    8  C   UNL     1       5.213  27.517  49.395  1.00  0.00     0.041 C 
BRANCH   8   9
HETATM    9  C   UNL     1       4.901  27.072  47.970  1.00  0.00     0.152 C 
BRANCH   9  10
HETATM   10  N   UNL     1       3.614  27.542  47.490  1.00  0.00    -0.272 N 
HETATM   11  N   UNL     1       3.367  28.870  47.493  1.00  0.00    -0.176 NA
HETATM   12  C   UNL     1       2.108  28.967  47.045  1.00  0.00     0.074 A 
HETATM   13  C   UNL     1       1.450  30.291  46.932  1.00  0.00     0.074 C 
HETATM   14  C   UNL     1       1.570  27.697  46.735  1.00  0.00     0.083 A 
HETATM   15  C   UNL     1       2.565  26.789  47.024  1.00  0.00     0.050 A 
HETATM   16 CL   UNL     1       0.012  27.387  46.140  1.00  0.00    -0.080 Cl
HETATM   17  C   UNL     1       2.597  25.310  46.915  1.00  0.00     0.072 C 
ENDBRANCH   9  10
ENDBRANCH   8   9
ENDBRANCH   7   8
ENDBRANCH   1   7
BRANCH   3  18
HETATM   18  C   UNL     1       7.762  24.270  53.870  1.00  0.00     0.071 A 
HETATM   19  C   UNL     1       8.005  22.885  54.009  1.00  0.00     0.095 A 
HETATM   20  C   UNL     1       8.318  22.371  55.273  1.00  0.00     0.041 A 
HETATM   21  C   UNL     1       8.364  23.213  56.387  1.00  0.00     0.026 A 
HETATM   22  C   UNL     1       8.074  24.567  56.247  1.00  0.00     0.036 A 
HETATM   23 CL   UNL     1       8.113  25.594  57.628  1.00  0.00    -0.084 Cl
HETATM   24  C   UNL     1       7.759  25.097  54.999  1.00  0.00     0.056 A 
BRANCH  19  25
HETATM   25  O   UNL     1       7.820  22.111  52.891  1.00  0.00    -0.354 OA
HETATM   26  C   UNL     1       8.198  20.744  52.967  1.00  0.00     0.210 C 
ENDBRANCH  19  25
ENDBRANCH   3  18
TORSDOF 6
ENDMDL
