MODEL 1
REMARK VINA RESULT:      -7.6      0.000      0.000
REMARK  5 active torsions:
REMARK  status: ('A' for Active; 'I' for Inactive)
REMARK    1  A    between atoms: C_2  and  O_3 
REMARK    2  A    between atoms: C_4  and  C_5 
REMARK    3  A    between atoms: C_5  and  O_6 
REMARK    4  A    between atoms: C_9  and  C_10 
REMARK    5  A    between atoms: C_22  and  O_23 
ROOT
HETATM    1  C   UNL     1       4.229  28.253  56.214  1.00  0.00     0.047 C 
HETATM    2  C   UNL     1       4.916  27.861  54.891  1.00  0.00     0.073 C 
HETATM    3  C   UNL     1       5.041  26.296  54.803  1.00  0.00     0.133 C 
HETATM    4  C   UNL     1       6.165  25.660  55.691  1.00  0.00     0.074 C 
HETATM    5  C   UNL     1       7.207  26.646  56.112  1.00  0.00     0.030 A 
HETATM    6  C   UNL     1       7.255  27.951  55.674  1.00  0.00     0.042 A 
HETATM    7  N   UNL     1       8.314  28.546  56.298  1.00  0.00    -0.279 N 
HETATM    8  H   UNL     1       8.647  29.502  56.216  1.00  0.00     0.189 HD
HETATM    9  N   UNL     1       8.937  27.718  57.164  1.00  0.00    -0.149 NA
HETATM   10  C   UNL     1       8.248  26.591  57.040  1.00  0.00     0.190 A 
HETATM   11  C   UNL     1       6.285  28.594  54.765  1.00  0.00     0.097 C 
ENDROOT
BRANCH   4  12
HETATM   12  C   UNL     1       6.933  24.491  55.082  1.00  0.00    -0.048 A 
HETATM   13  C   UNL     1       7.703  24.621  53.908  1.00  0.00     0.009 A 
HETATM   14  C   UNL     1       8.370  23.524  53.358  1.00  0.00     0.024 A 
HETATM   15  C   UNL     1       8.276  22.281  53.974  1.00  0.00     0.034 A 
HETATM   16 CL   UNL     1       9.092  20.927  53.295  1.00  0.00    -0.084 Cl
HETATM   17  C   UNL     1       7.519  22.126  55.133  1.00  0.00     0.024 A 
HETATM   18  C   UNL     1       6.850  23.223  55.683  1.00  0.00     0.009 A 
ENDBRANCH   4  12
BRANCH   3  19
HETATM   19  C   UNL     1       5.115  25.861  53.352  1.00  0.00     0.266 C 
HETATM   20  O   UNL     1       4.596  24.848  52.902  1.00  0.00    -0.265 OA
BRANCH  19  21
HETATM   21  O   UNL     1       5.883  26.733  52.637  1.00  0.00    -0.326 OA
HETATM   22  C   UNL     1       5.704  26.657  51.222  1.00  0.00     0.213 C 
ENDBRANCH  19  21
ENDBRANCH   3  19
BRANCH   2  23
HETATM   23  O   UNL     1       4.034  28.359  53.869  1.00  0.00    -0.389 OA
HETATM   24  H   UNL     1       3.821  27.614  53.269  1.00  0.00     0.210 HD
ENDBRANCH   2  23
BRANCH  10  25
HETATM   25  O   UNL     1       8.630  25.598  57.835  1.00  0.00    -0.343 OA
HETATM   26  H   UNL     1       8.178  24.814  57.480  1.00  0.00     0.219 HD
ENDBRANCH  10  25
TORSDOF 5
ENDMDL
MODEL 2
REMARK VINA RESULT:      -7.4      3.243      5.092
REMARK  5 active torsions:
REMARK  status: ('A' for Active; 'I' for Inactive)
REMARK    1  A    between atoms: C_2  and  O_3 
REMARK    2  A    between atoms: C_4  and  C_5 
REMARK    3  A    between atoms: C_5  and  O_6 
REMARK    4  A    between atoms: C_9  and  C_10 
REMARK    5  A    between atoms: C_22  and  O_23 
ROOT
HETATM    1  C   UNL     1       8.083  25.057  52.149  1.00  0.00     0.047 C 
HETATM    2  C   UNL     1       6.680  25.511  52.597  1.00  0.00     0.073 C 
HETATM    3  C   UNL     1       6.766  26.949  53.229  1.00  0.00     0.133 C 
HETATM    4  C   UNL     1       7.358  27.011  54.679  1.00  0.00     0.074 C 
HETATM    5  C   UNL     1       7.318  25.694  55.384  1.00  0.00     0.030 A 
HETATM    6  C   UNL     1       6.718  24.564  54.876  1.00  0.00     0.042 A 
HETATM    7  N   UNL     1       6.917  23.561  55.780  1.00  0.00    -0.279 N 
HETATM    8  H   UNL     1       6.615  22.592  55.734  1.00  0.00     0.189 HD
HETATM    9  N   UNL     1       7.661  23.955  56.835  1.00  0.00    -0.149 NA
HETATM   10  C   UNL     1       7.896  25.233  56.569  1.00  0.00     0.190 A 
HETATM   11  C   UNL     1       6.060  24.454  53.558  1.00  0.00     0.097 C 
ENDROOT
BRANCH   4  12
HETATM   12  C   UNL     1       6.709  28.007  55.636  1.00  0.00    -0.048 A 
HETATM   13  C   UNL     1       5.506  27.727  56.317  1.00  0.00     0.009 A 
HETATM   14  C   UNL     1       4.921  28.672  57.163  1.00  0.00     0.024 A 
HETATM   15  C   UNL     1       5.530  29.909  57.341  1.00  0.00     0.034 A 
HETATM   16 CL   UNL     1       4.808  31.076  58.379  1.00  0.00    -0.084 Cl
HETATM   17  C   UNL     1       6.718  30.210  56.678  1.00  0.00     0.024 A 
HETATM   18  C   UNL     1       7.303  29.265  55.830  1.00  0.00     0.009 A 
ENDBRANCH   4  12
BRANCH   3  19
HETATM   19  C   UNL     1       5.429  27.653  53.104  1.00  0.00     0.266 C 
HETATM   20  O   UNL     1       4.342  27.121  53.296  1.00  0.00    -0.265 OA
BRANCH  19  21
HETATM   21  O   UNL     1       5.610  28.943  52.699  1.00  0.00    -0.326 OA
HETATM   22  C   UNL     1       5.532  29.137  51.287  1.00  0.00     0.213 C 
ENDBRANCH  19  21
ENDBRANCH   3  19
BRANCH   2  23
HETATM   23  O   UNL     1       5.908  25.535  51.383  1.00  0.00    -0.389 OA
HETATM   24  H   UNL     1       6.517  25.351  50.638  1.00  0.00     0.210 HD
ENDBRANCH   2  23
BRANCH  10  25
HETATM   25  O   UNL     1       8.667  25.867  57.445  1.00  0.00    -0.343 OA
HETATM   26  H   UNL     1       8.715  25.265  58.207  1.00  0.00     0.219 HD
ENDBRANCH  10  25
TORSDOF 5
ENDMDL
MODEL 3
REMARK VINA RESULT:      -7.3      2.095      2.950
REMARK  5 active torsions:
REMARK  status: ('A' for Active; 'I' for Inactive)
REMARK    1  A    between atoms: C_2  and  O_3 
REMARK    2  A    between atoms: C_4  and  C_5 
REMARK    3  A    between atoms: C_5  and  O_6 
REMARK    4  A    between atoms: C_9  and  C_10 
REMARK    5  A    between atoms: C_22  and  O_23 
ROOT
HETATM    1  C   UNL     1       3.508  30.269  57.718  1.00  0.00     0.047 C 
HETATM    2  C   UNL     1       4.196  30.351  56.341  1.00  0.00     0.073 C 
HETATM    3  C   UNL     1       4.224  28.926  55.677  1.00  0.00     0.133 C 
HETATM    4  C   UNL     1       5.287  27.933  56.261  1.00  0.00     0.074 C 
HETATM    5  C   UNL     1       6.380  28.622  57.014  1.00  0.00     0.030 A 
HETATM    6  C   UNL     1       6.519  29.990  57.092  1.00  0.00     0.042 A 
HETATM    7  N   UNL     1       7.600  30.239  57.887  1.00  0.00    -0.279 N 
HETATM    8  H   UNL     1       7.995  31.133  58.165  1.00  0.00     0.189 HD
HETATM    9  N   UNL     1       8.152  29.110  58.381  1.00  0.00    -0.149 NA
HETATM   10  C   UNL     1       7.397  28.157  57.850  1.00  0.00     0.190 A 
HETATM   11  C   UNL     1       5.610  30.987  56.491  1.00  0.00     0.097 C 
ENDROOT
BRANCH   4  12
HETATM   12  C   UNL     1       5.992  27.025  55.258  1.00  0.00    -0.048 A 
HETATM   13  C   UNL     1       7.070  27.468  54.464  1.00  0.00     0.009 A 
HETATM   14  C   UNL     1       7.675  26.622  53.532  1.00  0.00     0.024 A 
HETATM   15  C   UNL     1       7.211  25.319  53.381  1.00  0.00     0.034 A 
HETATM   16 CL   UNL     1       7.951  24.277  52.231  1.00  0.00    -0.084 Cl
HETATM   17  C   UNL     1       6.147  24.858  54.153  1.00  0.00     0.024 A 
HETATM   18  C   UNL     1       5.540  25.706  55.085  1.00  0.00     0.009 A 
ENDBRANCH   4  12
BRANCH   3  19
HETATM   19  C   UNL     1       4.301  29.056  54.169  1.00  0.00     0.266 C 
HETATM   20  O   UNL     1       4.897  29.947  53.577  1.00  0.00    -0.265 OA
BRANCH  19  21
HETATM   21  O   UNL     1       3.569  28.071  53.572  1.00  0.00    -0.326 OA
HETATM   22  C   UNL     1       4.029  27.697  52.273  1.00  0.00     0.213 C 
ENDBRANCH  19  21
ENDBRANCH   3  19
BRANCH   2  23
HETATM   23  O   UNL     1       3.369  31.250  55.581  1.00  0.00    -0.389 OA
HETATM   24  H   UNL     1       2.837  31.776  56.215  1.00  0.00     0.210 HD
ENDBRANCH   2  23
BRANCH  10  25
HETATM   25  O   UNL     1       7.699  26.918  58.218  1.00  0.00    -0.343 OA
HETATM   26  H   UNL     1       6.959  26.645  58.787  1.00  0.00     0.219 HD
ENDBRANCH  10  25
TORSDOF 5
ENDMDL
MODEL 4
REMARK VINA RESULT:      -7.0      3.252      5.186
REMARK  5 active torsions:
REMARK  status: ('A' for Active; 'I' for Inactive)
REMARK    1  A    between atoms: C_2  and  O_3 
REMARK    2  A    between atoms: C_4  and  C_5 
REMARK    3  A    between atoms: C_5  and  O_6 
REMARK    4  A    between atoms: C_9  and  C_10 
REMARK    5  A    between atoms: C_22  and  O_23 
ROOT
HETATM    1  C   UNL     1       7.975  25.774  56.268  1.00  0.00     0.047 C 
HETATM    2  C   UNL     1       6.633  25.444  55.586  1.00  0.00     0.073 C 
HETATM    3  C   UNL     1       6.564  26.153  54.184  1.00  0.00     0.133 C 
HETATM    4  C   UNL     1       6.278  27.694  54.224  1.00  0.00     0.074 C 
HETATM    5  C   UNL     1       5.679  28.145  55.517  1.00  0.00     0.030 A 
HETATM    6  C   UNL     1       5.298  27.293  56.529  1.00  0.00     0.042 A 
HETATM    7  N   UNL     1       4.833  28.066  57.554  1.00  0.00    -0.279 N 
HETATM    8  H   UNL     1       4.472  27.777  58.458  1.00  0.00     0.189 HD
HETATM    9  N   UNL     1       4.934  29.387  57.292  1.00  0.00    -0.149 NA
HETATM   10  C   UNL     1       5.452  29.406  56.070  1.00  0.00     0.190 A 
HETATM   11  C   UNL     1       5.451  25.824  56.525  1.00  0.00     0.097 C 
ENDROOT
BRANCH   4  12
HETATM   12  C   UNL     1       5.361  28.244  53.135  1.00  0.00    -0.048 A 
HETATM   13  C   UNL     1       3.962  28.318  53.291  1.00  0.00     0.009 A 
HETATM   14  C   UNL     1       3.146  28.799  52.264  1.00  0.00     0.024 A 
HETATM   15  C   UNL     1       3.719  29.211  51.066  1.00  0.00     0.034 A 
HETATM   16 CL   UNL     1       2.716  29.798  49.798  1.00  0.00    -0.084 Cl
HETATM   17  C   UNL     1       5.099  29.147  50.886  1.00  0.00     0.024 A 
HETATM   18  C   UNL     1       5.915  28.664  51.914  1.00  0.00     0.009 A 
ENDBRANCH   4  12
BRANCH   3  19
HETATM   19  C   UNL     1       5.622  25.400  53.266  1.00  0.00     0.266 C 
HETATM   20  O   UNL     1       4.516  24.985  53.591  1.00  0.00    -0.265 OA
BRANCH  19  21
HETATM   21  O   UNL     1       6.203  25.208  52.047  1.00  0.00    -0.326 OA
HETATM   22  C   UNL     1       7.618  25.018  52.089  1.00  0.00     0.213 C 
ENDBRANCH  19  21
ENDBRANCH   3  19
BRANCH   2  23
HETATM   23  O   UNL     1       6.654  24.014  55.431  1.00  0.00    -0.389 OA
HETATM   24  H   UNL     1       6.015  23.634  56.069  1.00  0.00     0.210 HD
ENDBRANCH   2  23
BRANCH  10  25
HETATM   25  O   UNL     1       5.705  30.613  55.576  1.00  0.00    -0.343 OA
HETATM   26  H   UNL     1       6.660  30.736  55.710  1.00  0.00     0.219 HD
ENDBRANCH  10  25
TORSDOF 5
ENDMDL
MODEL 5
REMARK VINA RESULT:      -6.9      8.546     11.025
REMARK  5 active torsions:
REMARK  status: ('A' for Active; 'I' for Inactive)
REMARK    1  A    between atoms: C_2  and  O_3 
REMARK    2  A    between atoms: C_4  and  C_5 
REMARK    3  A    between atoms: C_5  and  O_6 
REMARK    4  A    between atoms: C_9  and  C_10 
REMARK    5  A    between atoms: C_22  and  O_23 
ROOT
HETATM    1  C   UNL     1       3.688  35.769  63.925  1.00  0.00     0.047 C 
HETATM    2  C   UNL     1       3.854  34.243  63.783  1.00  0.00     0.073 C 
HETATM    3  C   UNL     1       5.240  33.921  63.113  1.00  0.00     0.133 C 
HETATM    4  C   UNL     1       5.315  34.174  61.568  1.00  0.00     0.074 C 
HETATM    5  C   UNL     1       3.970  34.237  60.920  1.00  0.00     0.030 A 
HETATM    6  C   UNL     1       2.785  33.981  61.574  1.00  0.00     0.042 A 
HETATM    7  N   UNL     1       1.778  34.173  60.672  1.00  0.00    -0.279 N 
HETATM    8  H   UNL     1       0.776  34.076  60.806  1.00  0.00     0.189 HD
HETATM    9  N   UNL     1       2.231  34.591  59.470  1.00  0.00    -0.149 NA
HETATM   10  C   UNL     1       3.545  34.630  59.649  1.00  0.00     0.190 A 
HETATM   11  C   UNL     1       2.643  33.647  63.005  1.00  0.00     0.097 C 
ENDROOT
BRANCH   4  12
HETATM   12  C   UNL     1       6.114  33.162  60.752  1.00  0.00    -0.048 A 
HETATM   13  C   UNL     1       5.498  32.212  59.912  1.00  0.00     0.009 A 
HETATM   14  C   UNL     1       6.257  31.279  59.201  1.00  0.00     0.024 A 
HETATM   15  C   UNL     1       7.642  31.283  59.320  1.00  0.00     0.034 A 
HETATM   16 CL   UNL     1       8.578  30.132  58.450  1.00  0.00    -0.084 Cl
HETATM   17  C   UNL     1       8.275  32.211  60.144  1.00  0.00     0.024 A 
HETATM   18  C   UNL     1       7.516  33.144  60.858  1.00  0.00     0.009 A 
ENDBRANCH   4  12
BRANCH   3  19
HETATM   19  C   UNL     1       5.699  32.532  63.510  1.00  0.00     0.266 C 
HETATM   20  O   UNL     1       4.994  31.530  63.477  1.00  0.00    -0.265 OA
BRANCH  19  21
HETATM   21  O   UNL     1       6.988  32.569  63.954  1.00  0.00    -0.326 OA
HETATM   22  C   UNL     1       7.281  33.657  64.831  1.00  0.00     0.213 C 
ENDBRANCH  19  21
ENDBRANCH   3  19
BRANCH   2  23
HETATM   23  O   UNL     1       3.816  33.752  65.135  1.00  0.00    -0.389 OA
HETATM   24  H   UNL     1       4.739  33.704  65.461  1.00  0.00     0.210 HD
ENDBRANCH   2  23
BRANCH  10  25
HETATM   25  O   UNL     1       4.249  35.066  58.611  1.00  0.00    -0.343 OA
HETATM   26  H   UNL     1       5.008  35.527  59.007  1.00  0.00     0.219 HD
ENDBRANCH  10  25
TORSDOF 5
ENDMDL
MODEL 6
REMARK VINA RESULT:      -6.8      8.205     10.781
REMARK  5 active torsions:
REMARK  status: ('A' for Active; 'I' for Inactive)
REMARK    1  A    between atoms: C_2  and  O_3 
REMARK    2  A    between atoms: C_4  and  C_5 
REMARK    3  A    between atoms: C_5  and  O_6 
REMARK    4  A    between atoms: C_9  and  C_10 
REMARK    5  A    between atoms: C_22  and  O_23 
ROOT
HETATM    1  C   UNL     1       4.033  35.627  63.734  1.00  0.00     0.047 C 
HETATM    2  C   UNL     1       3.840  34.108  63.558  1.00  0.00     0.073 C 
HETATM    3  C   UNL     1       4.789  33.583  62.419  1.00  0.00     0.133 C 
HETATM    4  C   UNL     1       4.329  33.911  60.957  1.00  0.00     0.074 C 
HETATM    5  C   UNL     1       2.877  34.255  60.864  1.00  0.00     0.030 A 
HETATM    6  C   UNL     1       1.997  34.178  61.920  1.00  0.00     0.042 A 
HETATM    7  N   UNL     1       0.782  34.602  61.463  1.00  0.00    -0.279 N 
HETATM    8  H   UNL     1      -0.097  34.679  61.967  1.00  0.00     0.189 HD
HETATM    9  N   UNL     1       0.824  35.004  60.175  1.00  0.00    -0.149 NA
HETATM   10  C   UNL     1       2.092  34.795  59.843  1.00  0.00     0.190 A 
HETATM   11  C   UNL     1       2.338  33.788  63.303  1.00  0.00     0.097 C 
ENDROOT
BRANCH   4  12
HETATM   12  C   UNL     1       4.558  32.824  59.912  1.00  0.00    -0.048 A 
HETATM   13  C   UNL     1       5.766  32.708  59.193  1.00  0.00     0.009 A 
HETATM   14  C   UNL     1       5.935  31.720  58.221  1.00  0.00     0.024 A 
HETATM   15  C   UNL     1       4.897  30.833  57.953  1.00  0.00     0.034 A 
HETATM   16 CL   UNL     1       5.101  29.618  56.752  1.00  0.00    -0.084 Cl
HETATM   17  C   UNL     1       3.694  30.927  58.648  1.00  0.00     0.024 A 
HETATM   18  C   UNL     1       3.525  31.917  59.621  1.00  0.00     0.009 A 
ENDBRANCH   4  12
BRANCH   3  19
HETATM   19  C   UNL     1       5.090  32.112  62.629  1.00  0.00     0.266 C 
HETATM   20  O   UNL     1       4.257  31.269  62.941  1.00  0.00    -0.265 OA
BRANCH  19  21
HETATM   21  O   UNL     1       6.424  31.876  62.472  1.00  0.00    -0.326 OA
HETATM   22  C   UNL     1       7.270  32.700  63.274  1.00  0.00     0.213 C 
ENDBRANCH  19  21
ENDBRANCH   3  19
BRANCH   2  23
HETATM   23  O   UNL     1       4.218  33.551  64.830  1.00  0.00    -0.389 OA
HETATM   24  H   UNL     1       5.078  33.097  64.714  1.00  0.00     0.210 HD
ENDBRANCH   2  23
BRANCH  10  25
HETATM   25  O   UNL     1       2.427  35.159  58.611  1.00  0.00    -0.343 OA
HETATM   26  H   UNL     1       3.275  35.623  58.716  1.00  0.00     0.219 HD
ENDBRANCH  10  25
TORSDOF 5
ENDMDL
MODEL 7
REMARK VINA RESULT:      -6.8     10.982     13.254
REMARK  5 active torsions:
REMARK  status: ('A' for Active; 'I' for Inactive)
REMARK    1  A    between atoms: C_2  and  O_3 
REMARK    2  A    between atoms: C_4  and  C_5 
REMARK    3  A    between atoms: C_5  and  O_6 
REMARK    4  A    between atoms: C_9  and  C_10 
REMARK    5  A    between atoms: C_22  and  O_23 
ROOT
HETATM    1  C   UNL     1       6.858  34.123  65.203  1.00  0.00     0.047 C 
HETATM    2  C   UNL     1       5.338  34.232  64.976  1.00  0.00     0.073 C 
HETATM    3  C   UNL     1       5.008  33.969  63.461  1.00  0.00     0.133 C 
HETATM    4  C   UNL     1       5.339  35.151  62.486  1.00  0.00     0.074 C 
HETATM    5  C   UNL     1       5.478  36.465  63.186  1.00  0.00     0.030 A 
HETATM    6  C   UNL     1       5.226  36.656  64.526  1.00  0.00     0.042 A 
HETATM    7  N   UNL     1       5.496  37.965  64.804  1.00  0.00    -0.279 N 
HETATM    8  H   UNL     1       5.424  38.457  65.690  1.00  0.00     0.189 HD
HETATM    9  N   UNL     1       5.963  38.637  63.729  1.00  0.00    -0.149 NA
HETATM   10  C   UNL     1       5.951  37.713  62.777  1.00  0.00     0.190 A 
HETATM   11  C   UNL     1       4.822  35.610  65.487  1.00  0.00     0.097 C 
ENDROOT
BRANCH   4  12
HETATM   12  C   UNL     1       4.347  35.395  61.353  1.00  0.00    -0.048 A 
HETATM   13  C   UNL     1       3.310  36.346  61.447  1.00  0.00     0.009 A 
HETATM   14  C   UNL     1       2.399  36.525  60.404  1.00  0.00     0.024 A 
HETATM   15  C   UNL     1       2.512  35.755  59.251  1.00  0.00     0.034 A 
HETATM   16 CL   UNL     1       1.388  35.970  57.967  1.00  0.00    -0.084 Cl
HETATM   17  C   UNL     1       3.527  34.809  59.134  1.00  0.00     0.024 A 
HETATM   18  C   UNL     1       4.438  34.628  60.179  1.00  0.00     0.009 A 
ENDBRANCH   4  12
BRANCH   3  19
HETATM   19  C   UNL     1       3.586  33.464  63.319  1.00  0.00     0.266 C 
HETATM   20  O   UNL     1       2.611  33.966  63.864  1.00  0.00    -0.265 OA
BRANCH  19  21
HETATM   21  O   UNL     1       3.558  32.345  62.539  1.00  0.00    -0.326 OA
HETATM   22  C   UNL     1       4.772  31.592  62.540  1.00  0.00     0.213 C 
ENDBRANCH  19  21
ENDBRANCH   3  19
BRANCH   2  23
HETATM   23  O   UNL     1       4.778  33.198  65.805  1.00  0.00    -0.389 OA
HETATM   24  H   UNL     1       5.453  32.494  65.902  1.00  0.00     0.210 HD
ENDBRANCH   2  23
BRANCH  10  25
HETATM   25  O   UNL     1       6.419  38.104  61.597  1.00  0.00    -0.343 OA
HETATM   26  H   UNL     1       5.959  37.539  60.953  1.00  0.00     0.219 HD
ENDBRANCH  10  25
TORSDOF 5
ENDMDL
MODEL 8
REMARK VINA RESULT:      -6.7      2.996      4.286
REMARK  5 active torsions:
REMARK  status: ('A' for Active; 'I' for Inactive)
REMARK    1  A    between atoms: C_2  and  O_3 
REMARK    2  A    between atoms: C_4  and  C_5 
REMARK    3  A    between atoms: C_5  and  O_6 
REMARK    4  A    between atoms: C_9  and  C_10 
REMARK    5  A    between atoms: C_22  and  O_23 
ROOT
HETATM    1  C   UNL     1       1.989  29.741  51.007  1.00  0.00     0.047 C 
HETATM    2  C   UNL     1       3.479  29.517  50.682  1.00  0.00     0.073 C 
HETATM    3  C   UNL     1       3.853  28.009  50.926  1.00  0.00     0.133 C 
HETATM    4  C   UNL     1       4.016  27.591  52.427  1.00  0.00     0.074 C 
HETATM    5  C   UNL     1       4.238  28.756  53.338  1.00  0.00     0.030 A 
HETATM    6  C   UNL     1       4.405  30.052  52.906  1.00  0.00     0.042 A 
HETATM    7  N   UNL     1       4.544  30.833  54.017  1.00  0.00    -0.279 N 
HETATM    8  H   UNL     1       4.683  31.837  54.078  1.00  0.00     0.189 HD
HETATM    9  N   UNL     1       4.425  30.128  55.163  1.00  0.00    -0.149 NA
HETATM   10  C   UNL     1       4.232  28.890  54.728  1.00  0.00     0.190 A 
HETATM   11  C   UNL     1       4.357  30.508  51.502  1.00  0.00     0.097 C 
ENDROOT
BRANCH   4  12
HETATM   12  C   UNL     1       5.140  26.608  52.742  1.00  0.00    -0.048 A 
HETATM   13  C   UNL     1       6.470  27.023  52.956  1.00  0.00     0.009 A 
HETATM   14  C   UNL     1       7.482  26.096  53.212  1.00  0.00     0.024 A 
HETATM   15  C   UNL     1       7.179  24.739  53.257  1.00  0.00     0.034 A 
HETATM   16 CL   UNL     1       8.425  23.595  53.566  1.00  0.00    -0.084 Cl
HETATM   17  C   UNL     1       5.872  24.304  53.047  1.00  0.00     0.024 A 
HETATM   18  C   UNL     1       4.859  25.232  52.789  1.00  0.00     0.009 A 
ENDBRANCH   4  12
BRANCH   3  19
HETATM   19  C   UNL     1       5.045  27.625  50.071  1.00  0.00     0.266 C 
HETATM   20  O   UNL     1       6.009  28.349  49.854  1.00  0.00    -0.265 OA
BRANCH  19  21
HETATM   21  O   UNL     1       4.864  26.381  49.541  1.00  0.00    -0.326 OA
HETATM   22  C   UNL     1       4.085  26.355  48.345  1.00  0.00     0.213 C 
ENDBRANCH  19  21
ENDBRANCH   3  19
BRANCH   2  23
HETATM   23  O   UNL     1       3.594  29.850  49.287  1.00  0.00    -0.389 OA
HETATM   24  H   UNL     1       3.545  29.015  48.775  1.00  0.00     0.210 HD
ENDBRANCH   2  23
BRANCH  10  25
HETATM   25  O   UNL     1       4.033  27.978  55.672  1.00  0.00    -0.343 OA
HETATM   26  H   UNL     1       3.076  28.006  55.840  1.00  0.00     0.219 HD
ENDBRANCH  10  25
TORSDOF 5
ENDMDL
MODEL 9
REMARK VINA RESULT:      -6.7      8.448     10.679
REMARK  5 active torsions:
REMARK  status: ('A' for Active; 'I' for Inactive)
REMARK    1  A    between atoms: C_2  and  O_3 
REMARK    2  A    between atoms: C_4  and  C_5 
REMARK    3  A    between atoms: C_5  and  O_6 
REMARK    4  A    between atoms: C_9  and  C_10 
REMARK    5  A    between atoms: C_22  and  O_23 
ROOT
HETATM    1  C   UNL     1       3.343  34.540  64.764  1.00  0.00     0.047 C 
HETATM    2  C   UNL     1       3.787  35.141  63.416  1.00  0.00     0.073 C 
HETATM    3  C   UNL     1       3.312  34.212  62.240  1.00  0.00     0.133 C 
HETATM    4  C   UNL     1       4.145  32.899  62.042  1.00  0.00     0.074 C 
HETATM    5  C   UNL     1       5.494  32.960  62.682  1.00  0.00     0.030 A 
HETATM    6  C   UNL     1       6.014  34.086  63.280  1.00  0.00     0.042 A 
HETATM    7  N   UNL     1       7.239  33.748  63.778  1.00  0.00    -0.279 N 
HETATM    8  H   UNL     1       7.904  34.327  64.283  1.00  0.00     0.189 HD
HETATM    9  N   UNL     1       7.535  32.444  63.586  1.00  0.00    -0.149 NA
HETATM   10  C   UNL     1       6.470  31.994  62.936  1.00  0.00     0.190 A 
HETATM   11  C   UNL     1       5.326  35.384  63.423  1.00  0.00     0.097 C 
ENDROOT
BRANCH   4  12
HETATM   12  C   UNL     1       4.395  32.464  60.601  1.00  0.00    -0.048 A 
HETATM   13  C   UNL     1       5.535  32.868  59.876  1.00  0.00     0.009 A 
HETATM   14  C   UNL     1       5.721  32.477  58.549  1.00  0.00     0.024 A 
HETATM   15  C   UNL     1       4.770  31.676  57.926  1.00  0.00     0.034 A 
HETATM   16 CL   UNL     1       4.994  31.198  56.289  1.00  0.00    -0.084 Cl
HETATM   17  C   UNL     1       3.634  31.265  58.620  1.00  0.00     0.024 A 
HETATM   18  C   UNL     1       3.447  31.657  59.950  1.00  0.00     0.009 A 
ENDBRANCH   4  12
BRANCH   3  19
HETATM   19  C   UNL     1       3.167  35.020  60.965  1.00  0.00     0.266 C 
HETATM   20  O   UNL     1       3.966  35.865  60.582  1.00  0.00    -0.265 OA
BRANCH  19  21
HETATM   21  O   UNL     1       1.998  34.705  60.337  1.00  0.00    -0.326 OA
HETATM   22  C   UNL     1       0.856  34.671  61.194  1.00  0.00     0.213 C 
ENDBRANCH  19  21
ENDBRANCH   3  19
BRANCH   2  23
HETATM   23  O   UNL     1       3.122  36.416  63.357  1.00  0.00    -0.389 OA
HETATM   24  H   UNL     1       2.173  36.267  63.551  1.00  0.00     0.210 HD
ENDBRANCH   2  23
BRANCH  10  25
HETATM   25  O   UNL     1       6.478  30.695  62.657  1.00  0.00    -0.343 OA
HETATM   26  H   UNL     1       7.419  30.474  62.556  1.00  0.00     0.219 HD
ENDBRANCH  10  25
TORSDOF 5
ENDMDL
MODEL 10
REMARK VINA RESULT:      -6.6      7.537      9.932
REMARK  5 active torsions:
REMARK  status: ('A' for Active; 'I' for Inactive)
REMARK    1  A    between atoms: C_2  and  O_3 
REMARK    2  A    between atoms: C_4  and  C_5 
REMARK    3  A    between atoms: C_5  and  O_6 
REMARK    4  A    between atoms: C_9  and  C_10 
REMARK    5  A    between atoms: C_22  and  O_23 
ROOT
HETATM    1  C   UNL     1       5.001  32.891  56.373  1.00  0.00     0.047 C 
HETATM    2  C   UNL     1       4.247  32.247  57.553  1.00  0.00     0.073 C 
HETATM    3  C   UNL     1       4.250  33.228  58.782  1.00  0.00     0.133 C 
HETATM    4  C   UNL     1       5.603  33.319  59.567  1.00  0.00     0.074 C 
HETATM    5  C   UNL     1       6.505  32.154  59.315  1.00  0.00     0.030 A 
HETATM    6  C   UNL     1       6.151  31.051  58.571  1.00  0.00     0.042 A 
HETATM    7  N   UNL     1       7.237  30.225  58.534  1.00  0.00    -0.279 N 
HETATM    8  H   UNL     1       7.337  29.324  58.075  1.00  0.00     0.189 HD
HETATM    9  N   UNL     1       8.307  30.747  59.170  1.00  0.00    -0.149 NA
HETATM   10  C   UNL     1       7.845  31.906  59.620  1.00  0.00     0.190 A 
HETATM   11  C   UNL     1       4.861  30.853  57.879  1.00  0.00     0.097 C 
ENDROOT
BRANCH   4  12
HETATM   12  C   UNL     1       5.502  33.436  61.085  1.00  0.00    -0.048 A 
HETATM   13  C   UNL     1       5.463  34.681  61.747  1.00  0.00     0.009 A 
HETATM   14  C   UNL     1       5.401  34.754  63.140  1.00  0.00     0.024 A 
HETATM   15  C   UNL     1       5.377  33.584  63.891  1.00  0.00     0.034 A 
HETATM   16 CL   UNL     1       5.306  33.673  65.608  1.00  0.00    -0.084 Cl
HETATM   17  C   UNL     1       5.416  32.343  63.261  1.00  0.00     0.024 A 
HETATM   18  C   UNL     1       5.480  32.268  61.866  1.00  0.00     0.009 A 
ENDBRANCH   4  12
BRANCH   3  19
HETATM   19  C   UNL     1       3.062  32.940  59.680  1.00  0.00     0.266 C 
HETATM   20  O   UNL     1       2.774  31.834  60.119  1.00  0.00    -0.265 OA
BRANCH  19  21
HETATM   21  O   UNL     1       2.338  34.078  59.884  1.00  0.00    -0.326 OA
HETATM   22  C   UNL     1       1.836  34.230  61.212  1.00  0.00     0.213 C 
ENDBRANCH  19  21
ENDBRANCH   3  19
BRANCH   2  23
HETATM   23  O   UNL     1       2.909  32.054  57.060  1.00  0.00    -0.389 OA
HETATM   24  H   UNL     1       2.301  32.560  57.639  1.00  0.00     0.210 HD
ENDBRANCH   2  23
BRANCH  10  25
HETATM   25  O   UNL     1       8.729  32.664  60.259  1.00  0.00    -0.343 OA
HETATM   26  H   UNL     1       8.191  33.324  60.728  1.00  0.00     0.219 HD
ENDBRANCH  10  25
TORSDOF 5
ENDMDL
