MODEL 1
REMARK VINA RESULT:      -7.9      0.000      0.000
REMARK  4 active torsions:
REMARK  status: ('A' for Active; 'I' for Inactive)
REMARK    1  A    between atoms: C_2  and  O_3 
REMARK    2  A    between atoms: O_3  and  C_4 
REMARK    3  A    between atoms: C_7  and  N_8 
REMARK       I    between atoms: N_8  and  C_9 
REMARK    4  A    between atoms: C_9  and  C_10 
ROOT
HETATM    1  N   UNL     1       8.069  27.714  57.682  1.00  0.00    -0.323 N 
HETATM    2  C   UNL     1       8.726  28.812  57.154  1.00  0.00     0.257 C 
HETATM    3  O   UNL     1       9.079  28.957  55.989  1.00  0.00    -0.267 OA
HETATM    4  H   UNL     1       7.759  27.764  58.642  1.00  0.00     0.169 HD
ENDROOT
BRANCH   1   5
HETATM    5  C   UNL     1       7.738  26.513  57.015  1.00  0.00     0.035 A 
HETATM    6  C   UNL     1       6.642  26.363  56.164  1.00  0.00     0.032 A 
HETATM    7  C   UNL     1       6.397  25.142  55.524  1.00  0.00     0.039 A 
HETATM    8  C   UNL     1       7.265  24.070  55.709  1.00  0.00     0.069 A 
HETATM    9  C   UNL     1       8.338  24.196  56.585  1.00  0.00     0.039 A 
HETATM   10  C   UNL     1       8.578  25.412  57.232  1.00  0.00     0.032 A 
BRANCH   8  11
HETATM   11  O   UNL     1       7.090  22.844  55.133  1.00  0.00    -0.347 OA
BRANCH  11  12
HETATM   12  C   UNL     1       8.121  22.442  54.219  1.00  0.00     0.120 C 
HETATM   13  C   UNL     1       7.870  23.153  52.895  1.00  0.00     0.040 C 
HETATM   14  C   UNL     1       8.031  20.929  54.047  1.00  0.00     0.040 C 
ENDBRANCH  11  12
ENDBRANCH   8  11
ENDBRANCH   1   5
BRANCH   2  15
HETATM   15  C   UNL     1       9.010  29.920  58.103  1.00  0.00     0.051 A 
HETATM   16  C   UNL     1       9.992  30.847  57.762  1.00  0.00     0.133 A 
HETATM   17  N   UNL     1      10.348  31.900  58.540  1.00  0.00    -0.271 NA
HETATM   18  C   UNL     1       9.705  32.024  59.723  1.00  0.00     0.135 A 
HETATM   19  C   UNL     1       8.728  31.141  60.158  1.00  0.00     0.029 A 
HETATM   20 BR   UNL     1       7.889  31.381  61.830  1.00  0.00    -0.050 Br
HETATM   21  C   UNL     1       8.376  30.067  59.341  1.00  0.00     0.039 A 
ENDBRANCH   2  15
TORSDOF 4
ENDMDL
MODEL 2
REMARK VINA RESULT:      -7.8      1.555      1.883
REMARK  4 active torsions:
REMARK  status: ('A' for Active; 'I' for Inactive)
REMARK    1  A    between atoms: C_2  and  O_3 
REMARK    2  A    between atoms: O_3  and  C_4 
REMARK    3  A    between atoms: C_7  and  N_8 
REMARK       I    between atoms: N_8  and  C_9 
REMARK    4  A    between atoms: C_9  and  C_10 
ROOT
HETATM    1  N   UNL     1       7.523  27.411  57.278  1.00  0.00    -0.323 N 
HETATM    2  C   UNL     1       8.395  28.470  57.464  1.00  0.00     0.257 C 
HETATM    3  O   UNL     1       9.544  28.547  57.046  1.00  0.00    -0.267 OA
HETATM    4  H   UNL     1       6.573  27.517  57.603  1.00  0.00     0.169 HD
ENDROOT
BRANCH   1   5
HETATM    5  C   UNL     1       7.796  26.179  56.642  1.00  0.00     0.035 A 
HETATM    6  C   UNL     1       7.394  25.860  55.344  1.00  0.00     0.032 A 
HETATM    7  C   UNL     1       7.726  24.622  54.779  1.00  0.00     0.039 A 
HETATM    8  C   UNL     1       8.489  23.707  55.498  1.00  0.00     0.069 A 
HETATM    9  C   UNL     1       8.861  24.000  56.806  1.00  0.00     0.039 A 
HETATM   10  C   UNL     1       8.523  25.231  57.374  1.00  0.00     0.032 A 
BRANCH   8  11
HETATM   11  O   UNL     1       8.842  22.476  55.025  1.00  0.00    -0.347 OA
BRANCH  11  12
HETATM   12  C   UNL     1       7.750  21.575  54.783  1.00  0.00     0.120 C 
HETATM   13  C   UNL     1       7.757  20.529  55.891  1.00  0.00     0.040 C 
HETATM   14  C   UNL     1       7.974  20.924  53.422  1.00  0.00     0.040 C 
ENDBRANCH  11  12
ENDBRANCH   8  11
ENDBRANCH   1   5
BRANCH   2  15
HETATM   15  C   UNL     1       7.863  29.625  58.234  1.00  0.00     0.051 A 
HETATM   16  C   UNL     1       6.713  30.257  57.766  1.00  0.00     0.133 A 
HETATM   17  N   UNL     1       6.129  31.321  58.373  1.00  0.00    -0.271 NA
HETATM   18  C   UNL     1       6.731  31.787  59.491  1.00  0.00     0.135 A 
HETATM   19  C   UNL     1       7.887  31.236  60.022  1.00  0.00     0.029 A 
HETATM   20 BR   UNL     1       8.669  31.956  61.580  1.00  0.00    -0.050 Br
HETATM   21  C   UNL     1       8.469  30.141  59.383  1.00  0.00     0.039 A 
ENDBRANCH   2  15
TORSDOF 4
ENDMDL
MODEL 3
REMARK VINA RESULT:      -7.6      5.032      9.956
REMARK  4 active torsions:
REMARK  status: ('A' for Active; 'I' for Inactive)
REMARK    1  A    between atoms: C_2  and  O_3 
REMARK    2  A    between atoms: O_3  and  C_4 
REMARK    3  A    between atoms: C_7  and  N_8 
REMARK       I    between atoms: N_8  and  C_9 
REMARK    4  A    between atoms: C_9  and  C_10 
ROOT
HETATM    1  N   UNL     1       7.724  31.353  60.818  1.00  0.00    -0.323 N 
HETATM    2  C   UNL     1       8.585  31.678  59.784  1.00  0.00     0.257 C 
HETATM    3  O   UNL     1       9.147  32.754  59.616  1.00  0.00    -0.267 OA
HETATM    4  H   UNL     1       7.399  30.400  60.882  1.00  0.00     0.169 HD
ENDROOT
BRANCH   1   5
HETATM    5  C   UNL     1       7.259  32.208  61.843  1.00  0.00     0.035 A 
HETATM    6  C   UNL     1       6.075  32.944  61.774  1.00  0.00     0.032 A 
HETATM    7  C   UNL     1       5.674  33.752  62.846  1.00  0.00     0.039 A 
HETATM    8  C   UNL     1       6.441  33.805  64.006  1.00  0.00     0.069 A 
HETATM    9  C   UNL     1       7.642  33.106  64.069  1.00  0.00     0.039 A 
HETATM   10  C   UNL     1       8.047  32.307  62.997  1.00  0.00     0.032 A 
BRANCH   8  11
HETATM   11  O   UNL     1       6.127  34.578  65.088  1.00  0.00    -0.347 OA
BRANCH  11  12
HETATM   12  C   UNL     1       5.285  33.949  66.066  1.00  0.00     0.120 C 
HETATM   13  C   UNL     1       3.875  34.499  65.887  1.00  0.00     0.040 C 
HETATM   14  C   UNL     1       5.832  34.299  67.447  1.00  0.00     0.040 C 
ENDBRANCH  11  12
ENDBRANCH   8  11
ENDBRANCH   1   5
BRANCH   2  15
HETATM   15  C   UNL     1       8.854  30.599  58.797  1.00  0.00     0.051 A 
HETATM   16  C   UNL     1      10.027  30.665  58.050  1.00  0.00     0.133 A 
HETATM   17  N   UNL     1      10.388  29.748  57.117  1.00  0.00    -0.271 NA
HETATM   18  C   UNL     1       9.529  28.724  56.909  1.00  0.00     0.135 A 
HETATM   19  C   UNL     1       8.329  28.584  57.590  1.00  0.00     0.029 A 
HETATM   20 BR   UNL     1       7.182  27.131  57.229  1.00  0.00    -0.050 Br
HETATM   21  C   UNL     1       7.980  29.537  58.546  1.00  0.00     0.039 A 
ENDBRANCH   2  15
TORSDOF 4
ENDMDL
MODEL 4
REMARK VINA RESULT:      -7.6      3.488      8.285
REMARK  4 active torsions:
REMARK  status: ('A' for Active; 'I' for Inactive)
REMARK    1  A    between atoms: C_2  and  O_3 
REMARK    2  A    between atoms: O_3  and  C_4 
REMARK    3  A    between atoms: C_7  and  N_8 
REMARK       I    between atoms: N_8  and  C_9 
REMARK    4  A    between atoms: C_9  and  C_10 
ROOT
HETATM    1  N   UNL     1       8.018  27.149  56.452  1.00  0.00    -0.323 N 
HETATM    2  C   UNL     1       8.065  25.869  56.977  1.00  0.00     0.257 C 
HETATM    3  O   UNL     1       8.244  25.570  58.152  1.00  0.00    -0.267 OA
HETATM    4  H   UNL     1       7.776  27.254  55.478  1.00  0.00     0.169 HD
ENDROOT
BRANCH   1   5
HETATM    5  C   UNL     1       8.239  28.364  57.141  1.00  0.00     0.035 A 
HETATM    6  C   UNL     1       9.476  29.005  57.224  1.00  0.00     0.032 A 
HETATM    7  C   UNL     1       9.605  30.220  57.909  1.00  0.00     0.039 A 
HETATM    8  C   UNL     1       8.490  30.816  58.490  1.00  0.00     0.069 A 
HETATM    9  C   UNL     1       7.261  30.166  58.447  1.00  0.00     0.039 A 
HETATM   10  C   UNL     1       7.133  28.949  57.772  1.00  0.00     0.032 A 
BRANCH   8  11
HETATM   11  O   UNL     1       8.534  31.990  59.186  1.00  0.00    -0.347 OA
BRANCH  11  12
HETATM   12  C   UNL     1       8.359  31.868  60.606  1.00  0.00     0.120 C 
HETATM   13  C   UNL     1       7.427  32.987  61.056  1.00  0.00     0.040 C 
HETATM   14  C   UNL     1       9.730  32.009  61.260  1.00  0.00     0.040 C 
ENDBRANCH  11  12
ENDBRANCH   8  11
ENDBRANCH   1   5
BRANCH   2  15
HETATM   15  C   UNL     1       7.862  24.761  56.007  1.00  0.00     0.051 A 
HETATM   16  C   UNL     1       7.526  25.085  54.694  1.00  0.00     0.133 A 
HETATM   17  N   UNL     1       7.311  24.170  53.716  1.00  0.00    -0.271 NA
HETATM   18  C   UNL     1       7.419  22.869  54.068  1.00  0.00     0.135 A 
HETATM   19  C   UNL     1       7.730  22.448  55.352  1.00  0.00     0.029 A 
HETATM   20 BR   UNL     1       7.848  20.611  55.761  1.00  0.00    -0.050 Br
HETATM   21  C   UNL     1       7.949  23.406  56.342  1.00  0.00     0.039 A 
ENDBRANCH   2  15
TORSDOF 4
ENDMDL
MODEL 5
REMARK VINA RESULT:      -7.3      5.831      8.803
REMARK  4 active torsions:
REMARK  status: ('A' for Active; 'I' for Inactive)
REMARK    1  A    between atoms: C_2  and  O_3 
REMARK    2  A    between atoms: O_3  and  C_4 
REMARK    3  A    between atoms: C_7  and  N_8 
REMARK       I    between atoms: N_8  and  C_9 
REMARK    4  A    between atoms: C_9  and  C_10 
ROOT
HETATM    1  N   UNL     1       7.031  33.051  63.563  1.00  0.00    -0.323 N 
HETATM    2  C   UNL     1       5.758  32.815  64.054  1.00  0.00     0.257 C 
HETATM    3  O   UNL     1       4.963  31.979  63.641  1.00  0.00    -0.267 OA
HETATM    4  H   UNL     1       7.613  33.713  64.054  1.00  0.00     0.169 HD
ENDROOT
BRANCH   1   5
HETATM    5  C   UNL     1       7.644  32.437  62.447  1.00  0.00     0.035 A 
HETATM    6  C   UNL     1       7.540  32.907  61.137  1.00  0.00     0.032 A 
HETATM    7  C   UNL     1       8.199  32.251  60.090  1.00  0.00     0.039 A 
HETATM    8  C   UNL     1       8.991  31.137  60.351  1.00  0.00     0.069 A 
HETATM    9  C   UNL     1       9.069  30.637  61.647  1.00  0.00     0.039 A 
HETATM   10  C   UNL     1       8.405  31.286  62.691  1.00  0.00     0.032 A 
BRANCH   8  11
HETATM   11  O   UNL     1       9.653  30.433  59.386  1.00  0.00    -0.347 OA
BRANCH  11  12
HETATM   12  C   UNL     1       8.960  30.306  58.135  1.00  0.00     0.120 C 
HETATM   13  C   UNL     1       7.934  29.189  58.285  1.00  0.00     0.040 C 
HETATM   14  C   UNL     1       9.988  29.957  57.063  1.00  0.00     0.040 C 
ENDBRANCH  11  12
ENDBRANCH   8  11
ENDBRANCH   1   5
BRANCH   2  15
HETATM   15  C   UNL     1       5.338  33.657  65.204  1.00  0.00     0.051 A 
HETATM   16  C   UNL     1       4.085  34.264  65.156  1.00  0.00     0.133 A 
HETATM   17  N   UNL     1       3.586  35.057  66.137  1.00  0.00    -0.271 NA
HETATM   18  C   UNL     1       4.381  35.270  67.209  1.00  0.00     0.135 A 
HETATM   19  C   UNL     1       5.650  34.725  67.339  1.00  0.00     0.029 A 
HETATM   20 BR   UNL     1       6.700  35.083  68.864  1.00  0.00    -0.050 Br
HETATM   21  C   UNL     1       6.143  33.911  66.320  1.00  0.00     0.039 A 
ENDBRANCH   2  15
TORSDOF 4
ENDMDL
MODEL 6
REMARK VINA RESULT:      -7.1      3.970      8.258
REMARK  4 active torsions:
REMARK  status: ('A' for Active; 'I' for Inactive)
REMARK    1  A    between atoms: C_2  and  O_3 
REMARK    2  A    between atoms: O_3  and  C_4 
REMARK    3  A    between atoms: C_7  and  N_8 
REMARK       I    between atoms: N_8  and  C_9 
REMARK    4  A    between atoms: C_9  and  C_10 
ROOT
HETATM    1  N   UNL     1       7.784  25.837  56.779  1.00  0.00    -0.323 N 
HETATM    2  C   UNL     1       7.720  25.222  55.540  1.00  0.00     0.257 C 
HETATM    3  O   UNL     1       7.507  25.771  54.466  1.00  0.00    -0.267 OA
HETATM    4  H   UNL     1       8.054  25.276  57.573  1.00  0.00     0.169 HD
ENDROOT
BRANCH   1   5
HETATM    5  C   UNL     1       7.544  27.199  57.070  1.00  0.00     0.035 A 
HETATM    6  C   UNL     1       6.274  27.766  57.186  1.00  0.00     0.032 A 
HETATM    7  C   UNL     1       6.124  29.122  57.500  1.00  0.00     0.039 A 
HETATM    8  C   UNL     1       7.244  29.915  57.729  1.00  0.00     0.069 A 
HETATM    9  C   UNL     1       8.515  29.370  57.577  1.00  0.00     0.039 A 
HETATM   10  C   UNL     1       8.666  28.018  57.255  1.00  0.00     0.032 A 
BRANCH   8  11
HETATM   11  O   UNL     1       7.184  31.247  58.025  1.00  0.00    -0.347 OA
BRANCH  11  12
HETATM   12  C   UNL     1       6.026  31.658  58.767  1.00  0.00     0.120 C 
HETATM   13  C   UNL     1       5.295  32.711  57.942  1.00  0.00     0.040 C 
HETATM   14  C   UNL     1       6.504  32.244  60.092  1.00  0.00     0.040 C 
ENDBRANCH  11  12
ENDBRANCH   8  11
ENDBRANCH   1   5
BRANCH   2  15
HETATM   15  C   UNL     1       7.950  23.753  55.531  1.00  0.00     0.051 A 
HETATM   16  C   UNL     1       8.194  23.115  56.745  1.00  0.00     0.133 A 
HETATM   17  N   UNL     1       8.422  21.784  56.871  1.00  0.00    -0.271 NA
HETATM   18  C   UNL     1       8.424  21.057  55.731  1.00  0.00     0.135 A 
HETATM   19  C   UNL     1       8.210  21.606  54.476  1.00  0.00     0.029 A 
HETATM   20 BR   UNL     1       8.243  20.521  52.933  1.00  0.00    -0.050 Br
HETATM   21  C   UNL     1       7.976  22.976  54.368  1.00  0.00     0.039 A 
ENDBRANCH   2  15
TORSDOF 4
ENDMDL
MODEL 7
REMARK VINA RESULT:      -7.1      6.866      8.174
REMARK  4 active torsions:
REMARK  status: ('A' for Active; 'I' for Inactive)
REMARK    1  A    between atoms: C_2  and  O_3 
REMARK    2  A    between atoms: O_3  and  C_4 
REMARK    3  A    between atoms: C_7  and  N_8 
REMARK       I    between atoms: N_8  and  C_9 
REMARK    4  A    between atoms: C_9  and  C_10 
ROOT
HETATM    1  N   UNL     1       5.710  26.032  51.105  1.00  0.00    -0.323 N 
HETATM    2  C   UNL     1       5.479  27.395  51.167  1.00  0.00     0.257 C 
HETATM    3  O   UNL     1       5.907  28.168  52.016  1.00  0.00    -0.267 OA
HETATM    4  H   UNL     1       5.366  25.529  50.301  1.00  0.00     0.169 HD
ENDROOT
BRANCH   1   5
HETATM    5  C   UNL     1       6.417  25.242  52.040  1.00  0.00     0.035 A 
HETATM    6  C   UNL     1       7.745  24.840  51.883  1.00  0.00     0.032 A 
HETATM    7  C   UNL     1       8.379  24.074  52.869  1.00  0.00     0.039 A 
HETATM    8  C   UNL     1       7.698  23.729  54.032  1.00  0.00     0.069 A 
HETATM    9  C   UNL     1       6.363  24.090  54.181  1.00  0.00     0.039 A 
HETATM   10  C   UNL     1       5.726  24.847  53.194  1.00  0.00     0.032 A 
BRANCH   8  11
HETATM   11  O   UNL     1       8.240  22.974  55.033  1.00  0.00    -0.347 OA
BRANCH  11  12
HETATM   12  C   UNL     1       7.647  21.679  55.213  1.00  0.00     0.120 C 
HETATM   13  C   UNL     1       8.209  21.087  56.500  1.00  0.00     0.040 C 
HETATM   14  C   UNL     1       8.026  20.820  54.011  1.00  0.00     0.040 C 
ENDBRANCH  11  12
ENDBRANCH   8  11
ENDBRANCH   1   5
BRANCH   2  15
HETATM   15  C   UNL     1       4.638  27.963  50.080  1.00  0.00     0.051 A 
HETATM   16  C   UNL     1       4.642  29.344  49.895  1.00  0.00     0.133 A 
HETATM   17  N   UNL     1       3.919  29.985  48.943  1.00  0.00    -0.271 NA
HETATM   18  C   UNL     1       3.142  29.215  48.149  1.00  0.00     0.135 A 
HETATM   19  C   UNL     1       3.058  27.836  48.270  1.00  0.00     0.029 A 
HETATM   20 BR   UNL     1       1.938  26.836  47.128  1.00  0.00    -0.050 Br
HETATM   21  C   UNL     1       3.811  27.196  49.253  1.00  0.00     0.039 A 
ENDBRANCH   2  15
TORSDOF 4
ENDMDL
MODEL 8
REMARK VINA RESULT:      -7.0      5.804      7.555
REMARK  4 active torsions:
REMARK  status: ('A' for Active; 'I' for Inactive)
REMARK    1  A    between atoms: C_2  and  O_3 
REMARK    2  A    between atoms: O_3  and  C_4 
REMARK    3  A    between atoms: C_7  and  N_8 
REMARK       I    between atoms: N_8  and  C_9 
REMARK    4  A    between atoms: C_9  and  C_10 
ROOT
HETATM    1  N   UNL     1       6.758  25.809  52.001  1.00  0.00    -0.323 N 
HETATM    2  C   UNL     1       5.487  25.773  51.454  1.00  0.00     0.257 C 
HETATM    3  O   UNL     1       4.617  24.943  51.689  1.00  0.00    -0.267 OA
HETATM    4  H   UNL     1       7.345  26.600  51.785  1.00  0.00     0.169 HD
ENDROOT
BRANCH   1   5
HETATM    5  C   UNL     1       7.338  24.864  52.878  1.00  0.00     0.035 A 
HETATM    6  C   UNL     1       7.871  23.640  52.472  1.00  0.00     0.032 A 
HETATM    7  C   UNL     1       8.449  22.769  53.404  1.00  0.00     0.039 A 
HETATM    8  C   UNL     1       8.524  23.131  54.746  1.00  0.00     0.069 A 
HETATM    9  C   UNL     1       7.961  24.331  55.167  1.00  0.00     0.039 A 
HETATM   10  C   UNL     1       7.376  25.197  54.239  1.00  0.00     0.032 A 
BRANCH   8  11
HETATM   11  O   UNL     1       9.058  22.334  55.718  1.00  0.00    -0.347 OA
BRANCH  11  12
HETATM   12  C   UNL     1       8.160  21.361  56.275  1.00  0.00     0.120 C 
HETATM   13  C   UNL     1       8.357  21.360  57.786  1.00  0.00     0.040 C 
HETATM   14  C   UNL     1       8.518  20.002  55.681  1.00  0.00     0.040 C 
ENDBRANCH  11  12
ENDBRANCH   8  11
ENDBRANCH   1   5
BRANCH   2  15
HETATM   15  C   UNL     1       5.158  26.865  50.500  1.00  0.00     0.051 A 
HETATM   16  C   UNL     1       4.523  26.530  49.306  1.00  0.00     0.133 A 
HETATM   17  N   UNL     1       4.173  27.430  48.353  1.00  0.00    -0.271 NA
HETATM   18  C   UNL     1       4.486  28.723  48.595  1.00  0.00     0.135 A 
HETATM   19  C   UNL     1       5.134  29.149  49.744  1.00  0.00     0.029 A 
HETATM   20 BR   UNL     1       5.545  30.973  49.996  1.00  0.00    -0.050 Br
HETATM   21  C   UNL     1       5.483  28.208  50.712  1.00  0.00     0.039 A 
ENDBRANCH   2  15
TORSDOF 4
ENDMDL
MODEL 9
REMARK VINA RESULT:      -6.8      5.507     10.523
REMARK  4 active torsions:
REMARK  status: ('A' for Active; 'I' for Inactive)
REMARK    1  A    between atoms: C_2  and  O_3 
REMARK    2  A    between atoms: O_3  and  C_4 
REMARK    3  A    between atoms: C_7  and  N_8 
REMARK       I    between atoms: N_8  and  C_9 
REMARK    4  A    between atoms: C_9  and  C_10 
ROOT
HETATM    1  N   UNL     1       7.148  31.785  61.195  1.00  0.00    -0.323 N 
HETATM    2  C   UNL     1       8.129  32.039  60.252  1.00  0.00     0.257 C 
HETATM    3  O   UNL     1       8.997  32.901  60.320  1.00  0.00    -0.267 OA
HETATM    4  H   UNL     1       6.549  30.986  61.052  1.00  0.00     0.169 HD
ENDROOT
BRANCH   1   5
HETATM    5  C   UNL     1       6.898  32.507  62.384  1.00  0.00     0.035 A 
HETATM    6  C   UNL     1       7.763  32.541  63.479  1.00  0.00     0.032 A 
HETATM    7  C   UNL     1       7.449  33.300  64.613  1.00  0.00     0.039 A 
HETATM    8  C   UNL     1       6.280  34.055  64.647  1.00  0.00     0.069 A 
HETATM    9  C   UNL     1       5.392  33.997  63.578  1.00  0.00     0.039 A 
HETATM   10  C   UNL     1       5.701  33.233  62.449  1.00  0.00     0.032 A 
BRANCH   8  11
HETATM   11  O   UNL     1       5.895  34.810  65.719  1.00  0.00    -0.347 OA
BRANCH  11  12
HETATM   12  C   UNL     1       5.564  34.069  66.903  1.00  0.00     0.120 C 
HETATM   13  C   UNL     1       4.117  34.388  67.261  1.00  0.00     0.040 C 
HETATM   14  C   UNL     1       6.508  34.517  68.014  1.00  0.00     0.040 C 
ENDBRANCH  11  12
ENDBRANCH   8  11
ENDBRANCH   1   5
BRANCH   2  15
HETATM   15  C   UNL     1       8.122  31.160  59.053  1.00  0.00     0.051 A 
HETATM   16  C   UNL     1       6.893  30.762  58.534  1.00  0.00     0.133 A 
HETATM   17  N   UNL     1       6.750  29.960  57.448  1.00  0.00    -0.271 NA
HETATM   18  C   UNL     1       7.887  29.521  56.864  1.00  0.00     0.135 A 
HETATM   19  C   UNL     1       9.156  29.848  57.320  1.00  0.00     0.029 A 
HETATM   20 BR   UNL     1      10.692  29.182  56.453  1.00  0.00    -0.050 Br
HETATM   21  C   UNL     1       9.279  30.676  58.435  1.00  0.00     0.039 A 
ENDBRANCH   2  15
TORSDOF 4
ENDMDL
MODEL 10
REMARK VINA RESULT:      -6.7      6.196      8.630
REMARK  4 active torsions:
REMARK  status: ('A' for Active; 'I' for Inactive)
REMARK    1  A    between atoms: C_2  and  O_3 
REMARK    2  A    between atoms: O_3  and  C_4 
REMARK    3  A    between atoms: C_7  and  N_8 
REMARK       I    between atoms: N_8  and  C_9 
REMARK    4  A    between atoms: C_9  and  C_10 
ROOT
HETATM    1  N   UNL     1       5.895  25.441  52.736  1.00  0.00    -0.323 N 
HETATM    2  C   UNL     1       7.103  25.585  53.395  1.00  0.00     0.257 C 
HETATM    3  O   UNL     1       7.717  26.631  53.569  1.00  0.00    -0.267 OA
HETATM    4  H   UNL     1       5.457  24.531  52.742  1.00  0.00     0.169 HD
ENDROOT
BRANCH   1   5
HETATM    5  C   UNL     1       5.160  26.446  52.067  1.00  0.00     0.035 A 
HETATM    6  C   UNL     1       4.474  27.477  52.711  1.00  0.00     0.032 A 
HETATM    7  C   UNL     1       3.787  28.448  51.971  1.00  0.00     0.039 A 
HETATM    8  C   UNL     1       3.808  28.411  50.581  1.00  0.00     0.069 A 
HETATM    9  C   UNL     1       4.456  27.366  49.930  1.00  0.00     0.039 A 
HETATM   10  C   UNL     1       5.134  26.392  50.667  1.00  0.00     0.032 A 
BRANCH   8  11
HETATM   11  O   UNL     1       3.153  29.310  49.788  1.00  0.00    -0.347 OA
BRANCH  11  12
HETATM   12  C   UNL     1       1.730  29.140  49.714  1.00  0.00     0.120 C 
HETATM   13  C   UNL     1       1.393  28.647  48.312  1.00  0.00     0.040 C 
HETATM   14  C   UNL     1       1.083  30.496  49.981  1.00  0.00     0.040 C 
ENDBRANCH  11  12
ENDBRANCH   8  11
ENDBRANCH   1   5
BRANCH   2  15
HETATM   15  C   UNL     1       7.693  24.339  53.953  1.00  0.00     0.051 A 
HETATM   16  C   UNL     1       8.232  24.382  55.237  1.00  0.00     0.133 A 
HETATM   17  N   UNL     1       8.802  23.318  55.858  1.00  0.00    -0.271 NA
HETATM   18  C   UNL     1       8.850  22.162  55.159  1.00  0.00     0.135 A 
HETATM   19  C   UNL     1       8.357  22.027  53.870  1.00  0.00     0.029 A 
HETATM   20 BR   UNL     1       8.476  20.380  52.960  1.00  0.00    -0.050 Br
HETATM   21  C   UNL     1       7.774  23.133  53.251  1.00  0.00     0.039 A 
ENDBRANCH   2  15
TORSDOF 4
ENDMDL
