MODEL 1
REMARK VINA RESULT:     -10.7      0.000      0.000
REMARK  5 active torsions:
REMARK  status: ('A' for Active; 'I' for Inactive)
REMARK    1  A    between atoms: C_2  and  N_3 
REMARK    2  A    between atoms: N_7  and  C_8 
REMARK    3  A    between atoms: N_14  and  C_15 
REMARK    4  A    between atoms: C_19  and  C_20 
REMARK       I    between atoms: C_20  and  N_21 
REMARK    5  A    between atoms: N_21  and  C_22 
ROOT
HETATM    1  C   UNL     1       4.734  33.703  60.517  1.00  0.00     0.071 A 
HETATM    2  C   UNL     1       3.971  33.359  59.382  1.00  0.00     0.143 A 
HETATM    3  F   UNL     1       2.762  33.905  59.178  1.00  0.00    -0.204 F 
HETATM    4  C   UNL     1       4.391  32.408  58.457  1.00  0.00     0.062 A 
HETATM    5  C   UNL     1       5.607  31.756  58.646  1.00  0.00     0.045 A 
HETATM    6  C   UNL     1       6.429  32.066  59.739  1.00  0.00     0.051 A 
HETATM    7  N   UNL     1       7.662  31.375  59.901  1.00  0.00    -0.350 N 
HETATM    8  C   UNL     1       7.920  30.270  59.104  1.00  0.00     0.113 C 
HETATM    9  C   UNL     1       7.204  29.874  58.041  1.00  0.00     0.099 C 
HETATM   10  C   UNL     1       6.023  30.701  57.689  1.00  0.00     0.201 C 
HETATM   11  O   UNL     1       5.383  30.506  56.659  1.00  0.00    -0.286 OA
HETATM   12  C   UNL     1       5.981  33.051  60.642  1.00  0.00     0.063 A 
ENDROOT
BRANCH   9  13
HETATM   13  C   UNL     1       7.605  28.626  57.319  1.00  0.00     0.275 C 
HETATM   14  N   UNL     1       7.125  28.563  56.030  1.00  0.00    -0.153 N 
HETATM   15  H   UNL     1       6.610  29.358  55.660  1.00  0.00     0.187 HD
HETATM   16  O   UNL     1       8.298  27.794  57.894  1.00  0.00    -0.267 OA
BRANCH  14  17
HETATM   17  C   UNL     1       7.235  27.437  55.254  1.00  0.00     0.708 A 
HETATM   18  N   UNL     1       7.568  27.336  53.990  1.00  0.00    -0.062 NA
HETATM   19  C   UNL     1       7.590  25.992  53.712  1.00  0.00     0.103 A 
HETATM   20  C   UNL     1       7.240  25.249  54.833  1.00  0.00     0.078 A 
HETATM   21  C   UNL     1       7.906  25.325  52.521  1.00  0.00     0.034 A 
HETATM   22  N   UNL     1       7.019  26.196  55.800  1.00  0.00    -0.187 N 
HETATM   23  C   UNL     1       7.171  23.855  54.842  1.00  0.00     0.032 A 
HETATM   24  H   UNL     1       6.744  26.011  56.752  1.00  0.00     0.184 HD
HETATM   25  C   UNL     1       7.489  23.206  53.643  1.00  0.00     0.002 A 
HETATM   26  C   UNL     1       7.853  23.925  52.501  1.00  0.00     0.002 A 
ENDBRANCH  14  17
ENDBRANCH   9  13
BRANCH   7  27
HETATM   27  C   UNL     1       8.544  31.604  61.062  1.00  0.00     0.090 A 
HETATM   28  C   UNL     1       8.228  31.041  62.427  1.00  0.00     0.028 A 
HETATM   29  C   UNL     1       9.385  30.497  61.648  1.00  0.00     0.028 A 
ENDBRANCH   7  27
BRANCH   1  30
HETATM   30  N   UNL     1       4.349  34.655  61.474  1.00  0.00    -0.375 N 
HETATM   31  C   UNL     1       5.392  35.559  62.005  1.00  0.00     0.150 C 
HETATM   32  C   UNL     1       6.042  34.962  63.273  1.00  0.00     0.254 C 
HETATM   33  N   UNL     1       4.978  34.646  64.333  1.00  0.00    -0.068 N 
HETATM   34  H   UNL     1       4.511  35.530  64.575  1.00  0.00     0.280 HD
HETATM   35  C   UNL     1       3.890  33.727  63.746  1.00  0.00     0.254 C 
HETATM   36  C   UNL     1       3.293  34.344  62.460  1.00  0.00     0.150 C 
BRANCH  33  37
HETATM   37  C   UNL     1       5.555  34.058  65.599  1.00  0.00     0.230 C 
HETATM   38  C   UNL     1       7.010  33.674  65.402  1.00  0.00     0.034 C 
ENDBRANCH  33  37
ENDBRANCH   1  30
TORSDOF 5
ENDMDL
MODEL 2
REMARK VINA RESULT:     -10.3      2.641     10.630
REMARK  5 active torsions:
REMARK  status: ('A' for Active; 'I' for Inactive)
REMARK    1  A    between atoms: C_2  and  N_3 
REMARK    2  A    between atoms: N_7  and  C_8 
REMARK    3  A    between atoms: N_14  and  C_15 
REMARK    4  A    between atoms: C_19  and  C_20 
REMARK       I    between atoms: C_20  and  N_21 
REMARK    5  A    between atoms: N_21  and  C_22 
ROOT
HETATM    1  C   UNL     1       6.595  26.947  54.819  1.00  0.00     0.071 A 
HETATM    2  C   UNL     1       7.531  26.662  55.835  1.00  0.00     0.143 A 
HETATM    3  F   UNL     1       8.137  25.466  55.892  1.00  0.00    -0.204 F 
HETATM    4  C   UNL     1       7.831  27.563  56.852  1.00  0.00     0.062 A 
HETATM    5  C   UNL     1       7.188  28.798  56.888  1.00  0.00     0.045 A 
HETATM    6  C   UNL     1       6.264  29.158  55.895  1.00  0.00     0.051 A 
HETATM    7  N   UNL     1       5.624  30.427  55.968  1.00  0.00    -0.350 N 
HETATM    8  C   UNL     1       5.763  31.182  57.123  1.00  0.00     0.113 C 
HETATM    9  C   UNL     1       6.604  30.932  58.138  1.00  0.00     0.099 C 
HETATM   10  C   UNL     1       7.467  29.732  58.005  1.00  0.00     0.201 C 
HETATM   11  O   UNL     1       8.363  29.491  58.810  1.00  0.00    -0.286 OA
HETATM   12  C   UNL     1       6.003  28.229  54.869  1.00  0.00     0.063 A 
ENDROOT
BRANCH   9  13
HETATM   13  C   UNL     1       6.591  31.834  59.331  1.00  0.00     0.275 C 
HETATM   14  N   UNL     1       6.960  31.203  60.497  1.00  0.00    -0.153 N 
HETATM   15  H   UNL     1       7.261  30.233  60.454  1.00  0.00     0.187 HD
HETATM   16  O   UNL     1       6.270  33.011  59.193  1.00  0.00    -0.267 OA
BRANCH  14  17
HETATM   17  C   UNL     1       6.855  31.801  61.727  1.00  0.00     0.708 A 
HETATM   18  N   UNL     1       7.804  32.272  62.499  1.00  0.00    -0.062 NA
HETATM   19  C   UNL     1       7.170  32.820  63.586  1.00  0.00     0.103 A 
HETATM   20  C   UNL     1       5.793  32.661  63.487  1.00  0.00     0.078 A 
HETATM   21  C   UNL     1       7.704  33.480  64.701  1.00  0.00     0.034 A 
HETATM   22  N   UNL     1       5.621  32.008  62.294  1.00  0.00    -0.187 N 
HETATM   23  C   UNL     1       4.894  33.114  64.454  1.00  0.00     0.032 A 
HETATM   24  H   UNL     1       4.738  31.727  61.899  1.00  0.00     0.184 HD
HETATM   25  C   UNL     1       5.446  33.769  65.562  1.00  0.00     0.002 A 
HETATM   26  C   UNL     1       6.826  33.953  65.685  1.00  0.00     0.002 A 
ENDBRANCH  14  17
ENDBRANCH   9  13
BRANCH   7  27
HETATM   27  C   UNL     1       4.594  30.844  54.996  1.00  0.00     0.090 A 
HETATM   28  C   UNL     1       3.125  30.853  55.345  1.00  0.00     0.028 A 
HETATM   29  C   UNL     1       3.849  32.147  55.142  1.00  0.00     0.028 A 
ENDBRANCH   7  27
BRANCH   1  30
HETATM   30  N   UNL     1       6.264  26.068  53.776  1.00  0.00    -0.375 N 
HETATM   31  C   UNL     1       5.564  24.813  54.128  1.00  0.00     0.150 C 
HETATM   32  C   UNL     1       6.577  23.675  54.386  1.00  0.00     0.254 C 
HETATM   33  N   UNL     1       7.502  23.484  53.177  1.00  0.00    -0.068 N 
HETATM   34  H   UNL     1       6.911  23.237  52.373  1.00  0.00     0.280 HD
HETATM   35  C   UNL     1       8.195  24.811  52.815  1.00  0.00     0.254 C 
HETATM   36  C   UNL     1       7.149  25.929  52.601  1.00  0.00     0.150 C 
BRANCH  33  37
HETATM   37  C   UNL     1       8.516  22.381  53.372  1.00  0.00     0.230 C 
HETATM   38  C   UNL     1       7.949  21.043  52.936  1.00  0.00     0.034 C 
ENDBRANCH  33  37
ENDBRANCH   1  30
TORSDOF 5
ENDMDL
MODEL 3
REMARK VINA RESULT:      -9.9      4.347     11.112
REMARK  5 active torsions:
REMARK  status: ('A' for Active; 'I' for Inactive)
REMARK    1  A    between atoms: C_2  and  N_3 
REMARK    2  A    between atoms: N_7  and  C_8 
REMARK    3  A    between atoms: N_14  and  C_15 
REMARK    4  A    between atoms: C_19  and  C_20 
REMARK       I    between atoms: C_20  and  N_21 
REMARK    5  A    between atoms: N_21  and  C_22 
ROOT
HETATM    1  C   UNL     1       4.857  27.186  50.542  1.00  0.00     0.071 A 
HETATM    2  C   UNL     1       4.070  28.175  51.167  1.00  0.00     0.143 A 
HETATM    3  F   UNL     1       3.231  28.938  50.449  1.00  0.00    -0.204 F 
HETATM    4  C   UNL     1       4.160  28.456  52.527  1.00  0.00     0.062 A 
HETATM    5  C   UNL     1       5.059  27.744  53.318  1.00  0.00     0.045 A 
HETATM    6  C   UNL     1       5.854  26.728  52.768  1.00  0.00     0.051 A 
HETATM    7  N   UNL     1       6.765  26.026  53.606  1.00  0.00    -0.350 N 
HETATM    8  C   UNL     1       6.999  26.503  54.887  1.00  0.00     0.113 C 
HETATM    9  C   UNL     1       6.312  27.470  55.512  1.00  0.00     0.099 C 
HETATM   10  C   UNL     1       5.193  28.085  54.754  1.00  0.00     0.201 C 
HETATM   11  O   UNL     1       4.418  28.879  55.282  1.00  0.00    -0.286 OA
HETATM   12  C   UNL     1       5.720  26.457  51.391  1.00  0.00     0.063 A 
ENDROOT
BRANCH   9  13
HETATM   13  C   UNL     1       6.732  27.890  56.885  1.00  0.00     0.275 C 
HETATM   14  N   UNL     1       6.735  29.255  57.062  1.00  0.00    -0.153 N 
HETATM   15  H   UNL     1       6.407  29.848  56.304  1.00  0.00     0.187 HD
HETATM   16  O   UNL     1       7.027  27.033  57.713  1.00  0.00    -0.267 OA
BRANCH  14  17
HETATM   17  C   UNL     1       7.245  29.854  58.186  1.00  0.00     0.708 A 
HETATM   18  N   UNL     1       8.384  29.627  58.796  1.00  0.00    -0.062 NA
HETATM   19  C   UNL     1       8.445  30.529  59.829  1.00  0.00     0.103 A 
HETATM   20  C   UNL     1       7.301  31.318  59.864  1.00  0.00     0.078 A 
HETATM   21  C   UNL     1       9.452  30.741  60.780  1.00  0.00     0.034 A 
HETATM   22  N   UNL     1       6.555  30.865  58.807  1.00  0.00    -0.187 N 
HETATM   23  C   UNL     1       7.085  32.317  60.814  1.00  0.00     0.032 A 
HETATM   24  H   UNL     1       5.652  31.216  58.531  1.00  0.00     0.184 HD
HETATM   25  C   UNL     1       8.100  32.514  61.757  1.00  0.00     0.002 A 
HETATM   26  C   UNL     1       9.266  31.743  61.742  1.00  0.00     0.002 A 
ENDBRANCH  14  17
ENDBRANCH   9  13
BRANCH   7  27
HETATM   27  C   UNL     1       7.678  24.992  53.082  1.00  0.00     0.090 A 
HETATM   28  C   UNL     1       8.210  23.880  53.954  1.00  0.00     0.028 A 
HETATM   29  C   UNL     1       7.226  23.568  52.870  1.00  0.00     0.028 A 
ENDBRANCH   7  27
BRANCH   1  30
HETATM   30  N   UNL     1       4.799  26.871  49.175  1.00  0.00    -0.375 N 
HETATM   31  C   UNL     1       5.193  27.920  48.209  1.00  0.00     0.150 C 
HETATM   32  C   UNL     1       3.968  28.758  47.780  1.00  0.00     0.254 C 
HETATM   33  N   UNL     1       2.863  27.857  47.213  1.00  0.00    -0.068 N 
HETATM   34  H   UNL     1       3.250  27.375  46.391  1.00  0.00     0.280 HD
HETATM   35  C   UNL     1       2.491  26.758  48.226  1.00  0.00     0.254 C 
HETATM   36  C   UNL     1       3.749  25.969  48.657  1.00  0.00     0.150 C 
BRANCH  33  37
HETATM   37  C   UNL     1       1.637  28.623  46.775  1.00  0.00     0.230 C 
HETATM   38  C   UNL     1       0.487  27.679  46.477  1.00  0.00     0.034 C 
ENDBRANCH  33  37
ENDBRANCH   1  30
TORSDOF 5
ENDMDL
MODEL 4
REMARK VINA RESULT:      -9.9      2.844     10.513
REMARK  5 active torsions:
REMARK  status: ('A' for Active; 'I' for Inactive)
REMARK    1  A    between atoms: C_2  and  N_3 
REMARK    2  A    between atoms: N_7  and  C_8 
REMARK    3  A    between atoms: N_14  and  C_15 
REMARK    4  A    between atoms: C_19  and  C_20 
REMARK       I    between atoms: C_20  and  N_21 
REMARK    5  A    between atoms: N_21  and  C_22 
ROOT
HETATM    1  C   UNL     1       6.966  26.665  55.242  1.00  0.00     0.071 A 
HETATM    2  C   UNL     1       7.863  26.427  56.303  1.00  0.00     0.143 A 
HETATM    3  F   UNL     1       8.473  25.238  56.432  1.00  0.00    -0.204 F 
HETATM    4  C   UNL     1       8.118  27.369  57.295  1.00  0.00     0.062 A 
HETATM    5  C   UNL     1       7.467  28.600  57.256  1.00  0.00     0.045 A 
HETATM    6  C   UNL     1       6.581  28.914  56.215  1.00  0.00     0.051 A 
HETATM    7  N   UNL     1       5.931  30.180  56.212  1.00  0.00    -0.350 N 
HETATM    8  C   UNL     1       6.020  30.981  57.341  1.00  0.00     0.113 C 
HETATM    9  C   UNL     1       6.822  30.777  58.397  1.00  0.00     0.099 C 
HETATM   10  C   UNL     1       7.696  29.579  58.347  1.00  0.00     0.201 C 
HETATM   11  O   UNL     1       8.562  29.377  59.195  1.00  0.00    -0.286 OA
HETATM   12  C   UNL     1       6.366  27.943  55.217  1.00  0.00     0.063 A 
ENDROOT
BRANCH   9  13
HETATM   13  C   UNL     1       6.757  31.726  59.552  1.00  0.00     0.275 C 
HETATM   14  N   UNL     1       7.051  31.136  60.761  1.00  0.00    -0.153 N 
HETATM   15  H   UNL     1       7.340  30.161  60.772  1.00  0.00     0.187 HD
HETATM   16  O   UNL     1       6.463  32.900  59.352  1.00  0.00    -0.267 OA
BRANCH  14  17
HETATM   17  C   UNL     1       6.887  31.783  61.959  1.00  0.00     0.708 A 
HETATM   18  N   UNL     1       7.800  32.262  62.769  1.00  0.00    -0.062 NA
HETATM   19  C   UNL     1       7.116  32.866  63.794  1.00  0.00     0.103 A 
HETATM   20  C   UNL     1       5.744  32.734  63.618  1.00  0.00     0.078 A 
HETATM   21  C   UNL     1       7.598  33.555  64.915  1.00  0.00     0.034 A 
HETATM   22  N   UNL     1       5.628  32.040  62.441  1.00  0.00    -0.187 N 
HETATM   23  C   UNL     1       4.800  33.244  64.511  1.00  0.00     0.032 A 
HETATM   24  H   UNL     1       4.763  31.764  62.004  1.00  0.00     0.184 HD
HETATM   25  C   UNL     1       5.300  33.928  65.625  1.00  0.00     0.002 A 
HETATM   26  C   UNL     1       6.675  34.086  65.826  1.00  0.00     0.002 A 
ENDBRANCH  14  17
ENDBRANCH   9  13
BRANCH   7  27
HETATM   27  C   UNL     1       4.938  30.551  55.185  1.00  0.00     0.090 A 
HETATM   28  C   UNL     1       3.455  30.379  55.410  1.00  0.00     0.028 A 
HETATM   29  C   UNL     1       4.042  31.754  55.347  1.00  0.00     0.028 A 
ENDBRANCH   7  27
BRANCH   1  30
HETATM   30  N   UNL     1       6.681  25.743  54.221  1.00  0.00    -0.375 N 
HETATM   31  C   UNL     1       7.478  25.823  52.977  1.00  0.00     0.150 C 
HETATM   32  C   UNL     1       6.793  26.748  51.947  1.00  0.00     0.254 C 
HETATM   33  N   UNL     1       5.358  26.285  51.667  1.00  0.00    -0.068 N 
HETATM   34  H   UNL     1       5.411  25.331  51.285  1.00  0.00     0.280 HD
HETATM   35  C   UNL     1       4.559  26.183  52.980  1.00  0.00     0.254 C 
HETATM   36  C   UNL     1       5.297  25.279  53.995  1.00  0.00     0.150 C 
BRANCH  33  37
HETATM   37  C   UNL     1       4.637  27.153  50.663  1.00  0.00     0.230 C 
HETATM   38  C   UNL     1       4.605  26.490  49.299  1.00  0.00     0.034 C 
ENDBRANCH  33  37
ENDBRANCH   1  30
TORSDOF 5
ENDMDL
MODEL 5
REMARK VINA RESULT:      -9.8      1.160      1.992
REMARK  5 active torsions:
REMARK  status: ('A' for Active; 'I' for Inactive)
REMARK    1  A    between atoms: C_2  and  N_3 
REMARK    2  A    between atoms: N_7  and  C_8 
REMARK    3  A    between atoms: N_14  and  C_15 
REMARK    4  A    between atoms: C_19  and  C_20 
REMARK       I    between atoms: C_20  and  N_21 
REMARK    5  A    between atoms: N_21  and  C_22 
ROOT
HETATM    1  C   UNL     1       4.608  33.576  60.263  1.00  0.00     0.071 A 
HETATM    2  C   UNL     1       4.064  33.376  58.977  1.00  0.00     0.143 A 
HETATM    3  F   UNL     1       2.922  33.981  58.615  1.00  0.00    -0.204 F 
HETATM    4  C   UNL     1       4.634  32.511  58.048  1.00  0.00     0.062 A 
HETATM    5  C   UNL     1       5.785  31.802  58.386  1.00  0.00     0.045 A 
HETATM    6  C   UNL     1       6.394  31.971  59.638  1.00  0.00     0.051 A 
HETATM    7  N   UNL     1       7.566  31.226  59.948  1.00  0.00    -0.350 N 
HETATM    8  C   UNL     1       7.951  30.200  59.098  1.00  0.00     0.113 C 
HETATM    9  C   UNL     1       7.438  29.938  57.886  1.00  0.00     0.099 C 
HETATM   10  C   UNL     1       6.355  30.837  57.415  1.00  0.00     0.201 C 
HETATM   11  O   UNL     1       5.915  30.769  56.270  1.00  0.00    -0.286 OA
HETATM   12  C   UNL     1       5.801  32.873  60.544  1.00  0.00     0.063 A 
ENDROOT
BRANCH   9  13
HETATM   13  C   UNL     1       7.949  28.758  57.121  1.00  0.00     0.275 C 
HETATM   14  N   UNL     1       7.006  28.198  56.289  1.00  0.00    -0.153 N 
HETATM   15  H   UNL     1       6.095  28.643  56.211  1.00  0.00     0.187 HD
HETATM   16  O   UNL     1       9.109  28.393  57.279  1.00  0.00    -0.267 OA
BRANCH  14  17
HETATM   17  C   UNL     1       7.213  27.014  55.627  1.00  0.00     0.708 A 
HETATM   18  N   UNL     1       7.192  25.791  56.100  1.00  0.00    -0.062 NA
HETATM   19  C   UNL     1       7.398  24.967  55.022  1.00  0.00     0.103 A 
HETATM   20  C   UNL     1       7.570  25.707  53.859  1.00  0.00     0.078 A 
HETATM   21  C   UNL     1       7.446  23.567  54.956  1.00  0.00     0.034 A 
HETATM   22  N   UNL     1       7.448  27.008  54.275  1.00  0.00    -0.187 N 
HETATM   23  C   UNL     1       7.806  25.133  52.609  1.00  0.00     0.032 A 
HETATM   24  H   UNL     1       7.519  27.823  53.686  1.00  0.00     0.184 HD
HETATM   25  C   UNL     1       7.851  23.735  52.561  1.00  0.00     0.002 A 
HETATM   26  C   UNL     1       7.672  22.962  53.712  1.00  0.00     0.002 A 
ENDBRANCH  14  17
ENDBRANCH   9  13
BRANCH   7  27
HETATM   27  C   UNL     1       8.221  31.304  61.268  1.00  0.00     0.090 A 
HETATM   28  C   UNL     1       9.420  30.456  61.616  1.00  0.00     0.028 A 
HETATM   29  C   UNL     1       9.580  31.934  61.442  1.00  0.00     0.028 A 
ENDBRANCH   7  27
BRANCH   1  30
HETATM   30  N   UNL     1       4.066  34.439  61.229  1.00  0.00    -0.375 N 
HETATM   31  C   UNL     1       3.464  35.707  60.761  1.00  0.00     0.150 C 
HETATM   32  C   UNL     1       4.514  36.839  60.747  1.00  0.00     0.254 C 
HETATM   33  N   UNL     1       5.162  37.000  62.129  1.00  0.00    -0.068 N 
HETATM   34  H   UNL     1       4.414  37.238  62.794  1.00  0.00     0.280 HD
HETATM   35  C   UNL     1       5.755  35.660  62.604  1.00  0.00     0.254 C 
HETATM   36  C   UNL     1       4.682  34.548  62.568  1.00  0.00     0.150 C 
BRANCH  33  37
HETATM   37  C   UNL     1       6.199  38.096  62.176  1.00  0.00     0.230 C 
HETATM   38  C   UNL     1       6.331  38.656  63.580  1.00  0.00     0.034 C 
ENDBRANCH  33  37
ENDBRANCH   1  30
TORSDOF 5
ENDMDL
MODEL 6
REMARK VINA RESULT:      -9.6      1.759      3.241
REMARK  5 active torsions:
REMARK  status: ('A' for Active; 'I' for Inactive)
REMARK    1  A    between atoms: C_2  and  N_3 
REMARK    2  A    between atoms: N_7  and  C_8 
REMARK    3  A    between atoms: N_14  and  C_15 
REMARK    4  A    between atoms: C_19  and  C_20 
REMARK       I    between atoms: C_20  and  N_21 
REMARK    5  A    between atoms: N_21  and  C_22 
ROOT
HETATM    1  C   UNL     1       6.993  33.188  61.737  1.00  0.00     0.071 A 
HETATM    2  C   UNL     1       8.090  32.315  61.893  1.00  0.00     0.143 A 
HETATM    3  F   UNL     1       8.956  32.477  62.905  1.00  0.00    -0.204 F 
HETATM    4  C   UNL     1       8.367  31.292  60.991  1.00  0.00     0.062 A 
HETATM    5  C   UNL     1       7.544  31.112  59.882  1.00  0.00     0.045 A 
HETATM    6  C   UNL     1       6.421  31.927  59.678  1.00  0.00     0.051 A 
HETATM    7  N   UNL     1       5.606  31.715  58.531  1.00  0.00    -0.350 N 
HETATM    8  C   UNL     1       6.057  30.859  57.538  1.00  0.00     0.113 C 
HETATM    9  C   UNL     1       7.118  30.041  57.617  1.00  0.00     0.099 C 
HETATM   10  C   UNL     1       7.877  30.059  58.892  1.00  0.00     0.201 C 
HETATM   11  O   UNL     1       8.777  29.253  59.117  1.00  0.00    -0.286 OA
HETATM   12  C   UNL     1       6.159  32.938  60.625  1.00  0.00     0.063 A 
ENDROOT
BRANCH   9  13
HETATM   13  C   UNL     1       7.487  29.213  56.427  1.00  0.00     0.275 C 
HETATM   14  N   UNL     1       6.627  28.161  56.206  1.00  0.00    -0.153 N 
HETATM   15  H   UNL     1       5.808  28.065  56.801  1.00  0.00     0.187 HD
HETATM   16  O   UNL     1       8.475  29.515  55.766  1.00  0.00    -0.267 OA
BRANCH  14  17
HETATM   17  C   UNL     1       6.876  27.186  55.273  1.00  0.00     0.708 A 
HETATM   18  N   UNL     1       6.840  27.269  53.965  1.00  0.00    -0.062 NA
HETATM   19  C   UNL     1       7.227  26.038  53.499  1.00  0.00     0.103 A 
HETATM   20  C   UNL     1       7.487  25.169  54.552  1.00  0.00     0.078 A 
HETATM   21  C   UNL     1       7.387  25.583  52.182  1.00  0.00     0.034 A 
HETATM   22  N   UNL     1       7.254  25.928  55.670  1.00  0.00    -0.187 N 
HETATM   23  C   UNL     1       7.891  23.845  54.376  1.00  0.00     0.032 A 
HETATM   24  H   UNL     1       7.346  25.614  56.623  1.00  0.00     0.184 HD
HETATM   25  C   UNL     1       8.044  23.408  53.055  1.00  0.00     0.002 A 
HETATM   26  C   UNL     1       7.800  24.261  51.974  1.00  0.00     0.002 A 
ENDBRANCH  14  17
ENDBRANCH   9  13
BRANCH   7  27
HETATM   27  C   UNL     1       4.449  32.577  58.219  1.00  0.00     0.090 A 
HETATM   28  C   UNL     1       4.589  33.835  57.396  1.00  0.00     0.028 A 
HETATM   29  C   UNL     1       3.869  32.652  56.829  1.00  0.00     0.028 A 
ENDBRANCH   7  27
BRANCH   1  30
HETATM   30  N   UNL     1       6.677  34.231  62.622  1.00  0.00    -0.375 N 
HETATM   31  C   UNL     1       6.550  33.902  64.059  1.00  0.00     0.150 C 
HETATM   32  C   UNL     1       5.091  33.538  64.412  1.00  0.00     0.254 C 
HETATM   33  N   UNL     1       4.135  34.667  64.007  1.00  0.00    -0.068 N 
HETATM   34  H   UNL     1       4.412  35.508  64.531  1.00  0.00     0.280 HD
HETATM   35  C   UNL     1       4.307  35.009  62.515  1.00  0.00     0.254 C 
HETATM   36  C   UNL     1       5.785  35.330  62.198  1.00  0.00     0.150 C 
BRANCH  33  37
HETATM   37  C   UNL     1       2.690  34.367  64.329  1.00  0.00     0.230 C 
HETATM   38  C   UNL     1       1.889  34.141  63.060  1.00  0.00     0.034 C 
ENDBRANCH  33  37
ENDBRANCH   1  30
TORSDOF 5
ENDMDL
MODEL 7
REMARK VINA RESULT:      -9.0      6.616      8.795
REMARK  5 active torsions:
REMARK  status: ('A' for Active; 'I' for Inactive)
REMARK    1  A    between atoms: C_2  and  N_3 
REMARK    2  A    between atoms: N_7  and  C_8 
REMARK    3  A    between atoms: N_14  and  C_15 
REMARK    4  A    between atoms: C_19  and  C_20 
REMARK       I    between atoms: C_20  and  N_21 
REMARK    5  A    between atoms: N_21  and  C_22 
ROOT
HETATM    1  C   UNL     1       4.131  32.067  52.864  1.00  0.00     0.071 A 
HETATM    2  C   UNL     1       4.161  31.629  54.204  1.00  0.00     0.143 A 
HETATM    3  F   UNL     1       4.168  32.513  55.213  1.00  0.00    -0.204 F 
HETATM    4  C   UNL     1       4.245  30.284  54.551  1.00  0.00     0.062 A 
HETATM    5  C   UNL     1       4.308  29.318  53.549  1.00  0.00     0.045 A 
HETATM    6  C   UNL     1       4.256  29.680  52.195  1.00  0.00     0.051 A 
HETATM    7  N   UNL     1       4.328  28.666  51.200  1.00  0.00    -0.350 N 
HETATM    8  C   UNL     1       4.660  27.375  51.582  1.00  0.00     0.113 C 
HETATM    9  C   UNL     1       4.747  26.918  52.841  1.00  0.00     0.099 C 
HETATM   10  C   UNL     1       4.456  27.891  53.923  1.00  0.00     0.201 C 
HETATM   11  O   UNL     1       4.373  27.542  55.098  1.00  0.00    -0.286 OA
HETATM   12  C   UNL     1       4.148  31.050  51.882  1.00  0.00     0.063 A 
ENDROOT
BRANCH   9  13
HETATM   13  C   UNL     1       5.163  25.499  53.071  1.00  0.00     0.275 C 
HETATM   14  N   UNL     1       6.105  25.361  54.065  1.00  0.00    -0.153 N 
HETATM   15  H   UNL     1       6.389  26.185  54.589  1.00  0.00     0.187 HD
HETATM   16  O   UNL     1       4.661  24.607  52.395  1.00  0.00    -0.267 OA
BRANCH  14  17
HETATM   17  C   UNL     1       6.741  24.173  54.321  1.00  0.00     0.708 A 
HETATM   18  N   UNL     1       7.033  23.625  55.476  1.00  0.00    -0.062 NA
HETATM   19  C   UNL     1       7.610  22.415  55.185  1.00  0.00     0.103 A 
HETATM   20  C   UNL     1       7.693  22.224  53.811  1.00  0.00     0.078 A 
HETATM   21  C   UNL     1       8.087  21.415  56.045  1.00  0.00     0.034 A 
HETATM   22  N   UNL     1       7.133  23.359  53.286  1.00  0.00    -0.187 N 
HETATM   23  C   UNL     1       8.244  21.084  53.224  1.00  0.00     0.032 A 
HETATM   24  H   UNL     1       7.026  23.564  52.305  1.00  0.00     0.184 HD
HETATM   25  C   UNL     1       8.716  20.097  54.098  1.00  0.00     0.002 A 
HETATM   26  C   UNL     1       8.638  20.255  55.485  1.00  0.00     0.002 A 
ENDBRANCH  14  17
ENDBRANCH   9  13
BRANCH   7  27
HETATM   27  C   UNL     1       4.346  28.980  49.758  1.00  0.00     0.090 A 
HETATM   28  C   UNL     1       5.637  29.183  49.002  1.00  0.00     0.028 A 
HETATM   29  C   UNL     1       4.801  27.971  48.733  1.00  0.00     0.028 A 
ENDBRANCH   7  27
BRANCH   1  30
HETATM   30  N   UNL     1       4.046  33.412  52.469  1.00  0.00    -0.375 N 
HETATM   31  C   UNL     1       3.375  33.713  51.186  1.00  0.00     0.150 C 
HETATM   32  C   UNL     1       4.393  33.729  50.025  1.00  0.00     0.254 C 
HETATM   33  N   UNL     1       5.530  34.719  50.311  1.00  0.00    -0.068 N 
HETATM   34  H   UNL     1       5.109  35.653  50.407  1.00  0.00     0.280 HD
HETATM   35  C   UNL     1       6.193  34.401  51.664  1.00  0.00     0.254 C 
HETATM   36  C   UNL     1       5.135  34.358  52.790  1.00  0.00     0.150 C 
BRANCH  33  37
HETATM   37  C   UNL     1       6.559  34.780  49.207  1.00  0.00     0.230 C 
HETATM   38  C   UNL     1       7.549  35.903  49.452  1.00  0.00     0.034 C 
ENDBRANCH  33  37
ENDBRANCH   1  30
TORSDOF 5
ENDMDL
MODEL 8
REMARK VINA RESULT:      -8.9      4.060      6.318
REMARK  5 active torsions:
REMARK  status: ('A' for Active; 'I' for Inactive)
REMARK    1  A    between atoms: C_2  and  N_3 
REMARK    2  A    between atoms: N_7  and  C_8 
REMARK    3  A    between atoms: N_14  and  C_15 
REMARK    4  A    between atoms: C_19  and  C_20 
REMARK       I    between atoms: C_20  and  N_21 
REMARK    5  A    between atoms: N_21  and  C_22 
ROOT
HETATM    1  C   UNL     1       5.105  32.317  56.529  1.00  0.00     0.071 A 
HETATM    2  C   UNL     1       5.731  31.554  57.536  1.00  0.00     0.143 A 
HETATM    3  F   UNL     1       6.312  32.152  58.588  1.00  0.00    -0.204 F 
HETATM    4  C   UNL     1       5.836  30.168  57.469  1.00  0.00     0.062 A 
HETATM    5  C   UNL     1       5.311  29.491  56.370  1.00  0.00     0.045 A 
HETATM    6  C   UNL     1       4.652  30.184  55.344  1.00  0.00     0.051 A 
HETATM    7  N   UNL     1       4.133  29.459  54.235  1.00  0.00    -0.350 N 
HETATM    8  C   UNL     1       4.477  28.124  54.089  1.00  0.00     0.113 C 
HETATM    9  C   UNL     1       5.112  27.364  54.995  1.00  0.00     0.099 C 
HETATM   10  C   UNL     1       5.477  28.021  56.274  1.00  0.00     0.201 C 
HETATM   11  O   UNL     1       5.934  27.381  57.219  1.00  0.00    -0.286 OA
HETATM   12  C   UNL     1       4.546  31.585  55.458  1.00  0.00     0.063 A 
ENDROOT
BRANCH   9  13
HETATM   13  C   UNL     1       5.442  25.946  54.649  1.00  0.00     0.275 C 
HETATM   14  N   UNL     1       6.398  25.393  55.471  1.00  0.00    -0.153 N 
HETATM   15  H   UNL     1       6.747  25.940  56.253  1.00  0.00     0.187 HD
HETATM   16  O   UNL     1       4.866  25.405  53.711  1.00  0.00    -0.267 OA
BRANCH  14  17
HETATM   17  C   UNL     1       6.963  24.167  55.226  1.00  0.00     0.708 A 
HETATM   18  N   UNL     1       7.399  23.274  56.082  1.00  0.00    -0.062 NA
HETATM   19  C   UNL     1       7.811  22.201  55.331  1.00  0.00     0.103 A 
HETATM   20  C   UNL     1       7.643  22.453  53.975  1.00  0.00     0.078 A 
HETATM   21  C   UNL     1       8.339  20.968  55.738  1.00  0.00     0.034 A 
HETATM   22  N   UNL     1       7.101  23.712  53.938  1.00  0.00    -0.187 N 
HETATM   23  C   UNL     1       7.985  21.542  52.975  1.00  0.00     0.032 A 
HETATM   24  H   UNL     1       6.848  24.219  53.105  1.00  0.00     0.184 HD
HETATM   25  C   UNL     1       8.512  20.316  53.399  1.00  0.00     0.002 A 
HETATM   26  C   UNL     1       8.684  20.029  54.756  1.00  0.00     0.002 A 
ENDBRANCH  14  17
ENDBRANCH   9  13
BRANCH   7  27
HETATM   27  C   UNL     1       3.488  30.130  53.090  1.00  0.00     0.090 A 
HETATM   28  C   UNL     1       4.269  30.554  51.869  1.00  0.00     0.028 A 
HETATM   29  C   UNL     1       3.287  29.428  51.770  1.00  0.00     0.028 A 
ENDBRANCH   7  27
BRANCH   1  30
HETATM   30  N   UNL     1       4.977  33.715  56.557  1.00  0.00    -0.375 N 
HETATM   31  C   UNL     1       4.099  34.307  57.590  1.00  0.00     0.150 C 
HETATM   32  C   UNL     1       2.658  34.468  57.059  1.00  0.00     0.254 C 
HETATM   33  N   UNL     1       2.642  35.295  55.766  1.00  0.00    -0.068 N 
HETATM   34  H   UNL     1       3.028  36.222  55.989  1.00  0.00     0.280 HD
HETATM   35  C   UNL     1       3.585  34.674  54.718  1.00  0.00     0.254 C 
HETATM   36  C   UNL     1       5.005  34.496  55.303  1.00  0.00     0.150 C 
BRANCH  33  37
HETATM   37  C   UNL     1       1.256  35.486  55.199  1.00  0.00     0.230 C 
HETATM   38  C   UNL     1       0.541  34.156  55.058  1.00  0.00     0.034 C 
ENDBRANCH  33  37
ENDBRANCH   1  30
TORSDOF 5
ENDMDL
MODEL 9
REMARK VINA RESULT:      -8.8      3.548      5.399
REMARK  5 active torsions:
REMARK  status: ('A' for Active; 'I' for Inactive)
REMARK    1  A    between atoms: C_2  and  N_3 
REMARK    2  A    between atoms: N_7  and  C_8 
REMARK    3  A    between atoms: N_14  and  C_15 
REMARK    4  A    between atoms: C_19  and  C_20 
REMARK       I    between atoms: C_20  and  N_21 
REMARK    5  A    between atoms: N_21  and  C_22 
ROOT
HETATM    1  C   UNL     1       8.793  30.742  59.042  1.00  0.00     0.071 A 
HETATM    2  C   UNL     1       9.660  30.065  58.159  1.00  0.00     0.143 A 
HETATM    3  F   UNL     1      10.990  30.119  58.329  1.00  0.00    -0.204 F 
HETATM    4  C   UNL     1       9.200  29.367  57.046  1.00  0.00     0.062 A 
HETATM    5  C   UNL     1       7.833  29.328  56.776  1.00  0.00     0.045 A 
HETATM    6  C   UNL     1       6.913  29.957  57.626  1.00  0.00     0.051 A 
HETATM    7  N   UNL     1       5.525  29.900  57.315  1.00  0.00    -0.350 N 
HETATM    8  C   UNL     1       5.137  29.414  56.075  1.00  0.00     0.113 C 
HETATM    9  C   UNL     1       5.928  28.802  55.180  1.00  0.00     0.099 C 
HETATM   10  C   UNL     1       7.353  28.633  55.558  1.00  0.00     0.201 C 
HETATM   11  O   UNL     1       8.126  27.968  54.872  1.00  0.00    -0.286 OA
HETATM   12  C   UNL     1       7.414  30.636  58.755  1.00  0.00     0.063 A 
ENDROOT
BRANCH   9  13
HETATM   13  C   UNL     1       5.346  28.378  53.868  1.00  0.00     0.275 C 
HETATM   14  N   UNL     1       6.125  28.726  52.787  1.00  0.00    -0.153 N 
HETATM   15  H   UNL     1       7.025  29.168  52.955  1.00  0.00     0.187 HD
HETATM   16  O   UNL     1       4.275  27.780  53.849  1.00  0.00    -0.267 OA
BRANCH  14  17
HETATM   17  C   UNL     1       5.698  28.580  51.492  1.00  0.00     0.708 A 
HETATM   18  N   UNL     1       5.721  29.453  50.513  1.00  0.00    -0.062 NA
HETATM   19  C   UNL     1       5.240  28.795  49.409  1.00  0.00     0.103 A 
HETATM   20  C   UNL     1       4.892  27.487  49.725  1.00  0.00     0.078 A 
HETATM   21  C   UNL     1       5.073  29.248  48.093  1.00  0.00     0.034 A 
HETATM   22  N   UNL     1       5.195  27.379  51.058  1.00  0.00    -0.187 N 
HETATM   23  C   UNL     1       4.366  26.586  48.799  1.00  0.00     0.032 A 
HETATM   24  H   UNL     1       5.068  26.556  51.625  1.00  0.00     0.184 HD
HETATM   25  C   UNL     1       4.206  27.056  47.490  1.00  0.00     0.002 A 
HETATM   26  C   UNL     1       4.555  28.363  47.139  1.00  0.00     0.002 A 
ENDBRANCH  14  17
ENDBRANCH   9  13
BRANCH   7  27
HETATM   27  C   UNL     1       4.508  30.594  58.128  1.00  0.00     0.090 A 
HETATM   28  C   UNL     1       4.160  32.046  57.901  1.00  0.00     0.028 A 
HETATM   29  C   UNL     1       3.166  30.981  57.557  1.00  0.00     0.028 A 
ENDBRANCH   7  27
BRANCH   1  30
HETATM   30  N   UNL     1       9.214  31.458  60.175  1.00  0.00    -0.375 N 
HETATM   31  C   UNL     1       9.405  30.704  61.434  1.00  0.00     0.150 C 
HETATM   32  C   UNL     1       8.107  30.696  62.270  1.00  0.00     0.254 C 
HETATM   33  N   UNL     1       7.622  32.127  62.538  1.00  0.00    -0.068 N 
HETATM   34  H   UNL     1       8.362  32.610  63.064  1.00  0.00     0.280 HD
HETATM   35  C   UNL     1       7.458  32.896  61.214  1.00  0.00     0.254 C 
HETATM   36  C   UNL     1       8.767  32.849  60.393  1.00  0.00     0.150 C 
BRANCH  33  37
HETATM   37  C   UNL     1       6.352  32.182  63.354  1.00  0.00     0.230 C 
HETATM   38  C   UNL     1       5.162  32.529  62.479  1.00  0.00     0.034 C 
ENDBRANCH  33  37
ENDBRANCH   1  30
TORSDOF 5
ENDMDL
MODEL 10
REMARK VINA RESULT:      -8.8      8.011     10.545
REMARK  5 active torsions:
REMARK  status: ('A' for Active; 'I' for Inactive)
REMARK    1  A    between atoms: C_2  and  N_3 
REMARK    2  A    between atoms: N_7  and  C_8 
REMARK    3  A    between atoms: N_14  and  C_15 
REMARK    4  A    between atoms: C_19  and  C_20 
REMARK       I    between atoms: C_20  and  N_21 
REMARK    5  A    between atoms: N_21  and  C_22 
ROOT
HETATM    1  C   UNL     1       2.887  30.878  51.008  1.00  0.00     0.071 A 
HETATM    2  C   UNL     1       3.186  30.804  52.384  1.00  0.00     0.143 A 
HETATM    3  F   UNL     1       2.920  31.837  53.199  1.00  0.00    -0.204 F 
HETATM    4  C   UNL     1       3.817  29.703  52.956  1.00  0.00     0.062 A 
HETATM    5  C   UNL     1       4.179  28.625  52.153  1.00  0.00     0.045 A 
HETATM    6  C   UNL     1       3.890  28.619  50.780  1.00  0.00     0.051 A 
HETATM    7  N   UNL     1       4.280  27.501  49.991  1.00  0.00    -0.350 N 
HETATM    8  C   UNL     1       5.120  26.549  50.548  1.00  0.00     0.113 C 
HETATM    9  C   UNL     1       5.471  26.459  51.840  1.00  0.00     0.099 C 
HETATM   10  C   UNL     1       4.903  27.479  52.756  1.00  0.00     0.201 C 
HETATM   11  O   UNL     1       5.051  27.406  53.973  1.00  0.00    -0.286 OA
HETATM   12  C   UNL     1       3.230  29.742  50.241  1.00  0.00     0.063 A 
ENDROOT
BRANCH   9  13
HETATM   13  C   UNL     1       6.426  25.387  52.260  1.00  0.00     0.275 C 
HETATM   14  N   UNL     1       5.912  24.542  53.218  1.00  0.00    -0.153 N 
HETATM   15  H   UNL     1       4.946  24.664  53.509  1.00  0.00     0.187 HD
HETATM   16  O   UNL     1       7.540  25.337  51.748  1.00  0.00    -0.267 OA
BRANCH  14  17
HETATM   17  C   UNL     1       6.675  23.599  53.858  1.00  0.00     0.708 A 
HETATM   18  N   UNL     1       6.966  23.501  55.133  1.00  0.00    -0.062 NA
HETATM   19  C   UNL     1       7.704  22.352  55.265  1.00  0.00     0.103 A 
HETATM   20  C   UNL     1       7.888  21.738  54.031  1.00  0.00     0.078 A 
HETATM   21  C   UNL     1       8.252  21.760  56.411  1.00  0.00     0.034 A 
HETATM   22  N   UNL     1       7.222  22.555  53.154  1.00  0.00    -0.187 N 
HETATM   23  C   UNL     1       8.608  20.555  53.860  1.00  0.00     0.032 A 
HETATM   24  H   UNL     1       7.147  22.413  52.160  1.00  0.00     0.184 HD
HETATM   25  C   UNL     1       9.148  19.979  55.016  1.00  0.00     0.002 A 
HETATM   26  C   UNL     1       8.973  20.567  56.272  1.00  0.00     0.002 A 
ENDBRANCH  14  17
ENDBRANCH   9  13
BRANCH   7  27
HETATM   27  C   UNL     1       4.067  27.457  48.531  1.00  0.00     0.090 A 
HETATM   28  C   UNL     1       5.140  27.875  47.555  1.00  0.00     0.028 A 
HETATM   29  C   UNL     1       4.753  26.434  47.661  1.00  0.00     0.028 A 
ENDBRANCH   7  27
BRANCH   1  30
HETATM   30  N   UNL     1       2.253  31.967  50.390  1.00  0.00    -0.375 N 
HETATM   31  C   UNL     1       0.780  32.059  50.498  1.00  0.00     0.150 C 
HETATM   32  C   UNL     1       0.098  31.349  49.308  1.00  0.00     0.254 C 
HETATM   33  N   UNL     1       0.600  31.916  47.974  1.00  0.00    -0.068 N 
HETATM   34  H   UNL     1       0.362  32.916  47.955  1.00  0.00     0.280 HD
HETATM   35  C   UNL     1       2.137  31.834  47.899  1.00  0.00     0.254 C 
HETATM   36  C   UNL     1       2.778  32.523  49.126  1.00  0.00     0.150 C 
BRANCH  33  37
HETATM   37  C   UNL     1      -0.034  31.258  46.771  1.00  0.00     0.230 C 
HETATM   38  C   UNL     1      -1.095  32.156  46.162  1.00  0.00     0.034 C 
ENDBRANCH  33  37
ENDBRANCH   1  30
TORSDOF 5
ENDMDL
