MODEL 1
REMARK VINA RESULT:     -11.0      0.000      0.000
REMARK  7 active torsions:
REMARK  status: ('A' for Active; 'I' for Inactive)
REMARK    1  A    between atoms: C_5  and  N_6 
REMARK    2  A    between atoms: C_7  and  S_8 
REMARK    3  A    between atoms: S_8  and  C_9 
REMARK    4  A    between atoms: C_9  and  C_10 
REMARK       I    between atoms: C_10  and  N_11 
REMARK    5  A    between atoms: C_13  and  C_14 
REMARK    6  A    between atoms: C_14  and  N_15 
REMARK       I    between atoms: N_15  and  C_16 
REMARK       I    between atoms: C_16  and  N_17 
REMARK    7  A    between atoms: N_17  and  C_18 
ROOT
HETATM    1  C   UNL     1       7.196  28.798  57.406  1.00  0.00     0.229 C 
HETATM    2  N   UNL     1       7.921  29.808  58.049  1.00  0.00    -0.351 N 
HETATM    3  C   UNL     1       7.159  30.722  58.899  1.00  0.00     0.132 C 
HETATM    4  C   UNL     1       8.003  31.310  60.040  1.00  0.00     0.021 C 
HETATM    5  C   UNL     1       9.300  31.917  59.487  1.00  0.00     0.009 C 
HETATM    6  C   UNL     1      10.057  30.895  58.641  1.00  0.00     0.020 C 
HETATM    7  C   UNL     1       9.179  30.341  57.526  1.00  0.00     0.126 C 
HETATM    8  O   UNL     1       5.968  28.730  57.522  1.00  0.00    -0.273 OA
ENDROOT
BRANCH   1   9
HETATM    9  C   UNL     1       7.930  27.812  56.506  1.00  0.00     0.185 C 
BRANCH   9  10
HETATM   10  S   UNL     1       7.960  28.321  54.761  1.00  0.00    -0.082 SA
BRANCH  10  11
HETATM   11  C   UNL     1       6.319  28.026  54.276  1.00  0.00     0.173 A 
HETATM   12  N   UNL     1       5.878  26.844  53.694  1.00  0.00    -0.299 N 
HETATM   13  C   UNL     1       4.565  27.086  53.331  1.00  0.00     0.118 A 
HETATM   14  C   UNL     1       4.292  28.377  53.708  1.00  0.00     0.137 A 
HETATM   15  N   UNL     1       5.389  28.955  54.275  1.00  0.00    -0.235 NA
BRANCH  12  16
HETATM   16  C   UNL     1       6.541  25.590  53.559  1.00  0.00     0.047 A 
HETATM   17  C   UNL     1       6.612  24.664  54.631  1.00  0.00    -0.029 A 
HETATM   18  C   UNL     1       7.405  23.500  54.468  1.00  0.00    -0.054 A 
HETATM   19  C   UNL     1       5.841  24.855  55.916  1.00  0.00     0.051 C 
HETATM   20  C   UNL     1       7.561  22.478  55.565  1.00  0.00     0.049 C 
HETATM   21  C   UNL     1       8.034  23.250  53.238  1.00  0.00     0.007 A 
HETATM   22  C   UNL     1       7.922  24.147  52.182  1.00  0.00     0.003 A 
HETATM   23  C   UNL     1       7.189  25.319  52.343  1.00  0.00     0.030 A 
ENDBRANCH  12  16
ENDBRANCH  10  11
ENDBRANCH   9  10
ENDBRANCH   1   9
BRANCH   4  24
HETATM   24  C   UNL     1       7.159  32.325  60.824  1.00  0.00     0.130 C 
BRANCH  24  25
HETATM   25  N   UNL     1       6.131  31.690  61.633  1.00  0.00    -0.342 N 
HETATM   26  C   UNL     1       5.674  31.953  62.890  1.00  0.00     0.320 C 
HETATM   27  N   UNL     1       6.163  33.082  63.485  1.00  0.00    -0.309 N 
HETATM   28  O   UNL     1       4.876  31.159  63.377  1.00  0.00    -0.247 OA
HETATM   29  H   UNL     1       6.709  33.693  62.903  1.00  0.00     0.170 HD
HETATM   30  H   UNL     1       5.730  30.830  61.275  1.00  0.00     0.164 HD
BRANCH  27  31
HETATM   31  C   UNL     1       5.913  33.544  64.794  1.00  0.00     0.039 A 
HETATM   32  C   UNL     1       6.904  33.753  65.753  1.00  0.00     0.071 A 
HETATM   33  C   UNL     1       6.555  34.218  67.018  1.00  0.00     0.118 A 
HETATM   34  F   UNL     1       7.513  34.418  67.934  1.00  0.00    -0.206 F 
HETATM   35  C   UNL     1       5.233  34.485  67.353  1.00  0.00     0.042 A 
HETATM   36  C   UNL     1       4.237  34.284  66.403  1.00  0.00     0.005 A 
HETATM   37  C   UNL     1       4.576  33.817  65.130  1.00  0.00     0.030 A 
ENDBRANCH  27  31
ENDBRANCH  24  25
ENDBRANCH   4  24
TORSDOF 7
ENDMDL
MODEL 2
REMARK VINA RESULT:     -10.8      2.203      3.256
REMARK  7 active torsions:
REMARK  status: ('A' for Active; 'I' for Inactive)
REMARK    1  A    between atoms: C_5  and  N_6 
REMARK    2  A    between atoms: C_7  and  S_8 
REMARK    3  A    between atoms: S_8  and  C_9 
REMARK    4  A    between atoms: C_9  and  C_10 
REMARK       I    between atoms: C_10  and  N_11 
REMARK    5  A    between atoms: C_13  and  C_14 
REMARK    6  A    between atoms: C_14  and  N_15 
REMARK       I    between atoms: N_15  and  C_16 
REMARK       I    between atoms: C_16  and  N_17 
REMARK    7  A    between atoms: N_17  and  C_18 
ROOT
HETATM    1  C   UNL     1       5.568  28.240  56.612  1.00  0.00     0.229 C 
HETATM    2  N   UNL     1       6.852  28.727  56.882  1.00  0.00    -0.351 N 
HETATM    3  C   UNL     1       6.959  29.749  57.923  1.00  0.00     0.132 C 
HETATM    4  C   UNL     1       8.327  29.738  58.623  1.00  0.00     0.021 C 
HETATM    5  C   UNL     1       9.458  29.790  57.587  1.00  0.00     0.009 C 
HETATM    6  C   UNL     1       9.298  28.675  56.556  1.00  0.00     0.020 C 
HETATM    7  C   UNL     1       7.929  28.727  55.891  1.00  0.00     0.126 C 
HETATM    8  O   UNL     1       4.582  28.699  57.196  1.00  0.00    -0.273 OA
ENDROOT
BRANCH   1   9
HETATM    9  C   UNL     1       5.387  27.174  55.538  1.00  0.00     0.185 C 
BRANCH   9  10
HETATM   10  S   UNL     1       5.287  25.489  56.213  1.00  0.00    -0.082 SA
BRANCH  10  11
HETATM   11  C   UNL     1       6.910  25.233  56.776  1.00  0.00     0.173 A 
HETATM   12  N   UNL     1       7.850  24.450  56.118  1.00  0.00    -0.299 N 
HETATM   13  C   UNL     1       8.937  24.393  56.971  1.00  0.00     0.118 A 
HETATM   14  C   UNL     1       8.598  25.133  58.076  1.00  0.00     0.137 A 
HETATM   15  N   UNL     1       7.335  25.633  57.954  1.00  0.00    -0.235 NA
BRANCH  12  16
HETATM   16  C   UNL     1       7.812  23.883  54.811  1.00  0.00     0.047 A 
HETATM   17  C   UNL     1       7.839  22.480  54.605  1.00  0.00    -0.029 A 
HETATM   18  C   UNL     1       7.940  21.992  53.278  1.00  0.00    -0.054 A 
HETATM   19  C   UNL     1       7.723  21.493  55.743  1.00  0.00     0.051 C 
HETATM   20  C   UNL     1       8.005  20.519  52.969  1.00  0.00     0.049 C 
HETATM   21  C   UNL     1       7.931  22.893  52.201  1.00  0.00     0.007 A 
HETATM   22  C   UNL     1       7.862  24.265  52.416  1.00  0.00     0.003 A 
HETATM   23  C   UNL     1       7.815  24.762  53.715  1.00  0.00     0.030 A 
ENDBRANCH  12  16
ENDBRANCH  10  11
ENDBRANCH   9  10
ENDBRANCH   1   9
BRANCH   4  24
HETATM   24  C   UNL     1       8.389  30.894  59.631  1.00  0.00     0.130 C 
BRANCH  24  25
HETATM   25  N   UNL     1       8.647  30.440  60.988  1.00  0.00    -0.342 N 
HETATM   26  C   UNL     1       8.226  30.908  62.197  1.00  0.00     0.320 C 
HETATM   27  N   UNL     1       7.299  31.910  62.165  1.00  0.00    -0.309 N 
HETATM   28  O   UNL     1       8.715  30.397  63.199  1.00  0.00    -0.247 OA
HETATM   29  H   UNL     1       6.905  32.127  61.267  1.00  0.00     0.170 HD
HETATM   30  H   UNL     1       9.342  29.711  61.104  1.00  0.00     0.164 HD
BRANCH  27  31
HETATM   31  C   UNL     1       6.753  32.615  63.259  1.00  0.00     0.039 A 
HETATM   32  C   UNL     1       5.391  32.851  63.437  1.00  0.00     0.071 A 
HETATM   33  C   UNL     1       4.949  33.552  64.556  1.00  0.00     0.118 A 
HETATM   34  F   UNL     1       3.638  33.774  64.721  1.00  0.00    -0.206 F 
HETATM   35  C   UNL     1       5.841  34.025  65.512  1.00  0.00     0.042 A 
HETATM   36  C   UNL     1       7.202  33.792  65.347  1.00  0.00     0.005 A 
HETATM   37  C   UNL     1       7.655  33.089  64.227  1.00  0.00     0.030 A 
ENDBRANCH  27  31
ENDBRANCH  24  25
ENDBRANCH   4  24
TORSDOF 7
ENDMDL
MODEL 3
REMARK VINA RESULT:     -10.5      0.779      1.485
REMARK  7 active torsions:
REMARK  status: ('A' for Active; 'I' for Inactive)
REMARK    1  A    between atoms: C_5  and  N_6 
REMARK    2  A    between atoms: C_7  and  S_8 
REMARK    3  A    between atoms: S_8  and  C_9 
REMARK    4  A    between atoms: C_9  and  C_10 
REMARK       I    between atoms: C_10  and  N_11 
REMARK    5  A    between atoms: C_13  and  C_14 
REMARK    6  A    between atoms: C_14  and  N_15 
REMARK       I    between atoms: N_15  and  C_16 
REMARK       I    between atoms: C_16  and  N_17 
REMARK    7  A    between atoms: N_17  and  C_18 
ROOT
HETATM    1  C   UNL     1       7.120  28.848  57.365  1.00  0.00     0.229 C 
HETATM    2  N   UNL     1       7.816  29.846  58.059  1.00  0.00    -0.351 N 
HETATM    3  C   UNL     1       7.009  30.786  58.835  1.00  0.00     0.132 C 
HETATM    4  C   UNL     1       7.771  31.364  60.037  1.00  0.00     0.021 C 
HETATM    5  C   UNL     1       9.125  31.934  59.589  1.00  0.00     0.009 C 
HETATM    6  C   UNL     1       9.922  30.885  58.816  1.00  0.00     0.020 C 
HETATM    7  C   UNL     1       9.126  30.342  57.637  1.00  0.00     0.126 C 
HETATM    8  O   UNL     1       5.886  28.811  57.380  1.00  0.00    -0.273 OA
ENDROOT
BRANCH   1   9
HETATM    9  C   UNL     1       7.901  27.835  56.536  1.00  0.00     0.185 C 
BRANCH   9  10
HETATM   10  S   UNL     1       7.979  28.263  54.771  1.00  0.00    -0.082 SA
BRANCH  10  11
HETATM   11  C   UNL     1       6.396  27.803  54.224  1.00  0.00     0.173 A 
HETATM   12  N   UNL     1       5.988  26.489  54.030  1.00  0.00    -0.299 N 
HETATM   13  C   UNL     1       4.734  26.579  53.453  1.00  0.00     0.118 A 
HETATM   14  C   UNL     1       4.459  27.919  53.335  1.00  0.00     0.137 A 
HETATM   15  N   UNL     1       5.501  28.667  53.798  1.00  0.00    -0.235 NA
BRANCH  12  16
HETATM   16  C   UNL     1       6.623  25.271  54.407  1.00  0.00     0.047 A 
HETATM   17  C   UNL     1       7.311  24.464  53.465  1.00  0.00    -0.029 A 
HETATM   18  C   UNL     1       7.797  23.200  53.884  1.00  0.00    -0.054 A 
HETATM   19  C   UNL     1       7.577  24.922  52.050  1.00  0.00     0.051 C 
HETATM   20  C   UNL     1       8.512  22.265  52.942  1.00  0.00     0.049 C 
HETATM   21  C   UNL     1       7.660  22.808  55.226  1.00  0.00     0.007 A 
HETATM   22  C   UNL     1       7.020  23.628  56.148  1.00  0.00     0.003 A 
HETATM   23  C   UNL     1       6.492  24.850  55.741  1.00  0.00     0.030 A 
ENDBRANCH  12  16
ENDBRANCH  10  11
ENDBRANCH   9  10
ENDBRANCH   1   9
BRANCH   4  24
HETATM   24  C   UNL     1       6.891  32.407  60.741  1.00  0.00     0.130 C 
BRANCH  24  25
HETATM   25  N   UNL     1       5.933  31.805  61.655  1.00  0.00    -0.342 N 
HETATM   26  C   UNL     1       5.424  32.229  62.846  1.00  0.00     0.320 C 
HETATM   27  N   UNL     1       5.762  33.497  63.228  1.00  0.00    -0.309 N 
HETATM   28  O   UNL     1       4.720  31.443  63.469  1.00  0.00    -0.247 OA
HETATM   29  H   UNL     1       6.240  34.057  62.544  1.00  0.00     0.170 HD
HETATM   30  H   UNL     1       5.646  30.853  61.457  1.00  0.00     0.164 HD
BRANCH  27  31
HETATM   31  C   UNL     1       5.433  34.150  64.434  1.00  0.00     0.039 A 
HETATM   32  C   UNL     1       5.983  33.826  65.674  1.00  0.00     0.071 A 
HETATM   33  C   UNL     1       5.598  34.536  66.809  1.00  0.00     0.118 A 
HETATM   34  F   UNL     1       6.132  34.220  67.997  1.00  0.00    -0.206 F 
HETATM   35  C   UNL     1       4.672  35.570  66.736  1.00  0.00     0.042 A 
HETATM   36  C   UNL     1       4.120  35.903  65.505  1.00  0.00     0.005 A 
HETATM   37  C   UNL     1       4.500  35.198  64.359  1.00  0.00     0.030 A 
ENDBRANCH  27  31
ENDBRANCH  24  25
ENDBRANCH   4  24
TORSDOF 7
ENDMDL
MODEL 4
REMARK VINA RESULT:     -10.5      3.931     11.775
REMARK  7 active torsions:
REMARK  status: ('A' for Active; 'I' for Inactive)
REMARK    1  A    between atoms: C_5  and  N_6 
REMARK    2  A    between atoms: C_7  and  S_8 
REMARK    3  A    between atoms: S_8  and  C_9 
REMARK    4  A    between atoms: C_9  and  C_10 
REMARK       I    between atoms: C_10  and  N_11 
REMARK    5  A    between atoms: C_13  and  C_14 
REMARK    6  A    between atoms: C_14  and  N_15 
REMARK       I    between atoms: N_15  and  C_16 
REMARK       I    between atoms: C_16  and  N_17 
REMARK    7  A    between atoms: N_17  and  C_18 
ROOT
HETATM    1  C   UNL     1       5.945  31.215  58.180  1.00  0.00     0.229 C 
HETATM    2  N   UNL     1       7.014  30.400  57.788  1.00  0.00    -0.351 N 
HETATM    3  C   UNL     1       6.747  29.440  56.718  1.00  0.00     0.132 C 
HETATM    4  C   UNL     1       8.005  29.100  55.904  1.00  0.00     0.021 C 
HETATM    5  C   UNL     1       9.150  28.683  56.836  1.00  0.00     0.009 C 
HETATM    6  C   UNL     1       9.392  29.749  57.903  1.00  0.00     0.020 C 
HETATM    7  C   UNL     1       8.119  30.052  58.682  1.00  0.00     0.126 C 
HETATM    8  O   UNL     1       4.828  31.079  57.671  1.00  0.00    -0.273 OA
ENDROOT
BRANCH   1   9
HETATM    9  C   UNL     1       6.156  32.237  59.289  1.00  0.00     0.185 C 
BRANCH   9  10
HETATM   10  S   UNL     1       4.731  32.385  60.408  1.00  0.00    -0.082 SA
BRANCH  10  11
HETATM   11  C   UNL     1       4.629  34.104  60.629  1.00  0.00     0.173 A 
HETATM   12  N   UNL     1       4.921  34.757  61.820  1.00  0.00    -0.299 N 
HETATM   13  C   UNL     1       4.566  36.077  61.608  1.00  0.00     0.118 A 
HETATM   14  C   UNL     1       4.088  36.146  60.324  1.00  0.00     0.137 A 
HETATM   15  N   UNL     1       4.114  34.917  59.733  1.00  0.00    -0.235 NA
BRANCH  12  16
HETATM   16  C   UNL     1       5.543  34.263  63.003  1.00  0.00     0.047 A 
HETATM   17  C   UNL     1       4.888  34.293  64.260  1.00  0.00    -0.029 A 
HETATM   18  C   UNL     1       5.619  33.914  65.414  1.00  0.00    -0.054 A 
HETATM   19  C   UNL     1       3.433  34.674  64.404  1.00  0.00     0.051 C 
HETATM   20  C   UNL     1       5.011  33.945  66.793  1.00  0.00     0.049 C 
HETATM   21  C   UNL     1       6.937  33.447  65.284  1.00  0.00     0.007 A 
HETATM   22  C   UNL     1       7.553  33.383  64.039  1.00  0.00     0.003 A 
HETATM   23  C   UNL     1       6.866  33.800  62.903  1.00  0.00     0.030 A 
ENDBRANCH  12  16
ENDBRANCH  10  11
ENDBRANCH   9  10
ENDBRANCH   1   9
BRANCH   4  24
HETATM   24  C   UNL     1       7.660  28.021  54.867  1.00  0.00     0.130 C 
BRANCH  24  25
HETATM   25  N   UNL     1       6.598  27.134  55.315  1.00  0.00    -0.342 N 
HETATM   26  C   UNL     1       6.469  25.778  55.270  1.00  0.00     0.320 C 
HETATM   27  N   UNL     1       7.562  25.082  54.839  1.00  0.00    -0.309 N 
HETATM   28  O   UNL     1       5.390  25.304  55.609  1.00  0.00    -0.247 OA
HETATM   29  H   UNL     1       8.410  25.609  54.722  1.00  0.00     0.170 HD
HETATM   30  H   UNL     1       5.738  27.569  55.630  1.00  0.00     0.164 HD
BRANCH  27  31
HETATM   31  C   UNL     1       7.673  23.691  54.632  1.00  0.00     0.039 A 
HETATM   32  C   UNL     1       7.579  22.739  55.647  1.00  0.00     0.071 A 
HETATM   33  C   UNL     1       7.695  21.386  55.340  1.00  0.00     0.118 A 
HETATM   34  F   UNL     1       7.603  20.477  56.321  1.00  0.00    -0.206 F 
HETATM   35  C   UNL     1       7.900  20.955  54.035  1.00  0.00     0.042 A 
HETATM   36  C   UNL     1       7.991  21.895  53.014  1.00  0.00     0.005 A 
HETATM   37  C   UNL     1       7.876  23.256  53.312  1.00  0.00     0.030 A 
ENDBRANCH  27  31
ENDBRANCH  24  25
ENDBRANCH   4  24
TORSDOF 7
ENDMDL
MODEL 5
REMARK VINA RESULT:     -10.2      1.653      2.759
REMARK  7 active torsions:
REMARK  status: ('A' for Active; 'I' for Inactive)
REMARK    1  A    between atoms: C_5  and  N_6 
REMARK    2  A    between atoms: C_7  and  S_8 
REMARK    3  A    between atoms: S_8  and  C_9 
REMARK    4  A    between atoms: C_9  and  C_10 
REMARK       I    between atoms: C_10  and  N_11 
REMARK    5  A    between atoms: C_13  and  C_14 
REMARK    6  A    between atoms: C_14  and  N_15 
REMARK       I    between atoms: N_15  and  C_16 
REMARK       I    between atoms: C_16  and  N_17 
REMARK    7  A    between atoms: N_17  and  C_18 
ROOT
HETATM    1  C   UNL     1       5.498  29.166  55.802  1.00  0.00     0.229 C 
HETATM    2  N   UNL     1       6.733  29.354  56.433  1.00  0.00    -0.351 N 
HETATM    3  C   UNL     1       6.760  30.296  57.551  1.00  0.00     0.132 C 
HETATM    4  C   UNL     1       7.859  29.966  58.573  1.00  0.00     0.021 C 
HETATM    5  C   UNL     1       9.214  29.803  57.870  1.00  0.00     0.009 C 
HETATM    6  C   UNL     1       9.115  28.781  56.739  1.00  0.00     0.020 C 
HETATM    7  C   UNL     1       8.013  29.149  55.754  1.00  0.00     0.126 C 
HETATM    8  O   UNL     1       4.505  29.810  56.153  1.00  0.00    -0.273 OA
ENDROOT
BRANCH   1   9
HETATM    9  C   UNL     1       5.401  28.197  54.630  1.00  0.00     0.185 C 
BRANCH   9  10
HETATM   10  S   UNL     1       5.657  26.463  55.111  1.00  0.00    -0.082 SA
BRANCH  10  11
HETATM   11  C   UNL     1       6.354  25.793  53.668  1.00  0.00     0.173 A 
HETATM   12  N   UNL     1       7.311  24.786  53.659  1.00  0.00    -0.299 N 
HETATM   13  C   UNL     1       7.698  24.663  52.337  1.00  0.00     0.118 A 
HETATM   14  C   UNL     1       6.965  25.587  51.634  1.00  0.00     0.137 A 
HETATM   15  N   UNL     1       6.151  26.293  52.469  1.00  0.00    -0.235 NA
BRANCH  12  16
HETATM   16  C   UNL     1       7.768  23.951  54.720  1.00  0.00     0.047 A 
HETATM   17  C   UNL     1       7.823  22.540  54.589  1.00  0.00    -0.029 A 
HETATM   18  C   UNL     1       8.155  21.766  55.729  1.00  0.00    -0.054 A 
HETATM   19  C   UNL     1       7.584  21.841  53.271  1.00  0.00     0.051 C 
HETATM   20  C   UNL     1       8.208  20.261  55.688  1.00  0.00     0.049 C 
HETATM   21  C   UNL     1       8.494  22.406  56.932  1.00  0.00     0.007 A 
HETATM   22  C   UNL     1       8.475  23.792  57.035  1.00  0.00     0.003 A 
HETATM   23  C   UNL     1       8.102  24.564  55.939  1.00  0.00     0.030 A 
ENDBRANCH  12  16
ENDBRANCH  10  11
ENDBRANCH   9  10
ENDBRANCH   1   9
BRANCH   4  24
HETATM   24  C   UNL     1       7.880  31.051  59.660  1.00  0.00     0.130 C 
BRANCH  24  25
HETATM   25  N   UNL     1       8.181  30.516  60.979  1.00  0.00    -0.342 N 
HETATM   26  C   UNL     1       7.840  30.937  62.229  1.00  0.00     0.320 C 
HETATM   27  N   UNL     1       6.960  31.980  62.294  1.00  0.00    -0.309 N 
HETATM   28  O   UNL     1       8.351  30.354  63.179  1.00  0.00    -0.247 OA
HETATM   29  H   UNL     1       6.534  32.261  61.428  1.00  0.00     0.170 HD
HETATM   30  H   UNL     1       8.846  29.752  61.023  1.00  0.00     0.164 HD
BRANCH  27  31
HETATM   31  C   UNL     1       6.501  32.650  63.447  1.00  0.00     0.039 A 
HETATM   32  C   UNL     1       7.334  33.132  64.456  1.00  0.00     0.071 A 
HETATM   33  C   UNL     1       6.784  33.787  65.555  1.00  0.00     0.118 A 
HETATM   34  F   UNL     1       7.591  34.249  66.520  1.00  0.00    -0.206 F 
HETATM   35  C   UNL     1       5.412  33.978  65.672  1.00  0.00     0.042 A 
HETATM   36  C   UNL     1       4.572  33.505  64.670  1.00  0.00     0.005 A 
HETATM   37  C   UNL     1       5.114  32.846  63.563  1.00  0.00     0.030 A 
ENDBRANCH  27  31
ENDBRANCH  24  25
ENDBRANCH   4  24
TORSDOF 7
ENDMDL
MODEL 6
REMARK VINA RESULT:     -10.1      3.943     11.282
REMARK  7 active torsions:
REMARK  status: ('A' for Active; 'I' for Inactive)
REMARK    1  A    between atoms: C_5  and  N_6 
REMARK    2  A    between atoms: C_7  and  S_8 
REMARK    3  A    between atoms: S_8  and  C_9 
REMARK    4  A    between atoms: C_9  and  C_10 
REMARK       I    between atoms: C_10  and  N_11 
REMARK    5  A    between atoms: C_13  and  C_14 
REMARK    6  A    between atoms: C_14  and  N_15 
REMARK       I    between atoms: N_15  and  C_16 
REMARK       I    between atoms: C_16  and  N_17 
REMARK    7  A    between atoms: N_17  and  C_18 
ROOT
HETATM    1  C   UNL     1       5.914  27.647  56.111  1.00  0.00     0.229 C 
HETATM    2  N   UNL     1       5.327  27.854  54.857  1.00  0.00    -0.351 N 
HETATM    3  C   UNL     1       5.713  26.927  53.793  1.00  0.00     0.132 C 
HETATM    4  C   UNL     1       4.615  26.758  52.731  1.00  0.00     0.021 C 
HETATM    5  C   UNL     1       4.151  28.129  52.219  1.00  0.00     0.009 C 
HETATM    6  C   UNL     1       3.732  29.026  53.382  1.00  0.00     0.020 C 
HETATM    7  C   UNL     1       4.851  29.162  54.407  1.00  0.00     0.126 C 
HETATM    8  O   UNL     1       6.750  26.754  56.278  1.00  0.00    -0.273 OA
ENDROOT
BRANCH   1   9
HETATM    9  C   UNL     1       5.554  28.577  57.263  1.00  0.00     0.185 C 
BRANCH   9  10
HETATM   10  S   UNL     1       6.926  29.659  57.764  1.00  0.00    -0.082 SA
BRANCH  10  11
HETATM   11  C   UNL     1       6.133  31.198  57.902  1.00  0.00     0.173 A 
HETATM   12  N   UNL     1       6.330  32.086  58.952  1.00  0.00    -0.299 N 
HETATM   13  C   UNL     1       5.406  33.096  58.752  1.00  0.00     0.118 A 
HETATM   14  C   UNL     1       4.717  32.768  57.612  1.00  0.00     0.137 A 
HETATM   15  N   UNL     1       5.161  31.583  57.104  1.00  0.00    -0.235 NA
BRANCH  12  16
HETATM   16  C   UNL     1       7.313  32.076  59.984  1.00  0.00     0.047 A 
HETATM   17  C   UNL     1       6.965  32.248  61.348  1.00  0.00    -0.029 A 
HETATM   18  C   UNL     1       8.006  32.366  62.302  1.00  0.00    -0.054 A 
HETATM   19  C   UNL     1       5.530  32.266  61.820  1.00  0.00     0.051 C 
HETATM   20  C   UNL     1       7.728  32.580  63.768  1.00  0.00     0.049 C 
HETATM   21  C   UNL     1       9.344  32.235  61.896  1.00  0.00     0.007 A 
HETATM   22  C   UNL     1       9.669  32.025  60.561  1.00  0.00     0.003 A 
HETATM   23  C   UNL     1       8.660  31.958  59.604  1.00  0.00     0.030 A 
ENDBRANCH  12  16
ENDBRANCH  10  11
ENDBRANCH   9  10
ENDBRANCH   1   9
BRANCH   4  24
HETATM   24  C   UNL     1       5.133  25.848  51.609  1.00  0.00     0.130 C 
BRANCH  24  25
HETATM   25  N   UNL     1       6.581  25.711  51.622  1.00  0.00    -0.342 N 
HETATM   26  C   UNL     1       7.401  24.805  52.225  1.00  0.00     0.320 C 
HETATM   27  N   UNL     1       6.787  23.752  52.840  1.00  0.00    -0.309 N 
HETATM   28  O   UNL     1       8.608  25.015  52.169  1.00  0.00    -0.247 OA
HETATM   29  H   UNL     1       5.799  23.657  52.684  1.00  0.00     0.170 HD
HETATM   30  H   UNL     1       7.117  26.465  51.206  1.00  0.00     0.164 HD
BRANCH  27  31
HETATM   31  C   UNL     1       7.390  22.720  53.590  1.00  0.00     0.039 A 
HETATM   32  C   UNL     1       7.553  22.753  54.975  1.00  0.00     0.071 A 
HETATM   33  C   UNL     1       8.156  21.680  55.627  1.00  0.00     0.118 A 
HETATM   34  F   UNL     1       8.308  21.718  56.958  1.00  0.00    -0.206 F 
HETATM   35  C   UNL     1       8.601  20.565  54.926  1.00  0.00     0.042 A 
HETATM   36  C   UNL     1       8.440  20.520  53.546  1.00  0.00     0.005 A 
HETATM   37  C   UNL     1       7.836  21.592  52.882  1.00  0.00     0.030 A 
ENDBRANCH  27  31
ENDBRANCH  24  25
ENDBRANCH   4  24
TORSDOF 7
ENDMDL
MODEL 7
REMARK VINA RESULT:     -10.1      4.323     12.384
REMARK  7 active torsions:
REMARK  status: ('A' for Active; 'I' for Inactive)
REMARK    1  A    between atoms: C_5  and  N_6 
REMARK    2  A    between atoms: C_7  and  S_8 
REMARK    3  A    between atoms: S_8  and  C_9 
REMARK    4  A    between atoms: C_9  and  C_10 
REMARK       I    between atoms: C_10  and  N_11 
REMARK    5  A    between atoms: C_13  and  C_14 
REMARK    6  A    between atoms: C_14  and  N_15 
REMARK       I    between atoms: N_15  and  C_16 
REMARK       I    between atoms: C_16  and  N_17 
REMARK    7  A    between atoms: N_17  and  C_18 
ROOT
HETATM    1  C   UNL     1       5.556  30.979  58.296  1.00  0.00     0.229 C 
HETATM    2  N   UNL     1       6.456  30.002  57.854  1.00  0.00    -0.351 N 
HETATM    3  C   UNL     1       5.887  28.875  57.116  1.00  0.00     0.132 C 
HETATM    4  C   UNL     1       6.885  28.256  56.125  1.00  0.00     0.021 C 
HETATM    5  C   UNL     1       8.208  27.927  56.831  1.00  0.00     0.009 C 
HETATM    6  C   UNL     1       8.756  29.159  57.549  1.00  0.00     0.020 C 
HETATM    7  C   UNL     1       7.733  29.737  58.518  1.00  0.00     0.126 C 
HETATM    8  O   UNL     1       4.342  30.852  58.107  1.00  0.00    -0.273 OA
ENDROOT
BRANCH   1   9
HETATM    9  C   UNL     1       6.084  32.180  59.072  1.00  0.00     0.185 C 
BRANCH   9  10
HETATM   10  S   UNL     1       5.245  32.427  60.666  1.00  0.00    -0.082 SA
BRANCH  10  11
HETATM   11  C   UNL     1       6.559  32.257  61.789  1.00  0.00     0.173 A 
HETATM   12  N   UNL     1       6.676  32.980  62.969  1.00  0.00    -0.299 N 
HETATM   13  C   UNL     1       7.921  32.654  63.474  1.00  0.00     0.118 A 
HETATM   14  C   UNL     1       8.477  31.768  62.586  1.00  0.00     0.137 A 
HETATM   15  N   UNL     1       7.634  31.543  61.538  1.00  0.00    -0.235 NA
BRANCH  12  16
HETATM   16  C   UNL     1       5.724  33.813  63.627  1.00  0.00     0.047 A 
HETATM   17  C   UNL     1       5.501  35.155  63.225  1.00  0.00    -0.029 A 
HETATM   18  C   UNL     1       4.644  35.964  64.011  1.00  0.00    -0.054 A 
HETATM   19  C   UNL     1       6.111  35.734  61.970  1.00  0.00     0.051 C 
HETATM   20  C   UNL     1       4.375  37.408  63.675  1.00  0.00     0.049 C 
HETATM   21  C   UNL     1       3.978  35.407  65.115  1.00  0.00     0.007 A 
HETATM   22  C   UNL     1       4.174  34.079  65.474  1.00  0.00     0.003 A 
HETATM   23  C   UNL     1       5.053  33.285  64.742  1.00  0.00     0.030 A 
ENDBRANCH  12  16
ENDBRANCH  10  11
ENDBRANCH   9  10
ENDBRANCH   1   9
BRANCH   4  24
HETATM   24  C   UNL     1       6.244  27.028  55.462  1.00  0.00     0.130 C 
BRANCH  24  25
HETATM   25  N   UNL     1       6.973  26.583  54.285  1.00  0.00    -0.342 N 
HETATM   26  C   UNL     1       7.440  25.357  53.917  1.00  0.00     0.320 C 
HETATM   27  N   UNL     1       7.078  24.309  54.714  1.00  0.00    -0.309 N 
HETATM   28  O   UNL     1       8.145  25.302  52.914  1.00  0.00    -0.247 OA
HETATM   29  H   UNL     1       6.392  24.503  55.422  1.00  0.00     0.170 HD
HETATM   30  H   UNL     1       7.300  27.302  53.649  1.00  0.00     0.164 HD
BRANCH  27  31
HETATM   31  C   UNL     1       7.479  22.961  54.601  1.00  0.00     0.039 A 
HETATM   32  C   UNL     1       7.708  22.312  53.388  1.00  0.00     0.071 A 
HETATM   33  C   UNL     1       8.108  20.978  53.382  1.00  0.00     0.118 A 
HETATM   34  F   UNL     1       8.327  20.361  52.212  1.00  0.00    -0.206 F 
HETATM   35  C   UNL     1       8.290  20.271  54.565  1.00  0.00     0.042 A 
HETATM   36  C   UNL     1       8.069  20.910  55.779  1.00  0.00     0.005 A 
HETATM   37  C   UNL     1       7.667  22.248  55.797  1.00  0.00     0.030 A 
ENDBRANCH  27  31
ENDBRANCH  24  25
ENDBRANCH   4  24
TORSDOF 7
ENDMDL
MODEL 8
REMARK VINA RESULT:      -9.8      6.780     10.280
REMARK  7 active torsions:
REMARK  status: ('A' for Active; 'I' for Inactive)
REMARK    1  A    between atoms: C_5  and  N_6 
REMARK    2  A    between atoms: C_7  and  S_8 
REMARK    3  A    between atoms: S_8  and  C_9 
REMARK    4  A    between atoms: C_9  and  C_10 
REMARK       I    between atoms: C_10  and  N_11 
REMARK    5  A    between atoms: C_13  and  C_14 
REMARK    6  A    between atoms: C_14  and  N_15 
REMARK       I    between atoms: N_15  and  C_16 
REMARK       I    between atoms: C_16  and  N_17 
REMARK    7  A    between atoms: N_17  and  C_18 
ROOT
HETATM    1  C   UNL     1       5.389  28.049  52.874  1.00  0.00     0.229 C 
HETATM    2  N   UNL     1       5.392  28.290  54.254  1.00  0.00    -0.351 N 
HETATM    3  C   UNL     1       5.364  27.114  55.123  1.00  0.00     0.132 C 
HETATM    4  C   UNL     1       6.030  27.370  56.484  1.00  0.00     0.021 C 
HETATM    5  C   UNL     1       5.449  28.634  57.134  1.00  0.00     0.009 C 
HETATM    6  C   UNL     1       5.545  29.824  56.181  1.00  0.00     0.020 C 
HETATM    7  C   UNL     1       4.873  29.522  54.849  1.00  0.00     0.126 C 
HETATM    8  O   UNL     1       5.314  26.898  52.434  1.00  0.00    -0.273 OA
ENDROOT
BRANCH   1   9
HETATM    9  C   UNL     1       5.417  29.231  51.913  1.00  0.00     0.185 C 
BRANCH   9  10
HETATM   10  S   UNL     1       3.779  29.651  51.247  1.00  0.00    -0.082 SA
BRANCH  10  11
HETATM   11  C   UNL     1       4.190  30.390  49.730  1.00  0.00     0.173 A 
HETATM   12  N   UNL     1       3.873  29.853  48.489  1.00  0.00    -0.299 N 
HETATM   13  C   UNL     1       4.510  30.665  47.568  1.00  0.00     0.118 A 
HETATM   14  C   UNL     1       5.163  31.631  48.292  1.00  0.00     0.137 A 
HETATM   15  N   UNL     1       4.974  31.441  49.629  1.00  0.00    -0.235 NA
BRANCH  12  16
HETATM   16  C   UNL     1       3.008  28.770  48.156  1.00  0.00     0.047 A 
HETATM   17  C   UNL     1       3.464  27.427  48.146  1.00  0.00    -0.029 A 
HETATM   18  C   UNL     1       2.588  26.419  47.671  1.00  0.00    -0.054 A 
HETATM   19  C   UNL     1       4.829  27.032  48.660  1.00  0.00     0.051 C 
HETATM   20  C   UNL     1       2.999  24.971  47.597  1.00  0.00     0.049 C 
HETATM   21  C   UNL     1       1.275  26.753  47.299  1.00  0.00     0.007 A 
HETATM   22  C   UNL     1       0.830  28.068  47.354  1.00  0.00     0.003 A 
HETATM   23  C   UNL     1       1.694  29.077  47.768  1.00  0.00     0.030 A 
ENDBRANCH  12  16
ENDBRANCH  10  11
ENDBRANCH   9  10
ENDBRANCH   1   9
BRANCH   4  24
HETATM   24  C   UNL     1       5.876  26.123  57.366  1.00  0.00     0.130 C 
BRANCH  24  25
HETATM   25  N   UNL     1       7.143  25.454  57.615  1.00  0.00    -0.342 N 
HETATM   26  C   UNL     1       7.746  24.396  57.005  1.00  0.00     0.320 C 
HETATM   27  N   UNL     1       7.138  23.924  55.877  1.00  0.00    -0.309 N 
HETATM   28  O   UNL     1       8.770  23.958  57.519  1.00  0.00    -0.247 OA
HETATM   29  H   UNL     1       6.379  24.474  55.514  1.00  0.00     0.170 HD
HETATM   30  H   UNL     1       7.650  25.729  58.449  1.00  0.00     0.164 HD
BRANCH  27  31
HETATM   31  C   UNL     1       7.509  22.806  55.100  1.00  0.00     0.039 A 
HETATM   32  C   UNL     1       7.836  21.558  55.631  1.00  0.00     0.071 A 
HETATM   33  C   UNL     1       8.184  20.513  54.779  1.00  0.00     0.118 A 
HETATM   34  F   UNL     1       8.496  19.316  55.297  1.00  0.00    -0.206 F 
HETATM   35  C   UNL     1       8.212  20.682  53.400  1.00  0.00     0.042 A 
HETATM   36  C   UNL     1       7.885  21.921  52.860  1.00  0.00     0.005 A 
HETATM   37  C   UNL     1       7.533  22.976  53.706  1.00  0.00     0.030 A 
ENDBRANCH  27  31
ENDBRANCH  24  25
ENDBRANCH   4  24
TORSDOF 7
ENDMDL
MODEL 9
REMARK VINA RESULT:      -9.7      4.242     11.979
REMARK  7 active torsions:
REMARK  status: ('A' for Active; 'I' for Inactive)
REMARK    1  A    between atoms: C_5  and  N_6 
REMARK    2  A    between atoms: C_7  and  S_8 
REMARK    3  A    between atoms: S_8  and  C_9 
REMARK    4  A    between atoms: C_9  and  C_10 
REMARK       I    between atoms: C_10  and  N_11 
REMARK    5  A    between atoms: C_13  and  C_14 
REMARK    6  A    between atoms: C_14  and  N_15 
REMARK       I    between atoms: N_15  and  C_16 
REMARK       I    between atoms: C_16  and  N_17 
REMARK    7  A    between atoms: N_17  and  C_18 
ROOT
HETATM    1  C   UNL     1       4.148  31.734  59.132  1.00  0.00     0.229 C 
HETATM    2  N   UNL     1       5.025  31.002  58.322  1.00  0.00    -0.351 N 
HETATM    3  C   UNL     1       4.441  29.904  57.552  1.00  0.00     0.132 C 
HETATM    4  C   UNL     1       5.218  29.614  56.258  1.00  0.00     0.021 C 
HETATM    5  C   UNL     1       6.712  29.432  56.559  1.00  0.00     0.009 C 
HETATM    6  C   UNL     1       7.256  30.631  57.334  1.00  0.00     0.020 C 
HETATM    7  C   UNL     1       6.455  30.879  58.605  1.00  0.00     0.126 C 
HETATM    8  O   UNL     1       2.956  31.420  59.218  1.00  0.00    -0.273 OA
ENDROOT
BRANCH   1   9
HETATM    9  C   UNL     1       4.691  32.891  59.961  1.00  0.00     0.185 C 
BRANCH   9  10
HETATM   10  S   UNL     1       4.273  32.766  61.725  1.00  0.00    -0.082 SA
BRANCH  10  11
HETATM   11  C   UNL     1       5.839  32.562  62.448  1.00  0.00     0.173 A 
HETATM   12  N   UNL     1       6.486  33.536  63.198  1.00  0.00    -0.299 N 
HETATM   13  C   UNL     1       7.747  33.026  63.447  1.00  0.00     0.118 A 
HETATM   14  C   UNL     1       7.790  31.794  62.844  1.00  0.00     0.137 A 
HETATM   15  N   UNL     1       6.612  31.524  62.213  1.00  0.00    -0.235 NA
BRANCH  12  16
HETATM   16  C   UNL     1       5.989  34.766  63.719  1.00  0.00     0.047 A 
HETATM   17  C   UNL     1       5.277  34.825  64.945  1.00  0.00    -0.029 A 
HETATM   18  C   UNL     1       4.694  36.058  65.330  1.00  0.00    -0.054 A 
HETATM   19  C   UNL     1       5.155  33.634  65.867  1.00  0.00     0.051 C 
HETATM   20  C   UNL     1       3.895  36.203  66.600  1.00  0.00     0.049 C 
HETATM   21  C   UNL     1       4.896  37.203  64.542  1.00  0.00     0.007 A 
HETATM   22  C   UNL     1       5.632  37.139  63.364  1.00  0.00     0.003 A 
HETATM   23  C   UNL     1       6.167  35.925  62.945  1.00  0.00     0.030 A 
ENDBRANCH  12  16
ENDBRANCH  10  11
ENDBRANCH   9  10
ENDBRANCH   1   9
BRANCH   4  24
HETATM   24  C   UNL     1       4.599  28.394  55.560  1.00  0.00     0.130 C 
BRANCH  24  25
HETATM   25  N   UNL     1       4.508  27.236  56.434  1.00  0.00    -0.342 N 
HETATM   26  C   UNL     1       5.164  26.041  56.429  1.00  0.00     0.320 C 
HETATM   27  N   UNL     1       6.181  25.916  55.526  1.00  0.00    -0.309 N 
HETATM   28  O   UNL     1       4.784  25.187  57.223  1.00  0.00    -0.247 OA
HETATM   29  H   UNL     1       6.451  26.752  55.038  1.00  0.00     0.170 HD
HETATM   30  H   UNL     1       3.762  27.236  57.120  1.00  0.00     0.164 HD
BRANCH  27  31
HETATM   31  C   UNL     1       6.967  24.774  55.266  1.00  0.00     0.039 A 
HETATM   32  C   UNL     1       6.822  23.963  54.140  1.00  0.00     0.071 A 
HETATM   33  C   UNL     1       7.653  22.859  53.970  1.00  0.00     0.118 A 
HETATM   34  F   UNL     1       7.508  22.085  52.885  1.00  0.00    -0.206 F 
HETATM   35  C   UNL     1       8.636  22.543  54.901  1.00  0.00     0.042 A 
HETATM   36  C   UNL     1       8.792  23.346  56.025  1.00  0.00     0.005 A 
HETATM   37  C   UNL     1       7.963  24.457  56.205  1.00  0.00     0.030 A 
ENDBRANCH  27  31
ENDBRANCH  24  25
ENDBRANCH   4  24
TORSDOF 7
ENDMDL
MODEL 10
REMARK VINA RESULT:      -9.7      4.495     11.589
REMARK  7 active torsions:
REMARK  status: ('A' for Active; 'I' for Inactive)
REMARK    1  A    between atoms: C_5  and  N_6 
REMARK    2  A    between atoms: C_7  and  S_8 
REMARK    3  A    between atoms: S_8  and  C_9 
REMARK    4  A    between atoms: C_9  and  C_10 
REMARK       I    between atoms: C_10  and  N_11 
REMARK    5  A    between atoms: C_13  and  C_14 
REMARK    6  A    between atoms: C_14  and  N_15 
REMARK       I    between atoms: N_15  and  C_16 
REMARK       I    between atoms: C_16  and  N_17 
REMARK    7  A    between atoms: N_17  and  C_18 
ROOT
HETATM    1  C   UNL     1       5.109  30.228  57.277  1.00  0.00     0.229 C 
HETATM    2  N   UNL     1       6.193  29.421  56.906  1.00  0.00    -0.351 N 
HETATM    3  C   UNL     1       6.068  28.698  55.642  1.00  0.00     0.132 C 
HETATM    4  C   UNL     1       7.429  28.420  54.984  1.00  0.00     0.021 C 
HETATM    5  C   UNL     1       8.381  27.753  55.986  1.00  0.00     0.009 C 
HETATM    6  C   UNL     1       8.486  28.583  57.265  1.00  0.00     0.020 C 
HETATM    7  C   UNL     1       7.115  28.832  57.878  1.00  0.00     0.126 C 
HETATM    8  O   UNL     1       4.089  30.272  56.582  1.00  0.00    -0.273 OA
ENDROOT
BRANCH   1   9
HETATM    9  C   UNL     1       5.175  31.008  58.583  1.00  0.00     0.185 C 
BRANCH   9  10
HETATM   10  S   UNL     1       3.540  31.501  59.206  1.00  0.00    -0.082 SA
BRANCH  10  11
HETATM   11  C   UNL     1       3.632  33.233  59.115  1.00  0.00     0.173 A 
HETATM   12  N   UNL     1       4.177  34.038  60.107  1.00  0.00    -0.299 N 
HETATM   13  C   UNL     1       3.912  35.336  59.708  1.00  0.00     0.118 A 
HETATM   14  C   UNL     1       3.235  35.242  58.518  1.00  0.00     0.137 A 
HETATM   15  N   UNL     1       3.050  33.937  58.169  1.00  0.00    -0.235 NA
BRANCH  12  16
HETATM   16  C   UNL     1       4.941  33.682  61.256  1.00  0.00     0.047 A 
HETATM   17  C   UNL     1       4.393  33.733  62.563  1.00  0.00    -0.029 A 
HETATM   18  C   UNL     1       5.251  33.499  63.666  1.00  0.00    -0.054 A 
HETATM   19  C   UNL     1       2.925  33.986  62.814  1.00  0.00     0.051 C 
HETATM   20  C   UNL     1       4.760  33.563  65.090  1.00  0.00     0.049 C 
HETATM   21  C   UNL     1       6.592  33.148  63.446  1.00  0.00     0.007 A 
HETATM   22  C   UNL     1       7.106  33.061  62.157  1.00  0.00     0.003 A 
HETATM   23  C   UNL     1       6.290  33.338  61.064  1.00  0.00     0.030 A 
ENDBRANCH  12  16
ENDBRANCH  10  11
ENDBRANCH   9  10
ENDBRANCH   1   9
BRANCH   4  24
HETATM   24  C   UNL     1       7.216  27.581  53.716  1.00  0.00     0.130 C 
BRANCH  24  25
HETATM   25  N   UNL     1       6.105  26.652  53.840  1.00  0.00    -0.342 N 
HETATM   26  C   UNL     1       6.065  25.295  53.958  1.00  0.00     0.320 C 
HETATM   27  N   UNL     1       7.269  24.667  54.109  1.00  0.00    -0.309 N 
HETATM   28  O   UNL     1       4.963  24.758  53.913  1.00  0.00    -0.247 OA
HETATM   29  H   UNL     1       8.067  25.260  54.256  1.00  0.00     0.170 HD
HETATM   30  H   UNL     1       5.173  27.032  53.718  1.00  0.00     0.164 HD
BRANCH  27  31
HETATM   31  C   UNL     1       7.515  23.280  54.181  1.00  0.00     0.039 A 
HETATM   32  C   UNL     1       7.776  22.473  53.074  1.00  0.00     0.071 A 
HETATM   33  C   UNL     1       8.014  21.112  53.250  1.00  0.00     0.118 A 
HETATM   34  F   UNL     1       8.266  20.343  52.181  1.00  0.00    -0.206 F 
HETATM   35  C   UNL     1       8.000  20.532  54.513  1.00  0.00     0.042 A 
HETATM   36  C   UNL     1       7.744  21.328  55.624  1.00  0.00     0.005 A 
HETATM   37  C   UNL     1       7.504  22.695  55.458  1.00  0.00     0.030 A 
ENDBRANCH  27  31
ENDBRANCH  24  25
ENDBRANCH   4  24
TORSDOF 7
ENDMDL
