MODEL 1
REMARK VINA RESULT:      -8.9      0.000      0.000
REMARK  3 active torsions:
REMARK  status: ('A' for Active; 'I' for Inactive)
REMARK    1  A    between atoms: C_11  and  N_12 
REMARK       I    between atoms: N_12  and  C_13 
REMARK    2  A    between atoms: C_13  and  C_14 
REMARK    3  A    between atoms: C_18  and  C_19 
ROOT
HETATM    1  N   UNL     1       3.834  27.597  50.496  1.00  0.00    -0.351 N 
HETATM    2  C   UNL     1       4.207  27.467  51.825  1.00  0.00     0.272 C 
HETATM    3  O   UNL     1       3.715  28.124  52.734  1.00  0.00    -0.266 OA
HETATM    4  H   UNL     1       4.517  27.139  49.889  1.00  0.00     0.163 HD
ENDROOT
BRANCH   1   5
HETATM    5  C   UNL     1       3.023  28.691  50.003  1.00  0.00     0.089 C 
HETATM    6  C   UNL     1       1.743  28.266  49.270  1.00  0.00     0.063 C 
HETATM    7  C   UNL     1       1.962  27.643  47.888  1.00  0.00     0.121 C 
HETATM    8  N   UNL     1       2.884  28.530  47.073  1.00  0.00    -0.059 N 
HETATM    9  C   UNL     1       2.497  26.207  47.919  1.00  0.00     0.046 C 
HETATM   10  C   UNL     1       0.619  27.616  47.128  1.00  0.00     0.046 C 
HETATM   11  C   UNL     1       4.132  29.117  47.696  1.00  0.00     0.121 C 
HETATM   12  H   UNL     1       2.313  29.318  46.736  1.00  0.00     0.279 HD
HETATM   13  H   UNL     1       3.146  28.025  46.214  1.00  0.00     0.279 HD
HETATM   14  C   UNL     1       5.277  28.099  47.642  1.00  0.00     0.046 C 
HETATM   15  C   UNL     1       4.535  30.307  46.799  1.00  0.00     0.046 C 
HETATM   16  C   UNL     1       3.830  29.638  49.112  1.00  0.00     0.063 C 
ENDBRANCH   1   5
BRANCH   2  17
HETATM   17  C   UNL     1       5.250  26.452  52.022  1.00  0.00     0.146 A 
HETATM   18  N   UNL     1       6.282  26.333  51.161  1.00  0.00    -0.169 NA
HETATM   19  N   UNL     1       6.999  25.309  51.667  1.00  0.00    -0.277 N 
HETATM   20  H   UNL     1       7.828  25.007  51.167  1.00  0.00     0.189 HD
HETATM   21  C   UNL     1       6.490  24.775  52.824  1.00  0.00     0.063 A 
HETATM   22  C   UNL     1       5.341  25.502  53.065  1.00  0.00     0.071 A 
BRANCH  21  23
HETATM   23  C   UNL     1       7.105  23.661  53.547  1.00  0.00    -0.008 A 
HETATM   24  C   UNL     1       7.068  23.588  54.947  1.00  0.00     0.014 A 
HETATM   25  C   UNL     1       7.661  22.517  55.623  1.00  0.00     0.001 A 
HETATM   26  C   UNL     1       8.295  21.505  54.909  1.00  0.00     0.000 A 
HETATM   27  C   UNL     1       8.336  21.560  53.518  1.00  0.00     0.001 A 
HETATM   28  C   UNL     1       7.744  22.630  52.843  1.00  0.00     0.014 A 
ENDBRANCH  21  23
ENDBRANCH   2  17
TORSDOF 3
ENDMDL
MODEL 2
REMARK VINA RESULT:      -8.7      4.661      6.831
REMARK  3 active torsions:
REMARK  status: ('A' for Active; 'I' for Inactive)
REMARK    1  A    between atoms: C_11  and  N_12 
REMARK       I    between atoms: N_12  and  C_13 
REMARK    2  A    between atoms: C_13  and  C_14 
REMARK    3  A    between atoms: C_18  and  C_19 
ROOT
HETATM    1  N   UNL     1       7.219  27.985  54.768  1.00  0.00    -0.351 N 
HETATM    2  C   UNL     1       6.748  27.548  53.539  1.00  0.00     0.272 C 
HETATM    3  O   UNL     1       6.399  28.303  52.640  1.00  0.00    -0.266 OA
HETATM    4  H   UNL     1       7.230  27.214  55.439  1.00  0.00     0.163 HD
ENDROOT
BRANCH   1   5
HETATM    5  C   UNL     1       7.103  29.356  55.220  1.00  0.00     0.089 C 
HETATM    6  C   UNL     1       7.953  29.705  56.449  1.00  0.00     0.063 C 
HETATM    7  C   UNL     1       7.467  29.098  57.769  1.00  0.00     0.121 C 
HETATM    8  N   UNL     1       5.985  29.373  57.936  1.00  0.00    -0.059 N 
HETATM    9  C   UNL     1       7.751  27.600  57.919  1.00  0.00     0.046 C 
HETATM   10  C   UNL     1       8.166  29.818  58.942  1.00  0.00     0.046 C 
HETATM   11  C   UNL     1       5.033  29.181  56.775  1.00  0.00     0.121 C 
HETATM   12  H   UNL     1       5.899  30.353  58.241  1.00  0.00     0.279 HD
HETATM   13  H   UNL     1       5.642  28.829  58.741  1.00  0.00     0.279 HD
HETATM   14  C   UNL     1       4.616  27.709  56.673  1.00  0.00     0.046 C 
HETATM   15  C   UNL     1       3.767  29.992  57.126  1.00  0.00     0.046 C 
HETATM   16  C   UNL     1       5.645  29.745  55.482  1.00  0.00     0.063 C 
ENDBRANCH   1   5
BRANCH   2  17
HETATM   17  C   UNL     1       6.724  26.084  53.432  1.00  0.00     0.146 A 
HETATM   18  N   UNL     1       5.852  25.457  52.615  1.00  0.00    -0.169 NA
HETATM   19  N   UNL     1       6.130  24.150  52.801  1.00  0.00    -0.277 N 
HETATM   20  H   UNL     1       5.574  23.463  52.303  1.00  0.00     0.189 HD
HETATM   21  C   UNL     1       7.153  23.905  53.682  1.00  0.00     0.063 A 
HETATM   22  C   UNL     1       7.546  25.156  54.114  1.00  0.00     0.071 A 
BRANCH  21  23
HETATM   23  C   UNL     1       7.624  22.564  54.032  1.00  0.00    -0.008 A 
HETATM   24  C   UNL     1       7.665  22.127  55.364  1.00  0.00     0.014 A 
HETATM   25  C   UNL     1       8.120  20.843  55.682  1.00  0.00     0.001 A 
HETATM   26  C   UNL     1       8.535  19.980  54.673  1.00  0.00     0.000 A 
HETATM   27  C   UNL     1       8.496  20.397  53.345  1.00  0.00     0.001 A 
HETATM   28  C   UNL     1       8.043  21.679  53.027  1.00  0.00     0.014 A 
ENDBRANCH  21  23
ENDBRANCH   2  17
TORSDOF 3
ENDMDL
MODEL 3
REMARK VINA RESULT:      -8.5      7.076      9.046
REMARK  3 active torsions:
REMARK  status: ('A' for Active; 'I' for Inactive)
REMARK    1  A    between atoms: C_11  and  N_12 
REMARK       I    between atoms: N_12  and  C_13 
REMARK    2  A    between atoms: C_13  and  C_14 
REMARK    3  A    between atoms: C_18  and  C_19 
ROOT
HETATM    1  N   UNL     1       7.923  28.841  55.356  1.00  0.00    -0.351 N 
HETATM    2  C   UNL     1       9.195  29.377  55.482  1.00  0.00     0.272 C 
HETATM    3  O   UNL     1      10.047  29.315  54.604  1.00  0.00    -0.266 OA
HETATM    4  H   UNL     1       7.465  28.796  56.269  1.00  0.00     0.163 HD
ENDROOT
BRANCH   1   5
HETATM    5  C   UNL     1       7.548  27.931  54.295  1.00  0.00     0.089 C 
HETATM    6  C   UNL     1       6.246  28.291  53.566  1.00  0.00     0.063 C 
HETATM    7  C   UNL     1       4.965  28.069  54.376  1.00  0.00     0.121 C 
HETATM    8  N   UNL     1       4.981  26.676  54.976  1.00  0.00    -0.059 N 
HETATM    9  C   UNL     1       4.719  29.116  55.468  1.00  0.00     0.046 C 
HETATM   10  C   UNL     1       3.753  28.106  53.423  1.00  0.00     0.046 C 
HETATM   11  C   UNL     1       6.234  26.138  55.633  1.00  0.00     0.121 C 
HETATM   12  H   UNL     1       4.731  26.025  54.219  1.00  0.00     0.279 HD
HETATM   13  H   UNL     1       4.197  26.600  55.641  1.00  0.00     0.279 HD
HETATM   14  C   UNL     1       6.319  26.623  57.085  1.00  0.00     0.046 C 
HETATM   15  C   UNL     1       6.066  24.604  55.673  1.00  0.00     0.046 C 
HETATM   16  C   UNL     1       7.472  26.483  54.788  1.00  0.00     0.063 C 
ENDBRANCH   1   5
BRANCH   2  17
HETATM   17  C   UNL     1       9.406  30.033  56.779  1.00  0.00     0.146 A 
HETATM   18  N   UNL     1      10.572  30.646  57.073  1.00  0.00    -0.169 NA
HETATM   19  N   UNL     1      10.380  31.104  58.326  1.00  0.00    -0.277 N 
HETATM   20  H   UNL     1      11.145  31.588  58.785  1.00  0.00     0.189 HD
HETATM   21  C   UNL     1       9.140  30.835  58.848  1.00  0.00     0.063 A 
HETATM   22  C   UNL     1       8.493  30.126  57.856  1.00  0.00     0.071 A 
BRANCH  21  23
HETATM   23  C   UNL     1       8.714  31.241  60.188  1.00  0.00    -0.008 A 
HETATM   24  C   UNL     1       7.953  32.401  60.395  1.00  0.00     0.014 A 
HETATM   25  C   UNL     1       7.555  32.775  61.682  1.00  0.00     0.001 A 
HETATM   26  C   UNL     1       7.908  31.994  62.777  1.00  0.00     0.000 A 
HETATM   27  C   UNL     1       8.658  30.836  62.589  1.00  0.00     0.001 A 
HETATM   28  C   UNL     1       9.057  30.462  61.303  1.00  0.00     0.014 A 
ENDBRANCH  21  23
ENDBRANCH   2  17
TORSDOF 3
ENDMDL
MODEL 4
REMARK VINA RESULT:      -8.3      7.480      9.381
REMARK  3 active torsions:
REMARK  status: ('A' for Active; 'I' for Inactive)
REMARK    1  A    between atoms: C_11  and  N_12 
REMARK       I    between atoms: N_12  and  C_13 
REMARK    2  A    between atoms: C_13  and  C_14 
REMARK    3  A    between atoms: C_18  and  C_19 
ROOT
HETATM    1  N   UNL     1       7.191  29.113  55.659  1.00  0.00    -0.351 N 
HETATM    2  C   UNL     1       8.124  29.455  56.626  1.00  0.00     0.272 C 
HETATM    3  O   UNL     1       9.310  29.155  56.558  1.00  0.00    -0.266 OA
HETATM    4  H   UNL     1       6.243  29.251  56.017  1.00  0.00     0.163 HD
ENDROOT
BRANCH   1   5
HETATM    5  C   UNL     1       7.452  28.152  54.609  1.00  0.00     0.089 C 
HETATM    6  C   UNL     1       6.499  28.232  53.409  1.00  0.00     0.063 C 
HETATM    7  C   UNL     1       5.074  27.737  53.677  1.00  0.00     0.121 C 
HETATM    8  N   UNL     1       5.128  26.376  54.343  1.00  0.00    -0.059 N 
HETATM    9  C   UNL     1       4.216  28.700  54.504  1.00  0.00     0.046 C 
HETATM   10  C   UNL     1       4.353  27.522  52.329  1.00  0.00     0.046 C 
HETATM   11  C   UNL     1       6.101  26.111  55.472  1.00  0.00     0.121 C 
HETATM   12  H   UNL     1       5.331  25.692  53.600  1.00  0.00     0.279 HD
HETATM   13  H   UNL     1       4.178  26.130  54.657  1.00  0.00     0.279 HD
HETATM   14  C   UNL     1       5.510  26.594  56.801  1.00  0.00     0.046 C 
HETATM   15  C   UNL     1       6.238  24.576  55.562  1.00  0.00     0.046 C 
HETATM   16  C   UNL     1       7.476  26.718  55.146  1.00  0.00     0.063 C 
ENDBRANCH   1   5
BRANCH   2  17
HETATM   17  C   UNL     1       7.537  30.221  57.732  1.00  0.00     0.146 A 
HETATM   18  N   UNL     1       6.256  30.643  57.689  1.00  0.00    -0.169 NA
HETATM   19  N   UNL     1       6.101  31.301  58.855  1.00  0.00    -0.277 N 
HETATM   20  H   UNL     1       5.207  31.743  59.045  1.00  0.00     0.189 HD
HETATM   21  C   UNL     1       7.213  31.307  59.658  1.00  0.00     0.063 A 
HETATM   22  C   UNL     1       8.166  30.616  58.937  1.00  0.00     0.071 A 
BRANCH  21  23
HETATM   23  C   UNL     1       7.270  31.958  60.968  1.00  0.00    -0.008 A 
HETATM   24  C   UNL     1       8.193  31.557  61.946  1.00  0.00     0.014 A 
HETATM   25  C   UNL     1       8.234  32.189  63.192  1.00  0.00     0.001 A 
HETATM   26  C   UNL     1       7.356  33.231  63.477  1.00  0.00     0.000 A 
HETATM   27  C   UNL     1       6.438  33.645  62.516  1.00  0.00     0.001 A 
HETATM   28  C   UNL     1       6.397  33.013  61.270  1.00  0.00     0.014 A 
ENDBRANCH  21  23
ENDBRANCH   2  17
TORSDOF 3
ENDMDL
MODEL 5
REMARK VINA RESULT:      -7.8      1.917      2.957
REMARK  3 active torsions:
REMARK  status: ('A' for Active; 'I' for Inactive)
REMARK    1  A    between atoms: C_11  and  N_12 
REMARK       I    between atoms: N_12  and  C_13 
REMARK    2  A    between atoms: C_13  and  C_14 
REMARK    3  A    between atoms: C_18  and  C_19 
ROOT
HETATM    1  N   UNL     1       3.827  27.906  50.526  1.00  0.00    -0.351 N 
HETATM    2  C   UNL     1       4.656  26.824  50.268  1.00  0.00     0.272 C 
HETATM    3  O   UNL     1       4.890  26.403  49.142  1.00  0.00    -0.266 OA
HETATM    4  H   UNL     1       3.587  27.940  51.519  1.00  0.00     0.163 HD
ENDROOT
BRANCH   1   5
HETATM    5  C   UNL     1       2.950  28.486  49.531  1.00  0.00     0.089 C 
HETATM    6  C   UNL     1       3.666  29.185  48.368  1.00  0.00     0.063 C 
HETATM    7  C   UNL     1       4.342  30.512  48.725  1.00  0.00     0.121 C 
HETATM    8  N   UNL     1       3.363  31.393  49.476  1.00  0.00    -0.059 N 
HETATM    9  C   UNL     1       5.643  30.365  49.521  1.00  0.00     0.046 C 
HETATM   10  C   UNL     1       4.683  31.270  47.424  1.00  0.00     0.046 C 
HETATM   11  C   UNL     1       2.502  30.817  50.580  1.00  0.00     0.121 C 
HETATM   12  H   UNL     1       2.727  31.794  48.772  1.00  0.00     0.279 HD
HETATM   13  H   UNL     1       3.875  32.209  49.844  1.00  0.00     0.279 HD
HETATM   14  C   UNL     1       3.285  30.787  51.897  1.00  0.00     0.046 C 
HETATM   15  C   UNL     1       1.332  31.806  50.765  1.00  0.00     0.046 C 
HETATM   16  C   UNL     1       1.938  29.449  50.160  1.00  0.00     0.063 C 
ENDBRANCH   1   5
BRANCH   2  17
HETATM   17  C   UNL     1       5.226  26.246  51.492  1.00  0.00     0.146 A 
HETATM   18  N   UNL     1       4.806  26.638  52.713  1.00  0.00    -0.169 NA
HETATM   19  N   UNL     1       5.557  25.903  53.557  1.00  0.00    -0.277 N 
HETATM   20  H   UNL     1       5.440  26.044  54.555  1.00  0.00     0.189 HD
HETATM   21  C   UNL     1       6.427  25.039  52.940  1.00  0.00     0.063 A 
HETATM   22  C   UNL     1       6.233  25.257  51.590  1.00  0.00     0.071 A 
BRANCH  21  23
HETATM   23  C   UNL     1       7.335  24.144  53.659  1.00  0.00    -0.008 A 
HETATM   24  C   UNL     1       7.649  24.351  55.010  1.00  0.00     0.014 A 
HETATM   25  C   UNL     1       8.519  23.486  55.682  1.00  0.00     0.001 A 
HETATM   26  C   UNL     1       9.083  22.404  55.013  1.00  0.00     0.000 A 
HETATM   27  C   UNL     1       8.778  22.182  53.674  1.00  0.00     0.001 A 
HETATM   28  C   UNL     1       7.908  23.045  53.002  1.00  0.00     0.014 A 
ENDBRANCH  21  23
ENDBRANCH   2  17
TORSDOF 3
ENDMDL
MODEL 6
REMARK VINA RESULT:      -7.8      5.970      8.732
REMARK  3 active torsions:
REMARK  status: ('A' for Active; 'I' for Inactive)
REMARK    1  A    between atoms: C_11  and  N_12 
REMARK       I    between atoms: N_12  and  C_13 
REMARK    2  A    between atoms: C_13  and  C_14 
REMARK    3  A    between atoms: C_18  and  C_19 
ROOT
HETATM    1  N   UNL     1       5.532  26.843  56.136  1.00  0.00    -0.351 N 
HETATM    2  C   UNL     1       4.930  28.022  55.723  1.00  0.00     0.272 C 
HETATM    3  O   UNL     1       4.050  28.071  54.873  1.00  0.00    -0.266 OA
HETATM    4  H   UNL     1       6.382  27.046  56.666  1.00  0.00     0.163 HD
ENDROOT
BRANCH   1   5
HETATM    5  C   UNL     1       5.382  25.587  55.431  1.00  0.00     0.089 C 
HETATM    6  C   UNL     1       6.109  24.397  56.072  1.00  0.00     0.063 C 
HETATM    7  C   UNL     1       7.636  24.425  55.949  1.00  0.00     0.121 C 
HETATM    8  N   UNL     1       8.022  24.691  54.506  1.00  0.00    -0.059 N 
HETATM    9  C   UNL     1       8.326  25.429  56.878  1.00  0.00     0.046 C 
HETATM   10  C   UNL     1       8.195  23.027  56.286  1.00  0.00     0.046 C 
HETATM   11  C   UNL     1       7.313  25.763  53.707  1.00  0.00     0.121 C 
HETATM   12  H   UNL     1       7.899  23.803  53.999  1.00  0.00     0.279 HD
HETATM   13  H   UNL     1       9.037  24.863  54.468  1.00  0.00     0.279 HD
HETATM   14  C   UNL     1       7.939  27.133  53.991  1.00  0.00     0.046 C 
HETATM   15  C   UNL     1       7.584  25.434  52.223  1.00  0.00     0.046 C 
HETATM   16  C   UNL     1       5.797  25.707  53.962  1.00  0.00     0.063 C 
ENDBRANCH   1   5
BRANCH   2  17
HETATM   17  C   UNL     1       5.456  29.200  56.424  1.00  0.00     0.146 A 
HETATM   18  N   UNL     1       5.029  30.444  56.119  1.00  0.00    -0.169 NA
HETATM   19  N   UNL     1       5.738  31.233  56.952  1.00  0.00    -0.277 N 
HETATM   20  H   UNL     1       5.608  32.237  56.891  1.00  0.00     0.189 HD
HETATM   21  C   UNL     1       6.585  30.558  57.794  1.00  0.00     0.063 A 
HETATM   22  C   UNL     1       6.423  29.229  57.456  1.00  0.00     0.071 A 
BRANCH  21  23
HETATM   23  C   UNL     1       7.446  31.211  58.781  1.00  0.00    -0.008 A 
HETATM   24  C   UNL     1       8.844  31.177  58.670  1.00  0.00     0.014 A 
HETATM   25  C   UNL     1       9.652  31.805  59.623  1.00  0.00     0.001 A 
HETATM   26  C   UNL     1       9.074  32.478  60.695  1.00  0.00     0.000 A 
HETATM   27  C   UNL     1       7.688  32.525  60.817  1.00  0.00     0.001 A 
HETATM   28  C   UNL     1       6.880  31.897  59.866  1.00  0.00     0.014 A 
ENDBRANCH  21  23
ENDBRANCH   2  17
TORSDOF 3
ENDMDL
MODEL 7
REMARK VINA RESULT:      -7.4      2.376      8.352
REMARK  3 active torsions:
REMARK  status: ('A' for Active; 'I' for Inactive)
REMARK    1  A    between atoms: C_11  and  N_12 
REMARK       I    between atoms: N_12  and  C_13 
REMARK    2  A    between atoms: C_13  and  C_14 
REMARK    3  A    between atoms: C_18  and  C_19 
ROOT
HETATM    1  N   UNL     1       5.192  26.740  52.567  1.00  0.00    -0.351 N 
HETATM    2  C   UNL     1       4.297  27.788  52.415  1.00  0.00     0.272 C 
HETATM    3  O   UNL     1       3.465  28.096  53.259  1.00  0.00    -0.266 OA
HETATM    4  H   UNL     1       5.626  26.511  51.670  1.00  0.00     0.163 HD
ENDROOT
BRANCH   1   5
HETATM    5  C   UNL     1       5.073  25.741  53.608  1.00  0.00     0.089 C 
HETATM    6  C   UNL     1       5.607  26.172  54.981  1.00  0.00     0.063 C 
HETATM    7  C   UNL     1       7.132  26.274  55.082  1.00  0.00     0.121 C 
HETATM    8  N   UNL     1       7.761  25.007  54.537  1.00  0.00    -0.059 N 
HETATM    9  C   UNL     1       7.730  27.504  54.391  1.00  0.00     0.046 C 
HETATM   10  C   UNL     1       7.535  26.341  56.570  1.00  0.00     0.046 C 
HETATM   11  C   UNL     1       7.263  24.397  53.244  1.00  0.00     0.121 C 
HETATM   12  H   UNL     1       7.663  24.289  55.269  1.00  0.00     0.279 HD
HETATM   13  H   UNL     1       8.779  25.153  54.465  1.00  0.00     0.279 HD
HETATM   14  C   UNL     1       7.926  25.086  52.046  1.00  0.00     0.046 C 
HETATM   15  C   UNL     1       7.745  22.930  53.253  1.00  0.00     0.046 C 
HETATM   16  C   UNL     1       5.725  24.416  53.201  1.00  0.00     0.063 C 
ENDBRANCH   1   5
BRANCH   2  17
HETATM   17  C   UNL     1       4.462  28.490  51.136  1.00  0.00     0.146 A 
HETATM   18  N   UNL     1       4.126  27.904  49.967  1.00  0.00    -0.169 NA
HETATM   19  N   UNL     1       4.427  28.841  49.046  1.00  0.00    -0.277 N 
HETATM   20  H   UNL     1       4.284  28.619  48.067  1.00  0.00     0.189 HD
HETATM   21  C   UNL     1       4.921  30.012  49.565  1.00  0.00     0.063 A 
HETATM   22  C   UNL     1       4.963  29.797  50.928  1.00  0.00     0.071 A 
BRANCH  21  23
HETATM   23  C   UNL     1       5.311  31.164  48.751  1.00  0.00    -0.008 A 
HETATM   24  C   UNL     1       6.256  32.096  49.206  1.00  0.00     0.014 A 
HETATM   25  C   UNL     1       6.616  33.192  48.417  1.00  0.00     0.001 A 
HETATM   26  C   UNL     1       6.040  33.370  47.162  1.00  0.00     0.000 A 
HETATM   27  C   UNL     1       5.105  32.451  46.694  1.00  0.00     0.001 A 
HETATM   28  C   UNL     1       4.744  31.356  47.482  1.00  0.00     0.014 A 
ENDBRANCH  21  23
ENDBRANCH   2  17
TORSDOF 3
ENDMDL
MODEL 8
REMARK VINA RESULT:      -7.4      1.795      2.202
REMARK  3 active torsions:
REMARK  status: ('A' for Active; 'I' for Inactive)
REMARK    1  A    between atoms: C_11  and  N_12 
REMARK       I    between atoms: N_12  and  C_13 
REMARK    2  A    between atoms: C_13  and  C_14 
REMARK    3  A    between atoms: C_18  and  C_19 
ROOT
HETATM    1  N   UNL     1       4.529  28.825  51.957  1.00  0.00    -0.351 N 
HETATM    2  C   UNL     1       5.067  28.396  53.161  1.00  0.00     0.272 C 
HETATM    3  O   UNL     1       5.302  29.143  54.103  1.00  0.00    -0.266 OA
HETATM    4  H   UNL     1       4.632  28.100  51.244  1.00  0.00     0.163 HD
ENDROOT
BRANCH   1   5
HETATM    5  C   UNL     1       4.433  30.221  51.585  1.00  0.00     0.089 C 
HETATM    6  C   UNL     1       3.003  30.779  51.539  1.00  0.00     0.063 C 
HETATM    7  C   UNL     1       2.149  30.280  50.369  1.00  0.00     0.121 C 
HETATM    8  N   UNL     1       2.922  30.435  49.075  1.00  0.00    -0.059 N 
HETATM    9  C   UNL     1       1.649  28.839  50.521  1.00  0.00     0.046 C 
HETATM   10  C   UNL     1       0.906  31.185  50.232  1.00  0.00     0.046 C 
HETATM   11  C   UNL     1       4.379  30.031  48.998  1.00  0.00     0.121 C 
HETATM   12  H   UNL     1       2.869  31.431  48.816  1.00  0.00     0.279 HD
HETATM   13  H   UNL     1       2.403  29.955  48.326  1.00  0.00     0.279 HD
HETATM   14  C   UNL     1       4.495  28.525  48.734  1.00  0.00     0.046 C 
HETATM   15  C   UNL     1       4.956  30.757  47.763  1.00  0.00     0.046 C 
HETATM   16  C   UNL     1       5.133  30.502  50.253  1.00  0.00     0.063 C 
ENDBRANCH   1   5
BRANCH   2  17
HETATM   17  C   UNL     1       5.315  26.949  53.185  1.00  0.00     0.146 A 
HETATM   18  N   UNL     1       4.458  26.083  52.603  1.00  0.00    -0.169 NA
HETATM   19  N   UNL     1       5.016  24.879  52.843  1.00  0.00    -0.277 N 
HETATM   20  H   UNL     1       4.530  24.049  52.519  1.00  0.00     0.189 HD
HETATM   21  C   UNL     1       6.202  24.927  53.532  1.00  0.00     0.063 A 
HETATM   22  C   UNL     1       6.407  26.271  53.774  1.00  0.00     0.071 A 
BRANCH  21  23
HETATM   23  C   UNL     1       6.981  23.743  53.898  1.00  0.00    -0.008 A 
HETATM   24  C   UNL     1       7.123  23.345  55.235  1.00  0.00     0.014 A 
HETATM   25  C   UNL     1       7.872  22.212  55.568  1.00  0.00     0.001 A 
HETATM   26  C   UNL     1       8.486  21.462  54.570  1.00  0.00     0.000 A 
HETATM   27  C   UNL     1       8.352  21.842  53.237  1.00  0.00     0.001 A 
HETATM   28  C   UNL     1       7.603  22.974  52.904  1.00  0.00     0.014 A 
ENDBRANCH  21  23
ENDBRANCH   2  17
TORSDOF 3
ENDMDL
MODEL 9
REMARK VINA RESULT:      -7.3      3.496      8.167
REMARK  3 active torsions:
REMARK  status: ('A' for Active; 'I' for Inactive)
REMARK    1  A    between atoms: C_11  and  N_12 
REMARK       I    between atoms: N_12  and  C_13 
REMARK    2  A    between atoms: C_13  and  C_14 
REMARK    3  A    between atoms: C_18  and  C_19 
ROOT
HETATM    1  N   UNL     1       5.807  28.928  54.414  1.00  0.00    -0.351 N 
HETATM    2  C   UNL     1       4.785  29.510  53.679  1.00  0.00     0.272 C 
HETATM    3  O   UNL     1       3.978  30.303  54.149  1.00  0.00    -0.266 OA
HETATM    4  H   UNL     1       6.206  28.139  53.903  1.00  0.00     0.163 HD
ENDROOT
BRANCH   1   5
HETATM    5  C   UNL     1       5.875  28.986  55.859  1.00  0.00     0.089 C 
HETATM    6  C   UNL     1       7.120  29.687  56.419  1.00  0.00     0.063 C 
HETATM    7  C   UNL     1       8.430  28.908  56.264  1.00  0.00     0.121 C 
HETATM    8  N   UNL     1       8.236  27.488  56.761  1.00  0.00    -0.059 N 
HETATM    9  C   UNL     1       8.996  28.900  54.840  1.00  0.00     0.046 C 
HETATM   10  C   UNL     1       9.501  29.535  57.181  1.00  0.00     0.046 C 
HETATM   11  C   UNL     1       6.997  26.705  56.383  1.00  0.00     0.121 C 
HETATM   12  H   UNL     1       8.267  27.529  57.790  1.00  0.00     0.279 HD
HETATM   13  H   UNL     1       9.069  26.938  56.507  1.00  0.00     0.279 HD
HETATM   14  C   UNL     1       7.182  26.059  55.005  1.00  0.00     0.046 C 
HETATM   15  C   UNL     1       6.886  25.561  57.414  1.00  0.00     0.046 C 
HETATM   16  C   UNL     1       5.747  27.596  56.488  1.00  0.00     0.063 C 
ENDBRANCH   1   5
BRANCH   2  17
HETATM   17  C   UNL     1       4.782  29.077  52.276  1.00  0.00     0.146 A 
HETATM   18  N   UNL     1       5.803  29.383  51.447  1.00  0.00    -0.169 NA
HETATM   19  N   UNL     1       5.433  28.831  50.274  1.00  0.00    -0.277 N 
HETATM   20  H   UNL     1       6.041  28.953  49.471  1.00  0.00     0.189 HD
HETATM   21  C   UNL     1       4.234  28.166  50.310  1.00  0.00     0.063 A 
HETATM   22  C   UNL     1       3.788  28.325  51.607  1.00  0.00     0.071 A 
BRANCH  21  23
HETATM   23  C   UNL     1       3.640  27.489  49.155  1.00  0.00    -0.008 A 
HETATM   24  C   UNL     1       4.000  26.178  48.811  1.00  0.00     0.014 A 
HETATM   25  C   UNL     1       3.424  25.547  47.704  1.00  0.00     0.001 A 
HETATM   26  C   UNL     1       2.481  26.216  46.930  1.00  0.00     0.000 A 
HETATM   27  C   UNL     1       2.110  27.516  47.261  1.00  0.00     0.001 A 
HETATM   28  C   UNL     1       2.685  28.148  48.367  1.00  0.00     0.014 A 
ENDBRANCH  21  23
ENDBRANCH   2  17
TORSDOF 3
ENDMDL
MODEL 10
REMARK VINA RESULT:      -7.2      2.876      4.218
REMARK  3 active torsions:
REMARK  status: ('A' for Active; 'I' for Inactive)
REMARK    1  A    between atoms: C_11  and  N_12 
REMARK       I    between atoms: N_12  and  C_13 
REMARK    2  A    between atoms: C_13  and  C_14 
REMARK    3  A    between atoms: C_18  and  C_19 
ROOT
HETATM    1  N   UNL     1       5.411  27.539  49.877  1.00  0.00    -0.351 N 
HETATM    2  C   UNL     1       5.301  26.378  50.628  1.00  0.00     0.272 C 
HETATM    3  O   UNL     1       4.564  25.446  50.330  1.00  0.00    -0.266 OA
HETATM    4  H   UNL     1       5.889  28.265  50.415  1.00  0.00     0.163 HD
ENDROOT
BRANCH   1   5
HETATM    5  C   UNL     1       4.487  27.889  48.819  1.00  0.00     0.089 C 
HETATM    6  C   UNL     1       4.913  29.090  47.962  1.00  0.00     0.063 C 
HETATM    7  C   UNL     1       4.823  30.451  48.660  1.00  0.00     0.121 C 
HETATM    8  N   UNL     1       3.460  30.598  49.309  1.00  0.00    -0.059 N 
HETATM    9  C   UNL     1       5.931  30.709  49.686  1.00  0.00     0.046 C 
HETATM   10  C   UNL     1       4.910  31.568  47.599  1.00  0.00     0.046 C 
HETATM   11  C   UNL     1       2.858  29.454  50.096  1.00  0.00     0.121 C 
HETATM   12  H   UNL     1       2.798  30.830  48.556  1.00  0.00     0.279 HD
HETATM   13  H   UNL     1       3.472  31.440  49.902  1.00  0.00     0.279 HD
HETATM   14  C   UNL     1       3.397  29.459  51.531  1.00  0.00     0.046 C 
HETATM   15  C   UNL     1       1.343  29.745  50.175  1.00  0.00     0.046 C 
HETATM   16  C   UNL     1       3.072  28.122  49.356  1.00  0.00     0.063 C 
ENDBRANCH   1   5
BRANCH   2  17
HETATM   17  C   UNL     1       6.171  26.386  51.811  1.00  0.00     0.146 A 
HETATM   18  N   UNL     1       7.089  25.417  52.011  1.00  0.00    -0.169 NA
HETATM   19  N   UNL     1       7.664  25.765  53.180  1.00  0.00    -0.277 N 
HETATM   20  H   UNL     1       8.383  25.160  53.563  1.00  0.00     0.189 HD
HETATM   21  C   UNL     1       7.176  26.922  53.733  1.00  0.00     0.063 A 
HETATM   22  C   UNL     1       6.192  27.337  52.858  1.00  0.00     0.071 A 
BRANCH  21  23
HETATM   23  C   UNL     1       7.656  27.488  54.996  1.00  0.00    -0.008 A 
HETATM   24  C   UNL     1       8.307  28.729  55.040  1.00  0.00     0.014 A 
HETATM   25  C   UNL     1       8.760  29.255  56.254  1.00  0.00     0.001 A 
HETATM   26  C   UNL     1       8.564  28.550  57.438  1.00  0.00     0.000 A 
HETATM   27  C   UNL     1       7.915  27.319  57.411  1.00  0.00     0.001 A 
HETATM   28  C   UNL     1       7.463  26.793  56.198  1.00  0.00     0.014 A 
ENDBRANCH  21  23
ENDBRANCH   2  17
TORSDOF 3
ENDMDL
