MODEL 1
REMARK VINA RESULT:     -10.9      0.000      0.000
REMARK  6 active torsions:
REMARK  status: ('A' for Active; 'I' for Inactive)
REMARK    1  A    between atoms: N_1  and  C_2 
REMARK    2  A    between atoms: C_6  and  C_8 
REMARK    3  A    between atoms: C_13  and  C_18 
REMARK    4  A    between atoms: C_24  and  C_28 
REMARK       I    between atoms: C_28  and  N_30 
REMARK    5  A    between atoms: N_30  and  C_31 
REMARK    6  A    between atoms: C_31  and  C_32 
ROOT
HETATM    1  C   UNL     1       4.069  31.252  57.300  1.00  0.00     0.084 C 
HETATM    2  C   UNL     1       4.830  31.716  56.059  1.00  0.00     0.188 C 
HETATM    3  O   UNL     1       6.116  31.096  55.902  1.00  0.00    -0.350 OA
HETATM    4  C   UNL     1       6.147  29.745  56.118  1.00  0.00     0.075 A 
HETATM    5  C   UNL     1       7.318  29.093  55.734  1.00  0.00     0.038 A 
HETATM    6  C   UNL     1       7.472  27.722  55.963  1.00  0.00     0.020 A 
HETATM    7  C   UNL     1       6.443  26.993  56.570  1.00  0.00     0.032 A 
HETATM    8  C   UNL     1       5.276  27.662  56.971  1.00  0.00     0.027 A 
HETATM    9  C   UNL     1       5.127  29.042  56.763  1.00  0.00    -0.023 A 
HETATM   10  C   UNL     1       3.876  29.737  57.228  1.00  0.00     0.056 C 
ENDROOT
BRANCH   1  11
HETATM   11  C   UNL     1       4.722  31.664  58.593  1.00  0.00     0.111 A 
HETATM   12  N   UNL     1       6.016  31.838  58.782  1.00  0.00    -0.233 NA
HETATM   13  C   UNL     1       6.148  32.274  60.077  1.00  0.00     0.085 A 
HETATM   14  C   UNL     1       7.294  32.628  60.798  1.00  0.00     0.035 A 
HETATM   15  C   UNL     1       4.913  32.350  60.702  1.00  0.00     0.063 A 
HETATM   16  C   UNL     1       7.149  33.057  62.129  1.00  0.00     0.016 A 
HETATM   17  C   UNL     1       5.889  33.140  62.759  1.00  0.00    -0.005 A 
HETATM   18  C   UNL     1       4.743  32.767  62.024  1.00  0.00     0.045 A 
HETATM   19  N   UNL     1       4.023  31.951  59.741  1.00  0.00    -0.342 N 
HETATM   20  H   UNL     1       3.018  31.898  59.849  1.00  0.00     0.167 HD
BRANCH  17  21
HETATM   21  C   UNL     1       5.745  33.600  64.157  1.00  0.00     0.071 A 
HETATM   22  C   UNL     1       6.762  33.506  65.086  1.00  0.00     0.052 A 
HETATM   23  C   UNL     1       6.480  33.984  66.343  1.00  0.00     0.122 A 
HETATM   24  N   UNL     1       5.295  34.518  66.685  1.00  0.00    -0.231 NA
HETATM   25  C   UNL     1       4.378  34.588  65.719  1.00  0.00     0.199 A 
HETATM   26  N   UNL     1       4.546  34.142  64.473  1.00  0.00    -0.218 NA
BRANCH  25  27
HETATM   27  N   UNL     1       3.146  35.117  66.045  1.00  0.00    -0.271 NA
HETATM   28  H   UNL     1       2.683  35.422  65.201  1.00  0.00     0.127 HD
HETATM   29  H   UNL     1       3.261  35.797  66.782  1.00  0.00     0.127 HD
ENDBRANCH  25  27
ENDBRANCH  17  21
ENDBRANCH   1  11
BRANCH   7  30
HETATM   30  C   UNL     1       6.542  25.530  56.852  1.00  0.00     0.251 C 
HETATM   31  O   UNL     1       5.606  24.949  57.391  1.00  0.00    -0.268 OA
HETATM   32  N   UNL     1       7.697  24.893  56.458  1.00  0.00    -0.353 N 
HETATM   33  H   UNL     1       8.425  25.389  55.970  1.00  0.00     0.163 HD
BRANCH  32  34
HETATM   34  C   UNL     1       7.922  23.488  56.715  1.00  0.00     0.161 C 
BRANCH  34  35
HETATM   35  C   UNL     1       7.916  22.710  55.425  1.00  0.00    -0.041 A 
HETATM   36  C   UNL     1       7.916  21.308  55.450  1.00  0.00     0.009 A 
HETATM   37  C   UNL     1       7.922  20.578  54.261  1.00  0.00     0.001 A 
HETATM   38  C   UNL     1       7.939  21.242  53.036  1.00  0.00     0.000 A 
HETATM   39  C   UNL     1       7.954  22.635  52.998  1.00  0.00     0.001 A 
HETATM   40  C   UNL     1       7.945  23.368  54.187  1.00  0.00     0.009 A 
ENDBRANCH  34  35
ENDBRANCH  32  34
ENDBRANCH   7  30
TORSDOF 6
ENDMDL
MODEL 2
REMARK VINA RESULT:     -10.4      8.459     11.239
REMARK  6 active torsions:
REMARK  status: ('A' for Active; 'I' for Inactive)
REMARK    1  A    between atoms: N_1  and  C_2 
REMARK    2  A    between atoms: C_6  and  C_8 
REMARK    3  A    between atoms: C_13  and  C_18 
REMARK    4  A    between atoms: C_24  and  C_28 
REMARK       I    between atoms: C_28  and  N_30 
REMARK    5  A    between atoms: N_30  and  C_31 
REMARK    6  A    between atoms: C_31  and  C_32 
ROOT
HETATM    1  C   UNL     1       2.435  29.902  50.653  1.00  0.00     0.084 C 
HETATM    2  C   UNL     1       2.116  28.852  49.589  1.00  0.00     0.188 C 
HETATM    3  O   UNL     1       3.240  28.038  49.221  1.00  0.00    -0.350 OA
HETATM    4  C   UNL     1       4.000  27.581  50.263  1.00  0.00     0.075 A 
HETATM    5  C   UNL     1       4.940  26.599  49.947  1.00  0.00     0.038 A 
HETATM    6  C   UNL     1       5.805  26.106  50.929  1.00  0.00     0.020 A 
HETATM    7  C   UNL     1       5.723  26.588  52.241  1.00  0.00     0.032 A 
HETATM    8  C   UNL     1       4.788  27.590  52.544  1.00  0.00     0.027 A 
HETATM    9  C   UNL     1       3.934  28.104  51.556  1.00  0.00    -0.023 A 
HETATM   10  C   UNL     1       2.961  29.197  51.904  1.00  0.00     0.056 C 
ENDROOT
BRANCH   1  11
HETATM   11  C   UNL     1       3.388  30.965  50.178  1.00  0.00     0.111 A 
HETATM   12  N   UNL     1       4.070  31.791  50.949  1.00  0.00    -0.233 NA
HETATM   13  C   UNL     1       4.854  32.532  50.100  1.00  0.00     0.085 A 
HETATM   14  C   UNL     1       5.785  33.539  50.379  1.00  0.00     0.035 A 
HETATM   15  C   UNL     1       4.636  32.168  48.780  1.00  0.00     0.063 A 
HETATM   16  C   UNL     1       6.470  34.141  49.309  1.00  0.00     0.016 A 
HETATM   17  C   UNL     1       6.250  33.763  47.968  1.00  0.00    -0.005 A 
HETATM   18  C   UNL     1       5.300  32.754  47.700  1.00  0.00     0.045 A 
HETATM   19  N   UNL     1       3.695  31.176  48.854  1.00  0.00    -0.342 N 
HETATM   20  H   UNL     1       3.308  30.667  48.071  1.00  0.00     0.167 HD
BRANCH  17  21
HETATM   21  C   UNL     1       6.982  34.396  46.849  1.00  0.00     0.071 A 
HETATM   22  C   UNL     1       7.706  35.563  46.991  1.00  0.00     0.052 A 
HETATM   23  C   UNL     1       8.338  36.023  45.862  1.00  0.00     0.122 A 
HETATM   24  N   UNL     1       8.278  35.401  44.672  1.00  0.00    -0.231 NA
HETATM   25  C   UNL     1       7.575  34.269  44.632  1.00  0.00     0.199 A 
HETATM   26  N   UNL     1       6.913  33.744  45.665  1.00  0.00    -0.218 NA
BRANCH  25  27
HETATM   27  N   UNL     1       7.482  33.618  43.419  1.00  0.00    -0.271 NA
HETATM   28  H   UNL     1       8.191  33.976  42.796  1.00  0.00     0.127 HD
HETATM   29  H   UNL     1       6.525  33.649  43.098  1.00  0.00     0.127 HD
ENDBRANCH  25  27
ENDBRANCH  17  21
ENDBRANCH   1  11
BRANCH   7  30
HETATM   30  C   UNL     1       6.618  26.113  53.337  1.00  0.00     0.251 C 
HETATM   31  O   UNL     1       7.584  26.792  53.671  1.00  0.00    -0.268 OA
HETATM   32  N   UNL     1       6.290  24.922  53.943  1.00  0.00    -0.353 N 
HETATM   33  H   UNL     1       5.459  24.415  53.680  1.00  0.00     0.163 HD
BRANCH  32  34
HETATM   34  C   UNL     1       7.105  24.344  54.988  1.00  0.00     0.161 C 
BRANCH  34  35
HETATM   35  C   UNL     1       7.494  22.933  54.632  1.00  0.00    -0.041 A 
HETATM   36  C   UNL     1       7.580  21.954  55.633  1.00  0.00     0.009 A 
HETATM   37  C   UNL     1       7.950  20.647  55.316  1.00  0.00     0.001 A 
HETATM   38  C   UNL     1       8.249  20.308  53.997  1.00  0.00     0.000 A 
HETATM   39  C   UNL     1       8.182  21.276  52.997  1.00  0.00     0.001 A 
HETATM   40  C   UNL     1       7.809  22.584  53.311  1.00  0.00     0.009 A 
ENDBRANCH  34  35
ENDBRANCH  32  34
ENDBRANCH   7  30
TORSDOF 6
ENDMDL
MODEL 3
REMARK VINA RESULT:     -10.3      4.744     11.588
REMARK  6 active torsions:
REMARK  status: ('A' for Active; 'I' for Inactive)
REMARK    1  A    between atoms: N_1  and  C_2 
REMARK    2  A    between atoms: C_6  and  C_8 
REMARK    3  A    between atoms: C_13  and  C_18 
REMARK    4  A    between atoms: C_24  and  C_28 
REMARK       I    between atoms: C_28  and  N_30 
REMARK    5  A    between atoms: N_30  and  C_31 
REMARK    6  A    between atoms: C_31  and  C_32 
ROOT
HETATM    1  C   UNL     1       5.523  25.632  56.035  1.00  0.00     0.084 C 
HETATM    2  C   UNL     1       6.947  25.240  56.427  1.00  0.00     0.188 C 
HETATM    3  O   UNL     1       7.888  26.322  56.352  1.00  0.00    -0.350 OA
HETATM    4  C   UNL     1       7.459  27.512  56.876  1.00  0.00     0.075 A 
HETATM    5  C   UNL     1       8.435  28.496  57.034  1.00  0.00     0.038 A 
HETATM    6  C   UNL     1       8.088  29.765  57.508  1.00  0.00     0.020 A 
HETATM    7  C   UNL     1       6.759  30.050  57.840  1.00  0.00     0.032 A 
HETATM    8  C   UNL     1       5.782  29.059  57.659  1.00  0.00     0.027 A 
HETATM    9  C   UNL     1       6.121  27.792  57.161  1.00  0.00    -0.023 A 
HETATM   10  C   UNL     1       5.047  26.760  56.952  1.00  0.00     0.056 C 
ENDROOT
BRANCH   1  11
HETATM   11  C   UNL     1       5.383  26.005  54.583  1.00  0.00     0.111 A 
HETATM   12  N   UNL     1       5.812  25.293  53.558  1.00  0.00    -0.233 NA
HETATM   13  C   UNL     1       5.410  25.975  52.436  1.00  0.00     0.085 A 
HETATM   14  C   UNL     1       5.581  25.665  51.082  1.00  0.00     0.035 A 
HETATM   15  C   UNL     1       4.737  27.138  52.779  1.00  0.00     0.063 A 
HETATM   16  C   UNL     1       5.055  26.543  50.118  1.00  0.00     0.016 A 
HETATM   17  C   UNL     1       4.365  27.722  50.470  1.00  0.00    -0.005 A 
HETATM   18  C   UNL     1       4.211  28.028  51.840  1.00  0.00     0.045 A 
HETATM   19  N   UNL     1       4.738  27.139  54.148  1.00  0.00    -0.342 N 
HETATM   20  H   UNL     1       4.317  27.842  54.741  1.00  0.00     0.167 HD
BRANCH  17  21
HETATM   21  C   UNL     1       3.808  28.635  49.448  1.00  0.00     0.071 A 
HETATM   22  C   UNL     1       2.894  28.228  48.497  1.00  0.00     0.052 A 
HETATM   23  C   UNL     1       2.463  29.194  47.620  1.00  0.00     0.122 A 
HETATM   24  N   UNL     1       2.885  30.469  47.656  1.00  0.00    -0.231 NA
HETATM   25  C   UNL     1       3.751  30.778  48.621  1.00  0.00     0.199 A 
HETATM   26  N   UNL     1       4.242  29.915  49.512  1.00  0.00    -0.218 NA
BRANCH  25  27
HETATM   27  N   UNL     1       4.214  32.077  48.671  1.00  0.00    -0.271 NA
HETATM   28  H   UNL     1       3.647  32.654  48.066  1.00  0.00     0.127 HD
HETATM   29  H   UNL     1       5.212  32.080  48.512  1.00  0.00     0.127 HD
ENDBRANCH  25  27
ENDBRANCH  17  21
ENDBRANCH   1  11
BRANCH   7  30
HETATM   30  C   UNL     1       6.318  31.384  58.345  1.00  0.00     0.251 C 
HETATM   31  O   UNL     1       6.054  32.279  57.548  1.00  0.00    -0.268 OA
HETATM   32  N   UNL     1       6.204  31.533  59.708  1.00  0.00    -0.353 N 
HETATM   33  H   UNL     1       6.377  30.761  60.332  1.00  0.00     0.163 HD
BRANCH  32  34
HETATM   34  C   UNL     1       5.824  32.790  60.312  1.00  0.00     0.161 C 
BRANCH  34  35
HETATM   35  C   UNL     1       6.473  32.942  61.663  1.00  0.00    -0.041 A 
HETATM   36  C   UNL     1       7.620  32.200  61.979  1.00  0.00     0.009 A 
HETATM   37  C   UNL     1       8.222  32.325  63.232  1.00  0.00     0.001 A 
HETATM   38  C   UNL     1       7.677  33.185  64.184  1.00  0.00     0.000 A 
HETATM   39  C   UNL     1       6.528  33.916  63.887  1.00  0.00     0.001 A 
HETATM   40  C   UNL     1       5.926  33.795  62.633  1.00  0.00     0.009 A 
ENDBRANCH  34  35
ENDBRANCH  32  34
ENDBRANCH   7  30
TORSDOF 6
ENDMDL
MODEL 4
REMARK VINA RESULT:     -10.1      2.638     10.945
REMARK  6 active torsions:
REMARK  status: ('A' for Active; 'I' for Inactive)
REMARK    1  A    between atoms: N_1  and  C_2 
REMARK    2  A    between atoms: C_6  and  C_8 
REMARK    3  A    between atoms: C_13  and  C_18 
REMARK    4  A    between atoms: C_24  and  C_28 
REMARK       I    between atoms: C_28  and  N_30 
REMARK    5  A    between atoms: N_30  and  C_31 
REMARK    6  A    between atoms: C_31  and  C_32 
ROOT
HETATM    1  C   UNL     1       4.040  31.292  54.346  1.00  0.00     0.084 C 
HETATM    2  C   UNL     1       2.641  31.533  54.911  1.00  0.00     0.188 C 
HETATM    3  O   UNL     1       2.476  31.087  56.266  1.00  0.00    -0.350 OA
HETATM    4  C   UNL     1       3.498  31.408  57.118  1.00  0.00     0.075 A 
HETATM    5  C   UNL     1       3.248  31.203  58.475  1.00  0.00     0.038 A 
HETATM    6  C   UNL     1       4.247  31.447  59.423  1.00  0.00     0.020 A 
HETATM    7  C   UNL     1       5.502  31.912  59.014  1.00  0.00     0.032 A 
HETATM    8  C   UNL     1       5.750  32.096  57.645  1.00  0.00     0.027 A 
HETATM    9  C   UNL     1       4.758  31.831  56.689  1.00  0.00    -0.023 A 
HETATM   10  C   UNL     1       5.062  32.012  55.227  1.00  0.00     0.056 C 
ENDROOT
BRANCH   1  11
HETATM   11  C   UNL     1       4.379  29.833  54.189  1.00  0.00     0.111 A 
HETATM   12  N   UNL     1       3.750  28.975  53.407  1.00  0.00    -0.233 NA
HETATM   13  C   UNL     1       4.436  27.791  53.527  1.00  0.00     0.085 A 
HETATM   14  C   UNL     1       4.218  26.555  52.908  1.00  0.00     0.035 A 
HETATM   15  C   UNL     1       5.495  27.920  54.413  1.00  0.00     0.063 A 
HETATM   16  C   UNL     1       5.087  25.490  53.203  1.00  0.00     0.016 A 
HETATM   17  C   UNL     1       6.167  25.627  54.100  1.00  0.00    -0.005 A 
HETATM   18  C   UNL     1       6.368  26.876  54.726  1.00  0.00     0.045 A 
HETATM   19  N   UNL     1       5.434  29.224  54.826  1.00  0.00    -0.342 N 
HETATM   20  H   UNL     1       6.071  29.672  55.472  1.00  0.00     0.167 HD
BRANCH  17  21
HETATM   21  C   UNL     1       7.081  24.503  54.397  1.00  0.00     0.071 A 
HETATM   22  C   UNL     1       7.697  23.756  53.412  1.00  0.00     0.052 A 
HETATM   23  C   UNL     1       8.525  22.749  53.846  1.00  0.00     0.122 A 
HETATM   24  N   UNL     1       8.746  22.477  55.143  1.00  0.00    -0.231 NA
HETATM   25  C   UNL     1       8.127  23.262  56.025  1.00  0.00     0.199 A 
HETATM   26  N   UNL     1       7.294  24.256  55.711  1.00  0.00    -0.218 NA
BRANCH  25  27
HETATM   27  N   UNL     1       8.322  22.995  57.365  1.00  0.00    -0.271 NA
HETATM   28  H   UNL     1       8.274  21.998  57.514  1.00  0.00     0.127 HD
HETATM   29  H   UNL     1       7.703  23.576  57.912  1.00  0.00     0.127 HD
ENDBRANCH  25  27
ENDBRANCH  17  21
ENDBRANCH   1  11
BRANCH   7  30
HETATM   30  C   UNL     1       6.616  32.186  59.970  1.00  0.00     0.251 C 
HETATM   31  O   UNL     1       7.674  32.647  59.555  1.00  0.00    -0.268 OA
HETATM   32  N   UNL     1       6.379  31.923  61.300  1.00  0.00    -0.353 N 
HETATM   33  H   UNL     1       5.480  31.594  61.614  1.00  0.00     0.163 HD
BRANCH  32  34
HETATM   34  C   UNL     1       7.396  32.111  62.311  1.00  0.00     0.161 C 
BRANCH  34  35
HETATM   35  C   UNL     1       6.802  32.738  63.544  1.00  0.00    -0.041 A 
HETATM   36  C   UNL     1       5.411  32.871  63.665  1.00  0.00     0.009 A 
HETATM   37  C   UNL     1       4.851  33.461  64.799  1.00  0.00     0.001 A 
HETATM   38  C   UNL     1       5.677  33.933  65.818  1.00  0.00     0.000 A 
HETATM   39  C   UNL     1       7.061  33.819  65.703  1.00  0.00     0.001 A 
HETATM   40  C   UNL     1       7.623  33.226  64.571  1.00  0.00     0.009 A 
ENDBRANCH  34  35
ENDBRANCH  32  34
ENDBRANCH   7  30
TORSDOF 6
ENDMDL
MODEL 5
REMARK VINA RESULT:     -10.0      4.753     11.037
REMARK  6 active torsions:
REMARK  status: ('A' for Active; 'I' for Inactive)
REMARK    1  A    between atoms: N_1  and  C_2 
REMARK    2  A    between atoms: C_6  and  C_8 
REMARK    3  A    between atoms: C_13  and  C_18 
REMARK    4  A    between atoms: C_24  and  C_28 
REMARK       I    between atoms: C_28  and  N_30 
REMARK    5  A    between atoms: N_30  and  C_31 
REMARK    6  A    between atoms: C_31  and  C_32 
ROOT
HETATM    1  C   UNL     1       5.410  27.310  56.148  1.00  0.00     0.084 C 
HETATM    2  C   UNL     1       6.600  26.409  55.819  1.00  0.00     0.188 C 
HETATM    3  O   UNL     1       7.837  27.119  55.655  1.00  0.00    -0.350 OA
HETATM    4  C   UNL     1       8.093  28.081  56.596  1.00  0.00     0.075 A 
HETATM    5  C   UNL     1       9.386  28.604  56.598  1.00  0.00     0.038 A 
HETATM    6  C   UNL     1       9.731  29.631  57.481  1.00  0.00     0.020 A 
HETATM    7  C   UNL     1       8.782  30.131  58.381  1.00  0.00     0.032 A 
HETATM    8  C   UNL     1       7.479  29.611  58.357  1.00  0.00     0.027 A 
HETATM    9  C   UNL     1       7.121  28.597  57.456  1.00  0.00    -0.023 A 
HETATM   10  C   UNL     1       5.709  28.079  57.436  1.00  0.00     0.056 C 
ENDROOT
BRANCH   1  11
HETATM   11  C   UNL     1       5.036  28.241  55.025  1.00  0.00     0.111 A 
HETATM   12  N   UNL     1       4.263  29.305  55.130  1.00  0.00    -0.233 NA
HETATM   13  C   UNL     1       4.253  29.883  53.885  1.00  0.00     0.085 A 
HETATM   14  C   UNL     1       3.613  31.043  53.433  1.00  0.00     0.035 A 
HETATM   15  C   UNL     1       5.021  29.150  52.993  1.00  0.00     0.063 A 
HETATM   16  C   UNL     1       3.777  31.425  52.090  1.00  0.00     0.016 A 
HETATM   17  C   UNL     1       4.564  30.680  51.187  1.00  0.00    -0.005 A 
HETATM   18  C   UNL     1       5.194  29.506  51.653  1.00  0.00     0.045 A 
HETATM   19  N   UNL     1       5.501  28.107  53.738  1.00  0.00    -0.342 N 
HETATM   20  H   UNL     1       6.115  27.375  53.406  1.00  0.00     0.167 HD
BRANCH  17  21
HETATM   21  C   UNL     1       4.738  31.094  49.778  1.00  0.00     0.071 A 
HETATM   22  C   UNL     1       4.073  30.489  48.730  1.00  0.00     0.052 A 
HETATM   23  C   UNL     1       4.333  30.991  47.478  1.00  0.00     0.122 A 
HETATM   24  N   UNL     1       5.179  32.010  47.248  1.00  0.00    -0.231 NA
HETATM   25  C   UNL     1       5.760  32.548  48.321  1.00  0.00     0.199 A 
HETATM   26  N   UNL     1       5.588  32.128  49.575  1.00  0.00    -0.218 NA
BRANCH  25  27
HETATM   27  N   UNL     1       6.647  33.585  48.113  1.00  0.00    -0.271 NA
HETATM   28  H   UNL     1       6.154  34.364  47.700  1.00  0.00     0.127 HD
HETATM   29  H   UNL     1       7.456  33.236  47.621  1.00  0.00     0.127 HD
ENDBRANCH  25  27
ENDBRANCH  17  21
ENDBRANCH   1  11
BRANCH   7  30
HETATM   30  C   UNL     1       9.080  31.230  59.346  1.00  0.00     0.251 C 
HETATM   31  O   UNL     1       9.454  32.321  58.928  1.00  0.00    -0.268 OA
HETATM   32  N   UNL     1       8.890  30.960  60.681  1.00  0.00    -0.353 N 
HETATM   33  H   UNL     1       8.531  30.070  60.987  1.00  0.00     0.163 HD
BRANCH  32  34
HETATM   34  C   UNL     1       9.184  31.934  61.709  1.00  0.00     0.161 C 
BRANCH  34  35
HETATM   35  C   UNL     1       7.948  32.237  62.515  1.00  0.00    -0.041 A 
HETATM   36  C   UNL     1       6.682  31.899  62.015  1.00  0.00     0.009 A 
HETATM   37  C   UNL     1       5.531  32.186  62.749  1.00  0.00     0.001 A 
HETATM   38  C   UNL     1       5.633  32.824  63.985  1.00  0.00     0.000 A 
HETATM   39  C   UNL     1       6.884  33.178  64.485  1.00  0.00     0.001 A 
HETATM   40  C   UNL     1       8.038  32.889  63.754  1.00  0.00     0.009 A 
ENDBRANCH  34  35
ENDBRANCH  32  34
ENDBRANCH   7  30
TORSDOF 6
ENDMDL
MODEL 6
REMARK VINA RESULT:      -9.9      2.216     11.533
REMARK  6 active torsions:
REMARK  status: ('A' for Active; 'I' for Inactive)
REMARK    1  A    between atoms: N_1  and  C_2 
REMARK    2  A    between atoms: C_6  and  C_8 
REMARK    3  A    between atoms: C_13  and  C_18 
REMARK    4  A    between atoms: C_24  and  C_28 
REMARK       I    between atoms: C_28  and  N_30 
REMARK    5  A    between atoms: N_30  and  C_31 
REMARK    6  A    between atoms: C_31  and  C_32 
ROOT
HETATM    1  C   UNL     1       4.767  31.199  55.979  1.00  0.00     0.084 C 
HETATM    2  C   UNL     1       3.286  30.985  56.293  1.00  0.00     0.188 C 
HETATM    3  O   UNL     1       3.020  30.719  57.679  1.00  0.00    -0.350 OA
HETATM    4  C   UNL     1       3.682  31.521  58.569  1.00  0.00     0.075 A 
HETATM    5  C   UNL     1       3.253  31.444  59.895  1.00  0.00     0.038 A 
HETATM    6  C   UNL     1       3.902  32.180  60.891  1.00  0.00     0.020 A 
HETATM    7  C   UNL     1       4.978  33.011  60.560  1.00  0.00     0.032 A 
HETATM    8  C   UNL     1       5.414  33.066  59.227  1.00  0.00     0.027 A 
HETATM    9  C   UNL     1       4.781  32.311  58.228  1.00  0.00    -0.023 A 
HETATM   10  C   UNL     1       5.288  32.371  56.813  1.00  0.00     0.056 C 
ENDROOT
BRANCH   1  11
HETATM   11  C   UNL     1       5.606  29.965  56.179  1.00  0.00     0.111 A 
HETATM   12  N   UNL     1       6.512  29.792  57.122  1.00  0.00    -0.233 NA
HETATM   13  C   UNL     1       6.972  28.508  56.966  1.00  0.00     0.085 A 
HETATM   14  C   UNL     1       7.924  27.794  57.704  1.00  0.00     0.035 A 
HETATM   15  C   UNL     1       6.349  27.885  55.896  1.00  0.00     0.063 A 
HETATM   16  C   UNL     1       8.208  26.467  57.334  1.00  0.00     0.016 A 
HETATM   17  C   UNL     1       7.567  25.836  56.248  1.00  0.00    -0.005 A 
HETATM   18  C   UNL     1       6.618  26.571  55.506  1.00  0.00     0.045 A 
HETATM   19  N   UNL     1       5.491  28.833  55.407  1.00  0.00    -0.342 N 
HETATM   20  H   UNL     1       4.860  28.715  54.624  1.00  0.00     0.167 HD
BRANCH  17  21
HETATM   21  C   UNL     1       7.866  24.437  55.872  1.00  0.00     0.071 A 
HETATM   22  C   UNL     1       8.312  23.496  56.779  1.00  0.00     0.052 A 
HETATM   23  C   UNL     1       8.540  22.236  56.280  1.00  0.00     0.122 A 
HETATM   24  N   UNL     1       8.350  21.903  54.992  1.00  0.00    -0.231 NA
HETATM   25  C   UNL     1       7.898  22.869  54.192  1.00  0.00     0.199 A 
HETATM   26  N   UNL     1       7.658  24.125  54.572  1.00  0.00    -0.218 NA
BRANCH  25  27
HETATM   27  N   UNL     1       7.710  22.559  52.861  1.00  0.00    -0.271 NA
HETATM   28  H   UNL     1       6.725  22.412  52.691  1.00  0.00     0.127 HD
HETATM   29  H   UNL     1       8.341  21.815  52.601  1.00  0.00     0.127 HD
ENDBRANCH  25  27
ENDBRANCH  17  21
ENDBRANCH   1  11
BRANCH   7  30
HETATM   30  C   UNL     1       5.720  33.819  61.573  1.00  0.00     0.251 C 
HETATM   31  O   UNL     1       6.874  33.518  61.864  1.00  0.00    -0.268 OA
HETATM   32  N   UNL     1       5.062  34.897  62.119  1.00  0.00    -0.353 N 
HETATM   33  H   UNL     1       4.134  35.148  61.818  1.00  0.00     0.163 HD
BRANCH  32  34
HETATM   34  C   UNL     1       5.666  35.727  63.137  1.00  0.00     0.161 C 
BRANCH  34  35
HETATM   35  C   UNL     1       5.134  35.362  64.498  1.00  0.00    -0.041 A 
HETATM   36  C   UNL     1       5.633  34.236  65.169  1.00  0.00     0.009 A 
HETATM   37  C   UNL     1       5.139  33.882  66.425  1.00  0.00     0.001 A 
HETATM   38  C   UNL     1       4.133  34.644  67.017  1.00  0.00     0.000 A 
HETATM   39  C   UNL     1       3.618  35.756  66.354  1.00  0.00     0.001 A 
HETATM   40  C   UNL     1       4.114  36.114  65.098  1.00  0.00     0.009 A 
ENDBRANCH  34  35
ENDBRANCH  32  34
ENDBRANCH   7  30
TORSDOF 6
ENDMDL
MODEL 7
REMARK VINA RESULT:      -9.7      8.809     12.746
REMARK  6 active torsions:
REMARK  status: ('A' for Active; 'I' for Inactive)
REMARK    1  A    between atoms: N_1  and  C_2 
REMARK    2  A    between atoms: C_6  and  C_8 
REMARK    3  A    between atoms: C_13  and  C_18 
REMARK    4  A    between atoms: C_24  and  C_28 
REMARK       I    between atoms: C_28  and  N_30 
REMARK    5  A    between atoms: N_30  and  C_31 
REMARK    6  A    between atoms: C_31  and  C_32 
ROOT
HETATM    1  C   UNL     1       3.728  27.958  49.295  1.00  0.00     0.084 C 
HETATM    2  C   UNL     1       2.425  28.483  49.895  1.00  0.00     0.188 C 
HETATM    3  O   UNL     1       2.607  29.559  50.828  1.00  0.00    -0.350 OA
HETATM    4  C   UNL     1       3.488  30.532  50.438  1.00  0.00     0.075 A 
HETATM    5  C   UNL     1       3.493  31.694  51.208  1.00  0.00     0.038 A 
HETATM    6  C   UNL     1       4.396  32.725  50.928  1.00  0.00     0.020 A 
HETATM    7  C   UNL     1       5.292  32.600  49.860  1.00  0.00     0.032 A 
HETATM    8  C   UNL     1       5.292  31.418  49.103  1.00  0.00     0.027 A 
HETATM    9  C   UNL     1       4.404  30.372  49.396  1.00  0.00    -0.023 A 
HETATM   10  C   UNL     1       4.446  29.106  48.584  1.00  0.00     0.056 C 
ENDROOT
BRANCH   1  11
HETATM   11  C   UNL     1       4.624  27.287  50.302  1.00  0.00     0.111 A 
HETATM   12  N   UNL     1       5.451  27.900  51.129  1.00  0.00    -0.233 NA
HETATM   13  C   UNL     1       6.005  26.910  51.902  1.00  0.00     0.085 A 
HETATM   14  C   UNL     1       6.930  26.994  52.949  1.00  0.00     0.035 A 
HETATM   15  C   UNL     1       5.523  25.664  51.532  1.00  0.00     0.063 A 
HETATM   16  C   UNL     1       7.332  25.810  53.591  1.00  0.00     0.016 A 
HETATM   17  C   UNL     1       6.835  24.545  53.216  1.00  0.00    -0.005 A 
HETATM   18  C   UNL     1       5.912  24.473  52.150  1.00  0.00     0.045 A 
HETATM   19  N   UNL     1       4.653  25.928  50.508  1.00  0.00    -0.342 N 
HETATM   20  H   UNL     1       4.106  25.243  50.004  1.00  0.00     0.167 HD
BRANCH  17  21
HETATM   21  C   UNL     1       7.258  23.305  53.903  1.00  0.00     0.071 A 
HETATM   22  C   UNL     1       7.342  23.201  55.277  1.00  0.00     0.052 A 
HETATM   23  C   UNL     1       7.742  21.982  55.768  1.00  0.00     0.122 A 
HETATM   24  N   UNL     1       8.043  20.930  54.987  1.00  0.00    -0.231 NA
HETATM   25  C   UNL     1       7.913  21.114  53.673  1.00  0.00     0.199 A 
HETATM   26  N   UNL     1       7.546  22.259  53.094  1.00  0.00    -0.218 NA
BRANCH  25  27
HETATM   27  N   UNL     1       8.232  20.057  52.846  1.00  0.00    -0.271 NA
HETATM   28  H   UNL     1       8.502  20.414  51.941  1.00  0.00     0.127 HD
HETATM   29  H   UNL     1       7.484  19.378  52.872  1.00  0.00     0.127 HD
ENDBRANCH  25  27
ENDBRANCH  17  21
ENDBRANCH   1  11
BRANCH   7  30
HETATM   30  C   UNL     1       6.286  33.657  49.508  1.00  0.00     0.251 C 
HETATM   31  O   UNL     1       6.433  34.624  50.248  1.00  0.00    -0.268 OA
HETATM   32  N   UNL     1       7.019  33.470  48.359  1.00  0.00    -0.353 N 
HETATM   33  H   UNL     1       6.912  32.637  47.802  1.00  0.00     0.163 HD
BRANCH  32  34
HETATM   34  C   UNL     1       7.982  34.445  47.897  1.00  0.00     0.161 C 
BRANCH  34  35
HETATM   35  C   UNL     1       7.814  34.694  46.422  1.00  0.00    -0.041 A 
HETATM   36  C   UNL     1       8.262  35.897  45.856  1.00  0.00     0.009 A 
HETATM   37  C   UNL     1       8.100  36.142  44.492  1.00  0.00     0.001 A 
HETATM   38  C   UNL     1       7.479  35.192  43.683  1.00  0.00     0.000 A 
HETATM   39  C   UNL     1       7.016  34.000  44.236  1.00  0.00     0.001 A 
HETATM   40  C   UNL     1       7.180  33.751  45.600  1.00  0.00     0.009 A 
ENDBRANCH  34  35
ENDBRANCH  32  34
ENDBRANCH   7  30
TORSDOF 6
ENDMDL
MODEL 8
REMARK VINA RESULT:      -9.6      6.803      9.697
REMARK  6 active torsions:
REMARK  status: ('A' for Active; 'I' for Inactive)
REMARK    1  A    between atoms: N_1  and  C_2 
REMARK    2  A    between atoms: C_6  and  C_8 
REMARK    3  A    between atoms: C_13  and  C_18 
REMARK    4  A    between atoms: C_24  and  C_28 
REMARK       I    between atoms: C_28  and  N_30 
REMARK    5  A    between atoms: N_30  and  C_31 
REMARK    6  A    between atoms: C_31  and  C_32 
ROOT
HETATM    1  C   UNL     1       2.308  33.613  54.453  1.00  0.00     0.084 C 
HETATM    2  C   UNL     1       2.943  33.566  55.842  1.00  0.00     0.188 C 
HETATM    3  O   UNL     1       2.908  32.267  56.452  1.00  0.00    -0.350 OA
HETATM    4  C   UNL     1       3.250  31.224  55.633  1.00  0.00     0.075 A 
HETATM    5  C   UNL     1       3.460  29.998  56.263  1.00  0.00     0.038 A 
HETATM    6  C   UNL     1       3.758  28.858  55.510  1.00  0.00     0.020 A 
HETATM    7  C   UNL     1       3.860  28.946  54.117  1.00  0.00     0.032 A 
HETATM    8  C   UNL     1       3.628  30.180  53.491  1.00  0.00     0.027 A 
HETATM    9  C   UNL     1       3.306  31.321  54.241  1.00  0.00    -0.023 A 
HETATM   10  C   UNL     1       3.035  32.625  53.541  1.00  0.00     0.056 C 
ENDROOT
BRANCH   1  11
HETATM   11  C   UNL     1       0.823  33.364  54.464  1.00  0.00     0.111 A 
HETATM   12  N   UNL     1       0.088  33.129  55.535  1.00  0.00    -0.233 NA
HETATM   13  C   UNL     1      -1.205  33.031  55.084  1.00  0.00     0.085 A 
HETATM   14  C   UNL     1      -2.393  32.808  55.790  1.00  0.00     0.035 A 
HETATM   15  C   UNL     1      -1.264  33.192  53.708  1.00  0.00     0.063 A 
HETATM   16  C   UNL     1      -3.604  32.762  55.077  1.00  0.00     0.016 A 
HETATM   17  C   UNL     1      -3.660  32.933  53.678  1.00  0.00    -0.005 A 
HETATM   18  C   UNL     1      -2.453  33.145  52.977  1.00  0.00     0.045 A 
HETATM   19  N   UNL     1       0.038  33.395  53.336  1.00  0.00    -0.342 N 
HETATM   20  H   UNL     1       0.366  33.563  52.394  1.00  0.00     0.167 HD
BRANCH  17  21
HETATM   21  C   UNL     1      -4.939  32.891  52.938  1.00  0.00     0.071 A 
HETATM   22  C   UNL     1      -5.166  32.036  51.878  1.00  0.00     0.052 A 
HETATM   23  C   UNL     1      -6.408  32.109  51.297  1.00  0.00     0.122 A 
HETATM   24  N   UNL     1      -7.372  32.951  51.708  1.00  0.00    -0.231 NA
HETATM   25  C   UNL     1      -7.073  33.725  52.752  1.00  0.00     0.199 A 
HETATM   26  N   UNL     1      -5.896  33.742  53.378  1.00  0.00    -0.218 NA
BRANCH  25  27
HETATM   27  N   UNL     1      -8.038  34.612  53.185  1.00  0.00    -0.271 NA
HETATM   28  H   UNL     1      -8.373  34.318  54.092  1.00  0.00     0.127 HD
HETATM   29  H   UNL     1      -8.725  34.738  52.456  1.00  0.00     0.127 HD
ENDBRANCH  25  27
ENDBRANCH  17  21
ENDBRANCH   1  11
BRANCH   7  30
HETATM   30  C   UNL     1       4.168  27.769  53.251  1.00  0.00     0.251 C 
HETATM   31  O   UNL     1       4.127  27.885  52.030  1.00  0.00    -0.268 OA
HETATM   32  N   UNL     1       4.513  26.598  53.884  1.00  0.00    -0.353 N 
HETATM   33  H   UNL     1       4.589  26.551  54.888  1.00  0.00     0.163 HD
BRANCH  32  34
HETATM   34  C   UNL     1       4.792  25.383  53.150  1.00  0.00     0.161 C 
BRANCH  34  35
HETATM   35  C   UNL     1       6.030  24.716  53.688  1.00  0.00    -0.041 A 
HETATM   36  C   UNL     1       6.885  24.017  52.823  1.00  0.00     0.009 A 
HETATM   37  C   UNL     1       8.028  23.385  53.313  1.00  0.00     0.001 A 
HETATM   38  C   UNL     1       8.323  23.438  54.675  1.00  0.00     0.000 A 
HETATM   39  C   UNL     1       7.474  24.116  55.546  1.00  0.00     0.001 A 
HETATM   40  C   UNL     1       6.331  24.752  55.057  1.00  0.00     0.009 A 
ENDBRANCH  34  35
ENDBRANCH  32  34
ENDBRANCH   7  30
TORSDOF 6
ENDMDL
MODEL 9
REMARK VINA RESULT:      -9.5      8.776     12.319
REMARK  6 active torsions:
REMARK  status: ('A' for Active; 'I' for Inactive)
REMARK    1  A    between atoms: N_1  and  C_2 
REMARK    2  A    between atoms: C_6  and  C_8 
REMARK    3  A    between atoms: C_13  and  C_18 
REMARK    4  A    between atoms: C_24  and  C_28 
REMARK       I    between atoms: C_28  and  N_30 
REMARK    5  A    between atoms: N_30  and  C_31 
REMARK    6  A    between atoms: C_31  and  C_32 
ROOT
HETATM    1  C   UNL     1       1.868  29.722  48.766  1.00  0.00     0.084 C 
HETATM    2  C   UNL     1       1.436  28.389  48.155  1.00  0.00     0.188 C 
HETATM    3  O   UNL     1       2.499  27.431  48.042  1.00  0.00    -0.350 OA
HETATM    4  C   UNL     1       3.309  27.319  49.140  1.00  0.00     0.075 A 
HETATM    5  C   UNL     1       4.184  26.232  49.145  1.00  0.00     0.038 A 
HETATM    6  C   UNL     1       5.092  26.060  50.195  1.00  0.00     0.020 A 
HETATM    7  C   UNL     1       5.117  26.972  51.256  1.00  0.00     0.032 A 
HETATM    8  C   UNL     1       4.246  28.073  51.232  1.00  0.00     0.027 A 
HETATM    9  C   UNL     1       3.350  28.262  50.169  1.00  0.00    -0.023 A 
HETATM   10  C   UNL     1       2.447  29.465  50.158  1.00  0.00     0.056 C 
ENDROOT
BRANCH   1  11
HETATM   11  C   UNL     1       2.830  30.493  47.902  1.00  0.00     0.111 A 
HETATM   12  N   UNL     1       2.955  30.378  46.593  1.00  0.00    -0.233 NA
HETATM   13  C   UNL     1       3.892  31.312  46.225  1.00  0.00     0.085 A 
HETATM   14  C   UNL     1       4.394  31.636  44.959  1.00  0.00     0.035 A 
HETATM   15  C   UNL     1       4.365  32.001  47.331  1.00  0.00     0.063 A 
HETATM   16  C   UNL     1       5.357  32.656  44.856  1.00  0.00     0.016 A 
HETATM   17  C   UNL     1       5.831  33.359  45.983  1.00  0.00    -0.005 A 
HETATM   18  C   UNL     1       5.325  33.013  47.254  1.00  0.00     0.045 A 
HETATM   19  N   UNL     1       3.682  31.458  48.385  1.00  0.00    -0.342 N 
HETATM   20  H   UNL     1       3.769  31.735  49.354  1.00  0.00     0.167 HD
BRANCH  17  21
HETATM   21  C   UNL     1       6.838  34.436  45.863  1.00  0.00     0.071 A 
HETATM   22  C   UNL     1       7.779  34.695  46.839  1.00  0.00     0.052 A 
HETATM   23  C   UNL     1       8.652  35.723  46.580  1.00  0.00     0.122 A 
HETATM   24  N   UNL     1       8.622  36.456  45.454  1.00  0.00    -0.231 NA
HETATM   25  C   UNL     1       7.694  36.122  44.557  1.00  0.00     0.199 A 
HETATM   26  N   UNL     1       6.791  35.152  44.715  1.00  0.00    -0.218 NA
BRANCH  25  27
HETATM   27  N   UNL     1       7.628  36.869  43.398  1.00  0.00    -0.271 NA
HETATM   28  H   UNL     1       8.447  36.681  42.837  1.00  0.00     0.127 HD
HETATM   29  H   UNL     1       7.439  37.832  43.634  1.00  0.00     0.127 HD
ENDBRANCH  25  27
ENDBRANCH  17  21
ENDBRANCH   1  11
BRANCH   7  30
HETATM   30  C   UNL     1       6.064  26.854  52.404  1.00  0.00     0.251 C 
HETATM   31  O   UNL     1       6.600  27.861  52.856  1.00  0.00    -0.268 OA
HETATM   32  N   UNL     1       6.268  25.595  52.921  1.00  0.00    -0.353 N 
HETATM   33  H   UNL     1       5.770  24.797  52.560  1.00  0.00     0.163 HD
BRANCH  32  34
HETATM   34  C   UNL     1       7.192  25.354  54.006  1.00  0.00     0.161 C 
BRANCH  34  35
HETATM   35  C   UNL     1       7.484  23.882  54.131  1.00  0.00    -0.041 A 
HETATM   36  C   UNL     1       7.690  23.106  52.981  1.00  0.00     0.009 A 
HETATM   37  C   UNL     1       7.950  21.739  53.085  1.00  0.00     0.001 A 
HETATM   38  C   UNL     1       7.995  21.132  54.339  1.00  0.00     0.000 A 
HETATM   39  C   UNL     1       7.777  21.889  55.488  1.00  0.00     0.001 A 
HETATM   40  C   UNL     1       7.520  23.258  55.386  1.00  0.00     0.009 A 
ENDBRANCH  34  35
ENDBRANCH  32  34
ENDBRANCH   7  30
TORSDOF 6
ENDMDL
MODEL 10
REMARK VINA RESULT:      -9.5      6.884     11.571
REMARK  6 active torsions:
REMARK  status: ('A' for Active; 'I' for Inactive)
REMARK    1  A    between atoms: N_1  and  C_2 
REMARK    2  A    between atoms: C_6  and  C_8 
REMARK    3  A    between atoms: C_13  and  C_18 
REMARK    4  A    between atoms: C_24  and  C_28 
REMARK       I    between atoms: C_28  and  N_30 
REMARK    5  A    between atoms: N_30  and  C_31 
REMARK    6  A    between atoms: C_31  and  C_32 
ROOT
HETATM    1  C   UNL     1       4.695  26.656  48.266  1.00  0.00     0.084 C 
HETATM    2  C   UNL     1       3.277  26.287  47.834  1.00  0.00     0.188 C 
HETATM    3  O   UNL     1       2.262  27.144  48.380  1.00  0.00    -0.350 OA
HETATM    4  C   UNL     1       2.541  28.483  48.339  1.00  0.00     0.075 A 
HETATM    5  C   UNL     1       1.477  29.336  48.635  1.00  0.00     0.038 A 
HETATM    6  C   UNL     1       1.671  30.721  48.676  1.00  0.00     0.020 A 
HETATM    7  C   UNL     1       2.935  31.259  48.406  1.00  0.00     0.032 A 
HETATM    8  C   UNL     1       4.002  30.391  48.130  1.00  0.00     0.027 A 
HETATM    9  C   UNL     1       3.817  29.001  48.111  1.00  0.00    -0.023 A 
HETATM   10  C   UNL     1       4.987  28.095  47.838  1.00  0.00     0.056 C 
ENDROOT
BRANCH   1  11
HETATM   11  C   UNL     1       4.944  26.457  49.738  1.00  0.00     0.111 A 
HETATM   12  N   UNL     1       4.505  25.448  50.465  1.00  0.00    -0.233 NA
HETATM   13  C   UNL     1       5.025  25.640  51.722  1.00  0.00     0.085 A 
HETATM   14  C   UNL     1       4.897  24.865  52.880  1.00  0.00     0.035 A 
HETATM   15  C   UNL     1       5.782  26.800  51.772  1.00  0.00     0.063 A 
HETATM   16  C   UNL     1       5.549  25.288  54.051  1.00  0.00     0.016 A 
HETATM   17  C   UNL     1       6.325  26.466  54.096  1.00  0.00    -0.005 A 
HETATM   18  C   UNL     1       6.435  27.245  52.924  1.00  0.00     0.045 A 
HETATM   19  N   UNL     1       5.710  27.306  50.502  1.00  0.00    -0.342 N 
HETATM   20  H   UNL     1       6.163  28.148  50.172  1.00  0.00     0.167 HD
BRANCH  17  21
HETATM   21  C   UNL     1       7.014  26.899  55.331  1.00  0.00     0.071 A 
HETATM   22  C   UNL     1       7.371  28.211  55.570  1.00  0.00     0.052 A 
HETATM   23  C   UNL     1       7.999  28.459  56.767  1.00  0.00     0.122 A 
HETATM   24  N   UNL     1       8.267  27.505  57.675  1.00  0.00    -0.231 NA
HETATM   25  C   UNL     1       7.868  26.270  57.370  1.00  0.00     0.199 A 
HETATM   26  N   UNL     1       7.264  25.921  56.233  1.00  0.00    -0.218 NA
BRANCH  25  27
HETATM   27  N   UNL     1       8.145  25.267  58.277  1.00  0.00    -0.271 NA
HETATM   28  H   UNL     1       9.145  25.190  58.389  1.00  0.00     0.127 HD
HETATM   29  H   UNL     1       7.642  24.432  58.012  1.00  0.00     0.127 HD
ENDBRANCH  25  27
ENDBRANCH  17  21
ENDBRANCH   1  11
BRANCH   7  30
HETATM   30  C   UNL     1       3.215  32.725  48.440  1.00  0.00     0.251 C 
HETATM   31  O   UNL     1       2.406  33.510  47.954  1.00  0.00    -0.268 OA
HETATM   32  N   UNL     1       4.380  33.127  49.050  1.00  0.00    -0.353 N 
HETATM   33  H   UNL     1       4.997  32.460  49.486  1.00  0.00     0.163 HD
BRANCH  32  34
HETATM   34  C   UNL     1       4.776  34.517  49.107  1.00  0.00     0.161 C 
BRANCH  34  35
HETATM   35  C   UNL     1       6.145  34.700  48.508  1.00  0.00    -0.041 A 
HETATM   36  C   UNL     1       7.069  35.562  49.116  1.00  0.00     0.009 A 
HETATM   37  C   UNL     1       8.336  35.748  48.563  1.00  0.00     0.001 A 
HETATM   38  C   UNL     1       8.689  35.081  47.390  1.00  0.00     0.000 A 
HETATM   39  C   UNL     1       7.774  34.234  46.769  1.00  0.00     0.001 A 
HETATM   40  C   UNL     1       6.506  34.044  47.322  1.00  0.00     0.009 A 
ENDBRANCH  34  35
ENDBRANCH  32  34
ENDBRANCH   7  30
TORSDOF 6
ENDMDL
