MODEL 1
REMARK VINA RESULT:     -10.1      0.000      0.000
REMARK  5 active torsions:
REMARK  status: ('A' for Active; 'I' for Inactive)
REMARK    1  A    between atoms: C_3  and  N_4 
REMARK       I    between atoms: N_4  and  C_5 
REMARK    2  A    between atoms: C_9  and  N_10 
REMARK       I    between atoms: N_10  and  C_11 
REMARK    3  A    between atoms: C_11  and  C_12 
REMARK    4  A    between atoms: C_17  and  C_18 
REMARK    5  A    between atoms: C_24  and  C_25 
ROOT
HETATM    1  C   UNL     1       7.831  30.140  57.704  1.00  0.00     0.148 A 
HETATM    2  N   UNL     1       6.576  29.703  57.437  1.00  0.00    -0.165 NA
HETATM    3  N   UNL     1       6.764  28.856  56.408  1.00  0.00    -0.240 N 
HETATM    4  C   UNL     1       8.039  28.835  55.925  1.00  0.00     0.123 A 
HETATM    5  N   UNL     1       8.351  28.124  54.823  1.00  0.00    -0.364 N 
HETATM    6  C   UNL     1       7.343  27.754  53.823  1.00  0.00     0.143 C 
HETATM    7  C   UNL     1       5.900  28.083  54.273  1.00  0.00     0.068 C 
HETATM    8  C   UNL     1       5.687  28.105  55.794  1.00  0.00     0.221 C 
HETATM    9  C   UNL     1       8.776  29.600  56.786  1.00  0.00     0.089 A 
HETATM   10  H   UNL     1       9.301  28.156  54.452  1.00  0.00     0.162 HD
ENDROOT
BRANCH   1  11
HETATM   11  C   UNL     1       8.130  31.084  58.796  1.00  0.00     0.276 C 
HETATM   12  N   UNL     1       7.308  30.900  59.892  1.00  0.00    -0.322 N 
HETATM   13  H   UNL     1       6.638  30.145  59.776  1.00  0.00     0.169 HD
HETATM   14  O   UNL     1       9.004  31.935  58.673  1.00  0.00    -0.266 OA
BRANCH  12  15
HETATM   15  C   UNL     1       7.262  31.658  61.077  1.00  0.00     0.037 A 
HETATM   16  C   UNL     1       6.384  32.723  61.284  1.00  0.00     0.059 A 
HETATM   17  C   UNL     1       6.335  33.431  62.503  1.00  0.00     0.042 A 
HETATM   18  C   UNL     1       7.249  33.103  63.516  1.00  0.00    -0.035 A 
HETATM   19  C   UNL     1       7.402  33.849  64.812  1.00  0.00     0.050 C 
HETATM   20  C   UNL     1       8.125  32.018  63.307  1.00  0.00     0.011 A 
HETATM   21  C   UNL     1       8.133  31.307  62.103  1.00  0.00     0.030 A 
BRANCH  17  22
HETATM   22  N   UNL     1       5.365  34.461  62.543  1.00  0.00    -0.327 N 
HETATM   23  C   UNL     1       4.143  34.467  63.188  1.00  0.00     0.218 C 
HETATM   24  C   UNL     1       3.431  35.788  63.033  1.00  0.00     0.117 C 
HETATM   25  O   UNL     1       3.627  33.548  63.812  1.00  0.00    -0.274 OA
HETATM   26  H   UNL     1       5.467  35.168  61.824  1.00  0.00     0.169 HD
ENDBRANCH  17  22
ENDBRANCH  12  15
ENDBRANCH   1  11
BRANCH   8  27
HETATM   27  C   UNL     1       5.599  26.731  56.416  1.00  0.00     0.409 C 
HETATM   28  F   UNL     1       4.654  26.680  57.384  1.00  0.00    -0.169 F 
HETATM   29  F   UNL     1       5.230  25.820  55.477  1.00  0.00    -0.169 F 
HETATM   30  F   UNL     1       6.752  26.292  56.957  1.00  0.00    -0.169 F 
ENDBRANCH   8  27
BRANCH   6  31
HETATM   31  C   UNL     1       7.471  26.348  53.327  1.00  0.00     0.075 A 
HETATM   32  O   UNL     1       7.960  25.437  54.220  1.00  0.00    -0.325 OA
HETATM   33  C   UNL     1       7.952  24.228  53.600  1.00  0.00     0.142 A 
HETATM   34  C   UNL     1       7.467  24.347  52.320  1.00  0.00     0.027 A 
HETATM   35  C   UNL     1       7.154  25.715  52.142  1.00  0.00     0.037 A 
ENDBRANCH   6  31
TORSDOF 5
ENDMDL
MODEL 2
REMARK VINA RESULT:      -9.5      3.106     10.201
REMARK  5 active torsions:
REMARK  status: ('A' for Active; 'I' for Inactive)
REMARK    1  A    between atoms: C_3  and  N_4 
REMARK       I    between atoms: N_4  and  C_5 
REMARK    2  A    between atoms: C_9  and  N_10 
REMARK       I    between atoms: N_10  and  C_11 
REMARK    3  A    between atoms: C_11  and  C_12 
REMARK    4  A    between atoms: C_17  and  C_18 
REMARK    5  A    between atoms: C_24  and  C_25 
ROOT
HETATM    1  C   UNL     1       8.297  29.453  58.032  1.00  0.00     0.148 A 
HETATM    2  N   UNL     1       9.208  30.046  58.842  1.00  0.00    -0.165 NA
HETATM    3  N   UNL     1       8.449  30.840  59.620  1.00  0.00    -0.240 N 
HETATM    4  C   UNL     1       7.134  30.883  59.261  1.00  0.00     0.123 A 
HETATM    5  N   UNL     1       6.276  31.724  59.874  1.00  0.00    -0.364 N 
HETATM    6  C   UNL     1       6.733  32.935  60.566  1.00  0.00     0.143 C 
HETATM    7  C   UNL     1       8.272  33.017  60.684  1.00  0.00     0.068 C 
HETATM    8  C   UNL     1       8.993  31.660  60.683  1.00  0.00     0.221 C 
HETATM    9  C   UNL     1       6.984  29.942  58.281  1.00  0.00     0.089 A 
HETATM   10  H   UNL     1       5.306  31.773  59.562  1.00  0.00     0.162 HD
ENDROOT
BRANCH   1  11
HETATM   11  C   UNL     1       8.668  28.458  57.010  1.00  0.00     0.276 C 
HETATM   12  N   UNL     1       7.580  27.737  56.557  1.00  0.00    -0.322 N 
HETATM   13  H   UNL     1       6.702  28.009  56.990  1.00  0.00     0.169 HD
HETATM   14  O   UNL     1       9.836  28.313  56.663  1.00  0.00    -0.266 OA
BRANCH  12  15
HETATM   15  C   UNL     1       7.570  26.667  55.642  1.00  0.00     0.037 A 
HETATM   16  C   UNL     1       7.582  25.323  56.019  1.00  0.00     0.059 A 
HETATM   17  C   UNL     1       7.524  24.277  55.074  1.00  0.00     0.042 A 
HETATM   18  C   UNL     1       7.528  24.595  53.707  1.00  0.00    -0.035 A 
HETATM   19  C   UNL     1       7.600  23.592  52.590  1.00  0.00     0.050 C 
HETATM   20  C   UNL     1       7.503  25.954  53.333  1.00  0.00     0.011 A 
HETATM   21  C   UNL     1       7.525  26.976  54.286  1.00  0.00     0.030 A 
BRANCH  17  22
HETATM   22  N   UNL     1       7.518  22.979  55.638  1.00  0.00    -0.327 N 
HETATM   23  C   UNL     1       8.532  22.041  55.649  1.00  0.00     0.218 C 
HETATM   24  C   UNL     1       8.142  20.798  56.410  1.00  0.00     0.117 C 
HETATM   25  O   UNL     1       9.630  22.127  55.113  1.00  0.00    -0.274 OA
HETATM   26  H   UNL     1       6.597  22.608  55.838  1.00  0.00     0.169 HD
ENDBRANCH  17  22
ENDBRANCH  12  15
ENDBRANCH   1  11
BRANCH   8  27
HETATM   27  C   UNL     1       8.902  30.922  61.999  1.00  0.00     0.409 C 
HETATM   28  F   UNL     1       9.963  30.102  62.186  1.00  0.00    -0.169 F 
HETATM   29  F   UNL     1       8.920  31.808  63.029  1.00  0.00    -0.169 F 
HETATM   30  F   UNL     1       7.789  30.178  62.141  1.00  0.00    -0.169 F 
ENDBRANCH   8  27
BRANCH   6  31
HETATM   31  C   UNL     1       6.055  33.173  61.878  1.00  0.00     0.075 A 
HETATM   32  O   UNL     1       5.947  34.477  62.272  1.00  0.00    -0.325 OA
HETATM   33  C   UNL     1       5.267  34.483  63.447  1.00  0.00     0.142 A 
HETATM   34  C   UNL     1       4.936  33.202  63.819  1.00  0.00     0.027 A 
HETATM   35  C   UNL     1       5.443  32.354  62.806  1.00  0.00     0.037 A 
ENDBRANCH   6  31
TORSDOF 5
ENDMDL
MODEL 3
REMARK VINA RESULT:      -9.3      1.723      2.039
REMARK  5 active torsions:
REMARK  status: ('A' for Active; 'I' for Inactive)
REMARK    1  A    between atoms: C_3  and  N_4 
REMARK       I    between atoms: N_4  and  C_5 
REMARK    2  A    between atoms: C_9  and  N_10 
REMARK       I    between atoms: N_10  and  C_11 
REMARK    3  A    between atoms: C_11  and  C_12 
REMARK    4  A    between atoms: C_17  and  C_18 
REMARK    5  A    between atoms: C_24  and  C_25 
ROOT
HETATM    1  C   UNL     1       7.041  30.434  57.951  1.00  0.00     0.148 A 
HETATM    2  N   UNL     1       7.005  29.086  58.079  1.00  0.00    -0.165 NA
HETATM    3  N   UNL     1       6.538  28.680  56.883  1.00  0.00    -0.240 N 
HETATM    4  C   UNL     1       6.152  29.697  56.059  1.00  0.00     0.123 A 
HETATM    5  N   UNL     1       5.557  29.442  54.876  1.00  0.00    -0.364 N 
HETATM    6  C   UNL     1       4.857  28.179  54.613  1.00  0.00     0.143 C 
HETATM    7  C   UNL     1       5.057  27.134  55.735  1.00  0.00     0.068 C 
HETATM    8  C   UNL     1       6.360  27.286  56.533  1.00  0.00     0.221 C 
HETATM    9  C   UNL     1       6.531  30.850  56.688  1.00  0.00     0.089 A 
HETATM   10  H   UNL     1       5.237  30.215  54.294  1.00  0.00     0.162 HD
ENDROOT
BRANCH   1  11
HETATM   11  C   UNL     1       7.522  31.324  59.023  1.00  0.00     0.276 C 
HETATM   12  N   UNL     1       6.772  31.211  60.178  1.00  0.00    -0.322 N 
HETATM   13  H   UNL     1       6.018  30.533  60.109  1.00  0.00     0.169 HD
HETATM   14  O   UNL     1       8.470  32.080  58.839  1.00  0.00    -0.266 OA
BRANCH  12  15
HETATM   15  C   UNL     1       6.898  31.952  61.368  1.00  0.00     0.037 A 
HETATM   16  C   UNL     1       6.126  33.075  61.670  1.00  0.00     0.059 A 
HETATM   17  C   UNL     1       6.249  33.764  62.894  1.00  0.00     0.042 A 
HETATM   18  C   UNL     1       7.230  33.353  63.810  1.00  0.00    -0.035 A 
HETATM   19  C   UNL     1       7.564  34.065  65.091  1.00  0.00     0.050 C 
HETATM   20  C   UNL     1       7.997  32.210  63.506  1.00  0.00     0.011 A 
HETATM   21  C   UNL     1       7.836  31.520  62.301  1.00  0.00     0.030 A 
BRANCH  17  22
HETATM   22  N   UNL     1       5.367  34.862  63.038  1.00  0.00    -0.327 N 
HETATM   23  C   UNL     1       4.138  34.900  63.667  1.00  0.00     0.218 C 
HETATM   24  C   UNL     1       3.541  36.287  63.652  1.00  0.00     0.117 C 
HETATM   25  O   UNL     1       3.534  33.966  64.178  1.00  0.00    -0.274 OA
HETATM   26  H   UNL     1       5.542  35.632  62.404  1.00  0.00     0.169 HD
ENDBRANCH  17  22
ENDBRANCH  12  15
ENDBRANCH   1  11
BRANCH   8  27
HETATM   27  C   UNL     1       7.583  26.779  55.804  1.00  0.00     0.409 C 
HETATM   28  F   UNL     1       8.095  27.718  54.974  1.00  0.00    -0.169 F 
HETATM   29  F   UNL     1       8.564  26.484  56.696  1.00  0.00    -0.169 F 
HETATM   30  F   UNL     1       7.370  25.668  55.072  1.00  0.00    -0.169 F 
ENDBRANCH   8  27
BRANCH   6  31
HETATM   31  C   UNL     1       5.130  27.608  53.258  1.00  0.00     0.075 A 
HETATM   32  O   UNL     1       4.942  26.262  53.122  1.00  0.00    -0.325 OA
HETATM   33  C   UNL     1       5.191  25.953  51.823  1.00  0.00     0.142 A 
HETATM   34  C   UNL     1       5.540  27.081  51.119  1.00  0.00     0.027 A 
HETATM   35  C   UNL     1       5.499  28.151  52.043  1.00  0.00     0.037 A 
ENDBRANCH   6  31
TORSDOF 5
ENDMDL
MODEL 4
REMARK VINA RESULT:      -9.2      1.803      2.718
REMARK  5 active torsions:
REMARK  status: ('A' for Active; 'I' for Inactive)
REMARK    1  A    between atoms: C_3  and  N_4 
REMARK       I    between atoms: N_4  and  C_5 
REMARK    2  A    between atoms: C_9  and  N_10 
REMARK       I    between atoms: N_10  and  C_11 
REMARK    3  A    between atoms: C_11  and  C_12 
REMARK    4  A    between atoms: C_17  and  C_18 
REMARK    5  A    between atoms: C_24  and  C_25 
ROOT
HETATM    1  C   UNL     1       6.919  29.771  57.608  1.00  0.00     0.148 A 
HETATM    2  N   UNL     1       6.888  28.538  58.169  1.00  0.00    -0.165 NA
HETATM    3  N   UNL     1       6.836  27.721  57.099  1.00  0.00    -0.240 N 
HETATM    4  C   UNL     1       6.699  28.369  55.907  1.00  0.00     0.123 A 
HETATM    5  N   UNL     1       6.517  27.681  54.762  1.00  0.00    -0.364 N 
HETATM    6  C   UNL     1       5.977  26.316  54.751  1.00  0.00     0.143 C 
HETATM    7  C   UNL     1       5.845  25.709  56.167  1.00  0.00     0.068 C 
HETATM    8  C   UNL     1       6.824  26.276  57.206  1.00  0.00     0.221 C 
HETATM    9  C   UNL     1       6.822  29.701  56.190  1.00  0.00     0.089 A 
HETATM   10  H   UNL     1       6.373  28.183  53.886  1.00  0.00     0.162 HD
ENDROOT
BRANCH   1  11
HETATM   11  C   UNL     1       7.008  31.007  58.407  1.00  0.00     0.276 C 
HETATM   12  N   UNL     1       5.821  31.306  59.049  1.00  0.00    -0.322 N 
HETATM   13  H   UNL     1       5.083  30.628  58.877  1.00  0.00     0.169 HD
HETATM   14  O   UNL     1       8.040  31.669  58.434  1.00  0.00    -0.266 OA
BRANCH  12  15
HETATM   15  C   UNL     1       5.521  32.436  59.833  1.00  0.00     0.037 A 
HETATM   16  C   UNL     1       6.046  32.658  61.108  1.00  0.00     0.059 A 
HETATM   17  C   UNL     1       5.758  33.825  61.845  1.00  0.00     0.042 A 
HETATM   18  C   UNL     1       4.858  34.762  61.312  1.00  0.00    -0.035 A 
HETATM   19  C   UNL     1       4.359  35.983  62.033  1.00  0.00     0.050 C 
HETATM   20  C   UNL     1       4.343  34.538  60.019  1.00  0.00     0.011 A 
HETATM   21  C   UNL     1       4.667  33.391  59.290  1.00  0.00     0.030 A 
BRANCH  17  22
HETATM   22  N   UNL     1       6.399  33.894  63.105  1.00  0.00    -0.327 N 
HETATM   23  C   UNL     1       5.991  33.349  64.308  1.00  0.00     0.218 C 
HETATM   24  C   UNL     1       6.993  33.600  65.408  1.00  0.00     0.117 C 
HETATM   25  O   UNL     1       4.951  32.744  64.536  1.00  0.00    -0.274 OA
HETATM   26  H   UNL     1       7.099  34.621  63.186  1.00  0.00     0.169 HD
ENDBRANCH  17  22
ENDBRANCH  12  15
ENDBRANCH   1  11
BRANCH   8  27
HETATM   27  C   UNL     1       8.230  25.739  57.075  1.00  0.00     0.409 C 
HETATM   28  F   UNL     1       9.141  26.737  56.994  1.00  0.00    -0.169 F 
HETATM   29  F   UNL     1       8.554  25.016  58.178  1.00  0.00    -0.169 F 
HETATM   30  F   UNL     1       8.419  24.936  56.010  1.00  0.00    -0.169 F 
ENDBRANCH   8  27
BRANCH   6  31
HETATM   31  C   UNL     1       6.683  25.394  53.807  1.00  0.00     0.075 A 
HETATM   32  O   UNL     1       7.568  25.977  52.945  1.00  0.00    -0.325 OA
HETATM   33  C   UNL     1       8.131  24.979  52.217  1.00  0.00     0.142 A 
HETATM   34  C   UNL     1       7.621  23.760  52.595  1.00  0.00     0.027 A 
HETATM   35  C   UNL     1       6.686  24.026  53.623  1.00  0.00     0.037 A 
ENDBRANCH   6  31
TORSDOF 5
ENDMDL
MODEL 5
REMARK VINA RESULT:      -9.1      1.574      2.484
REMARK  5 active torsions:
REMARK  status: ('A' for Active; 'I' for Inactive)
REMARK    1  A    between atoms: C_3  and  N_4 
REMARK       I    between atoms: N_4  and  C_5 
REMARK    2  A    between atoms: C_9  and  N_10 
REMARK       I    between atoms: N_10  and  C_11 
REMARK    3  A    between atoms: C_11  and  C_12 
REMARK    4  A    between atoms: C_17  and  C_18 
REMARK    5  A    between atoms: C_24  and  C_25 
ROOT
HETATM    1  C   UNL     1       6.866  30.432  57.815  1.00  0.00     0.148 A 
HETATM    2  N   UNL     1       6.183  30.419  56.645  1.00  0.00    -0.165 NA
HETATM    3  N   UNL     1       6.505  29.222  56.119  1.00  0.00    -0.240 N 
HETATM    4  C   UNL     1       7.453  28.539  56.823  1.00  0.00     0.123 A 
HETATM    5  N   UNL     1       7.960  27.380  56.357  1.00  0.00    -0.364 N 
HETATM    6  C   UNL     1       7.929  27.034  54.931  1.00  0.00     0.143 C 
HETATM    7  C   UNL     1       7.090  28.023  54.089  1.00  0.00     0.068 C 
HETATM    8  C   UNL     1       5.973  28.740  54.861  1.00  0.00     0.221 C 
HETATM    9  C   UNL     1       7.658  29.258  57.967  1.00  0.00     0.089 A 
HETATM   10  H   UNL     1       8.699  26.905  56.876  1.00  0.00     0.162 HD
ENDROOT
BRANCH   1  11
HETATM   11  C   UNL     1       6.797  31.555  58.766  1.00  0.00     0.276 C 
HETATM   12  N   UNL     1       5.570  31.638  59.396  1.00  0.00    -0.322 N 
HETATM   13  H   UNL     1       4.917  30.912  59.113  1.00  0.00     0.169 HD
HETATM   14  O   UNL     1       7.747  32.317  58.915  1.00  0.00    -0.266 OA
BRANCH  12  15
HETATM   15  C   UNL     1       5.127  32.618  60.305  1.00  0.00     0.037 A 
HETATM   16  C   UNL     1       5.732  32.862  61.539  1.00  0.00     0.059 A 
HETATM   17  C   UNL     1       5.288  33.884  62.404  1.00  0.00     0.042 A 
HETATM   18  C   UNL     1       4.157  34.634  62.046  1.00  0.00    -0.035 A 
HETATM   19  C   UNL     1       3.494  35.662  62.919  1.00  0.00     0.050 C 
HETATM   20  C   UNL     1       3.559  34.392  60.792  1.00  0.00     0.011 A 
HETATM   21  C   UNL     1       4.035  33.396  59.934  1.00  0.00     0.030 A 
BRANCH  17  22
HETATM   22  N   UNL     1       6.037  34.004  63.599  1.00  0.00    -0.327 N 
HETATM   23  C   UNL     1       5.689  33.604  64.875  1.00  0.00     0.218 C 
HETATM   24  C   UNL     1       6.798  33.860  65.867  1.00  0.00     0.117 C 
HETATM   25  O   UNL     1       4.627  33.115  65.238  1.00  0.00    -0.274 OA
HETATM   26  H   UNL     1       6.797  34.672  63.558  1.00  0.00     0.169 HD
ENDBRANCH  17  22
ENDBRANCH  12  15
ENDBRANCH   1  11
BRANCH   8  27
HETATM   27  C   UNL     1       4.757  27.879  55.113  1.00  0.00     0.409 C 
HETATM   28  F   UNL     1       3.620  28.613  55.138  1.00  0.00    -0.169 F 
HETATM   29  F   UNL     1       4.608  26.982  54.104  1.00  0.00    -0.169 F 
HETATM   30  F   UNL     1       4.806  27.176  56.260  1.00  0.00    -0.169 F 
ENDBRANCH   8  27
BRANCH   6  31
HETATM   31  C   UNL     1       7.557  25.610  54.662  1.00  0.00     0.075 A 
HETATM   32  O   UNL     1       7.181  24.871  55.748  1.00  0.00    -0.325 OA
HETATM   33  C   UNL     1       6.839  23.638  55.292  1.00  0.00     0.142 A 
HETATM   34  C   UNL     1       6.992  23.570  53.928  1.00  0.00     0.027 A 
HETATM   35  C   UNL     1       7.454  24.843  53.519  1.00  0.00     0.037 A 
ENDBRANCH   6  31
TORSDOF 5
ENDMDL
MODEL 6
REMARK VINA RESULT:      -8.9      7.394     10.217
REMARK  5 active torsions:
REMARK  status: ('A' for Active; 'I' for Inactive)
REMARK    1  A    between atoms: C_3  and  N_4 
REMARK       I    between atoms: N_4  and  C_5 
REMARK    2  A    between atoms: C_9  and  N_10 
REMARK       I    between atoms: N_10  and  C_11 
REMARK    3  A    between atoms: C_11  and  C_12 
REMARK    4  A    between atoms: C_17  and  C_18 
REMARK    5  A    between atoms: C_24  and  C_25 
ROOT
HETATM    1  C   UNL     1       5.219  26.578  50.802  1.00  0.00     0.148 A 
HETATM    2  N   UNL     1       4.779  27.845  50.997  1.00  0.00    -0.165 NA
HETATM    3  N   UNL     1       3.958  28.044  49.949  1.00  0.00    -0.240 N 
HETATM    4  C   UNL     1       3.958  27.031  49.036  1.00  0.00     0.123 A 
HETATM    5  N   UNL     1       3.276  27.140  47.879  1.00  0.00    -0.364 N 
HETATM    6  C   UNL     1       2.922  28.444  47.304  1.00  0.00     0.143 C 
HETATM    7  C   UNL     1       3.230  29.624  48.253  1.00  0.00     0.068 C 
HETATM    8  C   UNL     1       3.214  29.271  49.748  1.00  0.00     0.221 C 
HETATM    9  C   UNL     1       4.708  26.031  49.590  1.00  0.00     0.089 A 
HETATM   10  H   UNL     1       3.323  26.390  47.190  1.00  0.00     0.162 HD
ENDROOT
BRANCH   1  11
HETATM   11  C   UNL     1       6.139  25.902  51.734  1.00  0.00     0.276 C 
HETATM   12  N   UNL     1       5.806  26.124  53.057  1.00  0.00    -0.322 N 
HETATM   13  H   UNL     1       4.983  26.707  53.177  1.00  0.00     0.169 HD
HETATM   14  O   UNL     1       7.093  25.252  51.320  1.00  0.00    -0.266 OA
BRANCH  12  15
HETATM   15  C   UNL     1       6.497  25.697  54.207  1.00  0.00     0.037 A 
HETATM   16  C   UNL     1       6.677  24.356  54.551  1.00  0.00     0.059 A 
HETATM   17  C   UNL     1       7.415  23.965  55.688  1.00  0.00     0.042 A 
HETATM   18  C   UNL     1       7.923  24.956  56.542  1.00  0.00    -0.035 A 
HETATM   19  C   UNL     1       8.614  24.692  57.851  1.00  0.00     0.050 C 
HETATM   20  C   UNL     1       7.750  26.307  56.182  1.00  0.00     0.011 A 
HETATM   21  C   UNL     1       7.045  26.674  55.032  1.00  0.00     0.030 A 
BRANCH  17  22
HETATM   22  N   UNL     1       7.517  22.564  55.865  1.00  0.00    -0.327 N 
HETATM   23  C   UNL     1       8.508  21.711  55.418  1.00  0.00     0.218 C 
HETATM   24  C   UNL     1       8.274  20.290  55.872  1.00  0.00     0.117 C 
HETATM   25  O   UNL     1       9.474  21.993  54.721  1.00  0.00    -0.274 OA
HETATM   26  H   UNL     1       6.654  22.107  56.132  1.00  0.00     0.169 HD
ENDBRANCH  17  22
ENDBRANCH  12  15
ENDBRANCH   1  11
BRANCH   8  27
HETATM   27  C   UNL     1       1.825  29.131  50.326  1.00  0.00     0.409 C 
HETATM   28  F   UNL     1       1.163  28.080  49.787  1.00  0.00    -0.169 F 
HETATM   29  F   UNL     1       1.901  28.888  51.660  1.00  0.00    -0.169 F 
HETATM   30  F   UNL     1       1.047  30.218  50.168  1.00  0.00    -0.169 F 
ENDBRANCH   8  27
BRANCH   6  31
HETATM   31  C   UNL     1       1.530  28.506  46.760  1.00  0.00     0.075 A 
HETATM   32  O   UNL     1       0.972  27.315  46.393  1.00  0.00    -0.325 OA
HETATM   33  C   UNL     1      -0.294  27.577  45.978  1.00  0.00     0.142 A 
HETATM   34  C   UNL     1      -0.561  28.922  46.070  1.00  0.00     0.027 A 
HETATM   35  C   UNL     1       0.615  29.524  46.576  1.00  0.00     0.037 A 
ENDBRANCH   6  31
TORSDOF 5
ENDMDL
MODEL 7
REMARK VINA RESULT:      -8.6      7.344     11.169
REMARK  5 active torsions:
REMARK  status: ('A' for Active; 'I' for Inactive)
REMARK    1  A    between atoms: C_3  and  N_4 
REMARK       I    between atoms: N_4  and  C_5 
REMARK    2  A    between atoms: C_9  and  N_10 
REMARK       I    between atoms: N_10  and  C_11 
REMARK    3  A    between atoms: C_11  and  C_12 
REMARK    4  A    between atoms: C_17  and  C_18 
REMARK    5  A    between atoms: C_24  and  C_25 
ROOT
HETATM    1  C   UNL     1       4.709  27.141  50.744  1.00  0.00     0.148 A 
HETATM    2  N   UNL     1       4.958  27.760  51.924  1.00  0.00    -0.165 NA
HETATM    3  N   UNL     1       5.517  26.784  52.665  1.00  0.00    -0.240 N 
HETATM    4  C   UNL     1       5.512  25.557  52.070  1.00  0.00     0.123 A 
HETATM    5  N   UNL     1       5.932  24.463  52.736  1.00  0.00    -0.364 N 
HETATM    6  C   UNL     1       5.944  24.400  54.202  1.00  0.00     0.143 C 
HETATM    7  C   UNL     1       5.629  25.761  54.865  1.00  0.00     0.068 C 
HETATM    8  C   UNL     1       5.991  26.990  54.019  1.00  0.00     0.221 C 
HETATM    9  C   UNL     1       5.063  25.763  50.795  1.00  0.00     0.089 A 
HETATM   10  H   UNL     1       5.880  23.547  52.289  1.00  0.00     0.162 HD
ENDROOT
BRANCH   1  11
HETATM   11  C   UNL     1       4.113  27.837  49.590  1.00  0.00     0.276 C 
HETATM   12  N   UNL     1       2.754  27.610  49.482  1.00  0.00    -0.322 N 
HETATM   13  H   UNL     1       2.382  27.010  50.214  1.00  0.00     0.169 HD
HETATM   14  O   UNL     1       4.804  28.506  48.829  1.00  0.00    -0.266 OA
BRANCH  12  15
HETATM   15  C   UNL     1       1.879  28.052  48.472  1.00  0.00     0.037 A 
HETATM   16  C   UNL     1       1.572  29.395  48.244  1.00  0.00     0.059 A 
HETATM   17  C   UNL     1       0.726  29.804  47.192  1.00  0.00     0.042 A 
HETATM   18  C   UNL     1       0.115  28.826  46.391  1.00  0.00    -0.035 A 
HETATM   19  C   UNL     1      -0.904  29.103  45.322  1.00  0.00     0.050 C 
HETATM   20  C   UNL     1       0.440  27.473  46.617  1.00  0.00     0.011 A 
HETATM   21  C   UNL     1       1.308  27.091  47.644  1.00  0.00     0.030 A 
BRANCH  17  22
HETATM   22  N   UNL     1       0.549  31.205  47.095  1.00  0.00    -0.327 N 
HETATM   23  C   UNL     1      -0.479  31.978  47.600  1.00  0.00     0.218 C 
HETATM   24  C   UNL     1      -0.262  33.448  47.330  1.00  0.00     0.117 C 
HETATM   25  O   UNL     1      -1.482  31.592  48.185  1.00  0.00    -0.274 OA
HETATM   26  H   UNL     1       1.101  31.653  46.374  1.00  0.00     0.169 HD
ENDBRANCH  17  22
ENDBRANCH  12  15
ENDBRANCH   1  11
BRANCH   8  27
HETATM   27  C   UNL     1       7.469  27.306  54.004  1.00  0.00     0.409 C 
HETATM   28  F   UNL     1       7.699  28.604  53.696  1.00  0.00    -0.169 F 
HETATM   29  F   UNL     1       7.997  27.108  55.239  1.00  0.00    -0.169 F 
HETATM   30  F   UNL     1       8.186  26.556  53.145  1.00  0.00    -0.169 F 
ENDBRANCH   8  27
BRANCH   6  31
HETATM   31  C   UNL     1       7.175  23.768  54.770  1.00  0.00     0.075 A 
HETATM   32  O   UNL     1       7.275  23.762  56.132  1.00  0.00    -0.325 OA
HETATM   33  C   UNL     1       8.423  23.108  56.445  1.00  0.00     0.142 A 
HETATM   34  C   UNL     1       9.068  22.696  55.303  1.00  0.00     0.027 A 
HETATM   35  C   UNL     1       8.263  23.120  54.221  1.00  0.00     0.037 A 
ENDBRANCH   6  31
TORSDOF 5
ENDMDL
MODEL 8
REMARK VINA RESULT:      -8.6      4.285     10.775
REMARK  5 active torsions:
REMARK  status: ('A' for Active; 'I' for Inactive)
REMARK    1  A    between atoms: C_3  and  N_4 
REMARK       I    between atoms: N_4  and  C_5 
REMARK    2  A    between atoms: C_9  and  N_10 
REMARK       I    between atoms: N_10  and  C_11 
REMARK    3  A    between atoms: C_11  and  C_12 
REMARK    4  A    between atoms: C_17  and  C_18 
REMARK    5  A    between atoms: C_24  and  C_25 
ROOT
HETATM    1  C   UNL     1       5.643  32.917  60.657  1.00  0.00     0.148 A 
HETATM    2  N   UNL     1       5.024  34.079  60.978  1.00  0.00    -0.165 NA
HETATM    3  N   UNL     1       5.059  34.080  62.324  1.00  0.00    -0.240 N 
HETATM    4  C   UNL     1       5.543  32.929  62.872  1.00  0.00     0.123 A 
HETATM    5  N   UNL     1       5.531  32.738  64.206  1.00  0.00    -0.364 N 
HETATM    6  C   UNL     1       4.606  33.461  65.087  1.00  0.00     0.143 C 
HETATM    7  C   UNL     1       3.824  34.576  64.355  1.00  0.00     0.068 C 
HETATM    8  C   UNL     1       4.536  35.165  63.129  1.00  0.00     0.221 C 
HETATM    9  C   UNL     1       5.999  32.179  61.823  1.00  0.00     0.089 A 
HETATM   10  H   UNL     1       5.856  31.853  64.594  1.00  0.00     0.162 HD
ENDROOT
BRANCH   1  11
HETATM   11  C   UNL     1       5.867  32.491  59.265  1.00  0.00     0.276 C 
HETATM   12  N   UNL     1       6.426  31.229  59.183  1.00  0.00    -0.322 N 
HETATM   13  H   UNL     1       6.585  30.795  60.088  1.00  0.00     0.169 HD
HETATM   14  O   UNL     1       5.594  33.231  58.326  1.00  0.00    -0.266 OA
BRANCH  12  15
HETATM   15  C   UNL     1       6.837  30.538  58.028  1.00  0.00     0.037 A 
HETATM   16  C   UNL     1       5.997  30.260  56.948  1.00  0.00     0.059 A 
HETATM   17  C   UNL     1       6.458  29.605  55.787  1.00  0.00     0.042 A 
HETATM   18  C   UNL     1       7.786  29.152  55.744  1.00  0.00    -0.035 A 
HETATM   19  C   UNL     1       8.379  28.329  54.634  1.00  0.00     0.050 C 
HETATM   20  C   UNL     1       8.633  29.447  56.831  1.00  0.00     0.011 A 
HETATM   21  C   UNL     1       8.165  30.128  57.959  1.00  0.00     0.030 A 
BRANCH  17  22
HETATM   22  N   UNL     1       5.474  29.433  54.784  1.00  0.00    -0.327 N 
HETATM   23  C   UNL     1       4.809  28.277  54.422  1.00  0.00     0.218 C 
HETATM   24  C   UNL     1       3.787  28.532  53.340  1.00  0.00     0.117 C 
HETATM   25  O   UNL     1       4.985  27.148  54.862  1.00  0.00    -0.274 OA
HETATM   26  H   UNL     1       5.432  30.177  54.099  1.00  0.00     0.169 HD
ENDBRANCH  17  22
ENDBRANCH  12  15
ENDBRANCH   1  11
BRANCH   8  27
HETATM   27  C   UNL     1       5.646  36.130  63.475  1.00  0.00     0.409 C 
HETATM   28  F   UNL     1       5.913  36.973  62.450  1.00  0.00    -0.169 F 
HETATM   29  F   UNL     1       5.271  36.911  64.521  1.00  0.00    -0.169 F 
HETATM   30  F   UNL     1       6.806  35.539  63.821  1.00  0.00    -0.169 F 
ENDBRANCH   8  27
BRANCH   6  31
HETATM   31  C   UNL     1       5.236  33.952  66.352  1.00  0.00     0.075 A 
HETATM   32  O   UNL     1       4.395  34.133  67.413  1.00  0.00    -0.325 OA
HETATM   33  C   UNL     1       5.158  34.529  68.464  1.00  0.00     0.142 A 
HETATM   34  C   UNL     1       6.480  34.610  68.095  1.00  0.00     0.027 A 
HETATM   35  C   UNL     1       6.532  34.237  66.732  1.00  0.00     0.037 A 
ENDBRANCH   6  31
TORSDOF 5
ENDMDL
MODEL 9
REMARK VINA RESULT:      -8.6      2.432      3.403
REMARK  5 active torsions:
REMARK  status: ('A' for Active; 'I' for Inactive)
REMARK    1  A    between atoms: C_3  and  N_4 
REMARK       I    between atoms: N_4  and  C_5 
REMARK    2  A    between atoms: C_9  and  N_10 
REMARK       I    between atoms: N_10  and  C_11 
REMARK    3  A    between atoms: C_11  and  C_12 
REMARK    4  A    between atoms: C_17  and  C_18 
REMARK    5  A    between atoms: C_24  and  C_25 
ROOT
HETATM    1  C   UNL     1       6.743  28.235  56.082  1.00  0.00     0.148 A 
HETATM    2  N   UNL     1       6.439  27.981  54.786  1.00  0.00    -0.165 NA
HETATM    3  N   UNL     1       6.835  26.705  54.626  1.00  0.00    -0.240 N 
HETATM    4  C   UNL     1       7.492  26.184  55.702  1.00  0.00     0.123 A 
HETATM    5  N   UNL     1       8.049  24.957  55.646  1.00  0.00    -0.364 N 
HETATM    6  C   UNL     1       8.424  24.329  54.373  1.00  0.00     0.143 C 
HETATM    7  C   UNL     1       7.929  25.122  53.142  1.00  0.00     0.068 C 
HETATM    8  C   UNL     1       6.674  25.974  53.385  1.00  0.00     0.221 C 
HETATM    9  C   UNL     1       7.388  27.121  56.691  1.00  0.00     0.089 A 
HETATM   10  H   UNL     1       8.574  24.603  56.446  1.00  0.00     0.162 HD
ENDROOT
BRANCH   1  11
HETATM   11  C   UNL     1       6.458  29.528  56.729  1.00  0.00     0.276 C 
HETATM   12  N   UNL     1       7.036  29.630  57.980  1.00  0.00    -0.322 N 
HETATM   13  H   UNL     1       7.568  28.807  58.251  1.00  0.00     0.169 HD
HETATM   14  O   UNL     1       5.754  30.368  56.179  1.00  0.00    -0.266 OA
BRANCH  12  15
HETATM   15  C   UNL     1       6.917  30.684  58.906  1.00  0.00     0.037 A 
HETATM   16  C   UNL     1       5.938  31.676  58.831  1.00  0.00     0.059 A 
HETATM   17  C   UNL     1       5.822  32.691  59.803  1.00  0.00     0.042 A 
HETATM   18  C   UNL     1       6.765  32.749  60.842  1.00  0.00    -0.035 A 
HETATM   19  C   UNL     1       6.845  33.842  61.871  1.00  0.00     0.050 C 
HETATM   20  C   UNL     1       7.742  31.737  60.919  1.00  0.00     0.011 A 
HETATM   21  C   UNL     1       7.820  30.719  59.964  1.00  0.00     0.030 A 
BRANCH  17  22
HETATM   22  N   UNL     1       4.755  33.594  59.581  1.00  0.00    -0.327 N 
HETATM   23  C   UNL     1       3.398  33.370  59.710  1.00  0.00     0.218 C 
HETATM   24  C   UNL     1       2.592  34.617  59.437  1.00  0.00     0.117 C 
HETATM   25  O   UNL     1       2.840  32.315  59.988  1.00  0.00    -0.274 OA
HETATM   26  H   UNL     1       4.998  34.412  59.035  1.00  0.00     0.169 HD
ENDBRANCH  17  22
ENDBRANCH  12  15
ENDBRANCH   1  11
BRANCH   8  27
HETATM   27  C   UNL     1       5.393  25.175  53.422  1.00  0.00     0.409 C 
HETATM   28  F   UNL     1       5.476  24.061  52.656  1.00  0.00    -0.169 F 
HETATM   29  F   UNL     1       5.149  24.748  54.688  1.00  0.00    -0.169 F 
HETATM   30  F   UNL     1       4.303  25.857  53.021  1.00  0.00    -0.169 F 
ENDBRANCH   8  27
BRANCH   6  31
HETATM   31  C   UNL     1       8.069  22.878  54.288  1.00  0.00     0.075 A 
HETATM   32  O   UNL     1       8.099  22.323  53.041  1.00  0.00    -0.325 OA
HETATM   33  C   UNL     1       7.799  21.007  53.183  1.00  0.00     0.142 A 
HETATM   34  C   UNL     1       7.574  20.704  54.504  1.00  0.00     0.027 A 
HETATM   35  C   UNL     1       7.749  21.911  55.220  1.00  0.00     0.037 A 
ENDBRANCH   6  31
TORSDOF 5
ENDMDL
MODEL 10
REMARK VINA RESULT:      -8.5      2.282      3.178
REMARK  5 active torsions:
REMARK  status: ('A' for Active; 'I' for Inactive)
REMARK    1  A    between atoms: C_3  and  N_4 
REMARK       I    between atoms: N_4  and  C_5 
REMARK    2  A    between atoms: C_9  and  N_10 
REMARK       I    between atoms: N_10  and  C_11 
REMARK    3  A    between atoms: C_11  and  C_12 
REMARK    4  A    between atoms: C_17  and  C_18 
REMARK    5  A    between atoms: C_24  and  C_25 
ROOT
HETATM    1  C   UNL     1       6.483  30.275  57.821  1.00  0.00     0.148 A 
HETATM    2  N   UNL     1       7.618  29.703  57.354  1.00  0.00    -0.165 NA
HETATM    3  N   UNL     1       7.159  28.662  56.635  1.00  0.00    -0.240 N 
HETATM    4  C   UNL     1       5.812  28.466  56.731  1.00  0.00     0.123 A 
HETATM    5  N   UNL     1       5.226  27.394  56.162  1.00  0.00    -0.364 N 
HETATM    6  C   UNL     1       5.973  26.169  55.853  1.00  0.00     0.143 C 
HETATM    7  C   UNL     1       7.497  26.326  56.058  1.00  0.00     0.068 C 
HETATM    8  C   UNL     1       8.025  27.760  55.903  1.00  0.00     0.221 C 
HETATM    9  C   UNL     1       5.330  29.535  57.433  1.00  0.00     0.089 A 
HETATM   10  H   UNL     1       4.224  27.242  56.281  1.00  0.00     0.162 HD
ENDROOT
BRANCH   1  11
HETATM   11  C   UNL     1       6.487  31.491  58.654  1.00  0.00     0.276 C 
HETATM   12  N   UNL     1       5.228  31.815  59.122  1.00  0.00    -0.322 N 
HETATM   13  H   UNL     1       4.505  31.164  58.827  1.00  0.00     0.169 HD
HETATM   14  O   UNL     1       7.522  32.120  58.849  1.00  0.00    -0.266 OA
BRANCH  12  15
HETATM   15  C   UNL     1       4.848  32.938  59.880  1.00  0.00     0.037 A 
HETATM   16  C   UNL     1       5.049  33.050  61.257  1.00  0.00     0.059 A 
HETATM   17  C   UNL     1       4.697  34.211  61.976  1.00  0.00     0.042 A 
HETATM   18  C   UNL     1       4.056  35.261  61.300  1.00  0.00    -0.035 A 
HETATM   19  C   UNL     1       3.509  36.499  61.954  1.00  0.00     0.050 C 
HETATM   20  C   UNL     1       3.868  35.148  59.907  1.00  0.00     0.011 A 
HETATM   21  C   UNL     1       4.256  34.002  59.207  1.00  0.00     0.030 A 
BRANCH  17  22
HETATM   22  N   UNL     1       4.999  34.157  63.358  1.00  0.00    -0.327 N 
HETATM   23  C   UNL     1       4.135  33.971  64.420  1.00  0.00     0.218 C 
HETATM   24  C   UNL     1       4.868  33.916  65.738  1.00  0.00     0.117 C 
HETATM   25  O   UNL     1       2.915  33.874  64.379  1.00  0.00    -0.274 OA
HETATM   26  H   UNL     1       5.902  34.540  63.609  1.00  0.00     0.169 HD
ENDBRANCH  17  22
ENDBRANCH  12  15
ENDBRANCH   1  11
BRANCH   8  27
HETATM   27  C   UNL     1       8.142  28.214  54.466  1.00  0.00     0.409 C 
HETATM   28  F   UNL     1       7.060  28.927  54.077  1.00  0.00    -0.169 F 
HETATM   29  F   UNL     1       9.211  29.040  54.327  1.00  0.00    -0.169 F 
HETATM   30  F   UNL     1       8.303  27.212  53.581  1.00  0.00    -0.169 F 
ENDBRANCH   8  27
BRANCH   6  31
HETATM   31  C   UNL     1       5.643  25.580  54.518  1.00  0.00     0.075 A 
HETATM   32  O   UNL     1       6.444  24.558  54.096  1.00  0.00    -0.325 OA
HETATM   33  C   UNL     1       5.955  24.134  52.903  1.00  0.00     0.142 A 
HETATM   34  C   UNL     1       4.850  24.869  52.547  1.00  0.00     0.027 A 
HETATM   35  C   UNL     1       4.646  25.803  53.590  1.00  0.00     0.037 A 
ENDBRANCH   6  31
TORSDOF 5
ENDMDL
