MODEL 1
REMARK VINA RESULT:     -10.3      0.000      0.000
REMARK  6 active torsions:
REMARK  status: ('A' for Active; 'I' for Inactive)
REMARK    1  A    between atoms: C_3  and  C_4 
REMARK    2  A    between atoms: C_4  and  C_5 
REMARK       I    between atoms: C_5  and  N_6 
REMARK    3  A    between atoms: N_6  and  C_7 
REMARK    4  A    between atoms: C_7  and  C_8 
REMARK    5  A    between atoms: C_8  and  C_9 
REMARK    6  A    between atoms: C_27  and  O_28 
ROOT
HETATM    1  C   UNL     1       6.484  28.482  56.519  1.00  0.00     0.222 C 
HETATM    2  N   UNL     1       6.364  27.946  55.250  1.00  0.00    -0.360 N 
HETATM    3  O   UNL     1       6.184  27.893  57.551  1.00  0.00    -0.273 OA
HETATM    4  H   UNL     1       6.980  28.358  54.559  1.00  0.00     0.162 HD
ENDROOT
BRANCH   1   5
HETATM    5  C   UNL     1       7.040  29.909  56.520  1.00  0.00     0.148 C 
BRANCH   5   6
HETATM    6  C   UNL     1       7.343  30.456  57.898  1.00  0.00     0.033 C 
HETATM    7  C   UNL     1       6.592  31.380  58.542  1.00  0.00    -0.036 C 
HETATM    8  C   UNL     1       5.366  32.032  57.955  1.00  0.00     0.050 C 
HETATM    9  C   UNL     1       6.998  31.799  59.900  1.00  0.00     0.006 A 
HETATM   10  C   UNL     1       7.996  31.072  60.551  1.00  0.00     0.093 A 
HETATM   11  C   UNL     1       6.423  32.871  60.596  1.00  0.00     0.041 A 
HETATM   12  O   UNL     1       8.694  30.049  59.896  1.00  0.00    -0.274 OA
HETATM   13  C   UNL     1       8.397  31.348  61.861  1.00  0.00     0.076 A 
HETATM   14  C   UNL     1       8.610  29.981  58.521  1.00  0.00     0.295 C 
HETATM   15  O   UNL     1       9.536  29.543  57.846  1.00  0.00    -0.259 OA
HETATM   16  C   UNL     1       7.810  32.412  62.534  1.00  0.00     0.090 A 
HETATM   17  C   UNL     1       6.833  33.183  61.899  1.00  0.00     0.068 A 
HETATM   18 CL   UNL     1       6.104  34.536  62.687  1.00  0.00    -0.081 Cl
BRANCH  16  19
HETATM   19  O   UNL     1       8.199  32.711  63.809  1.00  0.00    -0.359 OA
HETATM   20  H   UNL     1       7.552  33.311  64.217  1.00  0.00     0.218 HD
ENDBRANCH  16  19
ENDBRANCH   5   6
ENDBRANCH   1   5
BRANCH   2  21
HETATM   21  C   UNL     1       6.124  26.527  55.054  1.00  0.00     0.127 C 
BRANCH  21  22
HETATM   22  C   UNL     1       7.353  25.733  54.607  1.00  0.00     0.060 C 
BRANCH  22  23
HETATM   23  C   UNL     1       7.659  24.633  55.580  1.00  0.00    -0.029 A 
HETATM   24  C   UNL     1       7.926  23.259  55.271  1.00  0.00    -0.000 A 
HETATM   25  C   UNL     1       8.227  22.611  56.470  1.00  0.00     0.043 A 
HETATM   26  C   UNL     1       7.954  22.510  54.076  1.00  0.00     0.038 A 
HETATM   27  C   UNL     1       8.564  21.253  56.537  1.00  0.00     0.032 A 
HETATM   28  N   UNL     1       8.128  23.549  57.471  1.00  0.00    -0.365 N 
HETATM   29  C   UNL     1       8.584  20.532  55.340  1.00  0.00     0.026 A 
HETATM   30  C   UNL     1       8.281  21.152  54.131  1.00  0.00     0.035 A 
HETATM   31 CL   UNL     1       8.312  20.231  52.674  1.00  0.00    -0.084 Cl
HETATM   32  H   UNL     1       8.298  23.362  58.449  1.00  0.00     0.165 HD
HETATM   33  C   UNL     1       7.786  24.765  56.949  1.00  0.00     0.096 A 
ENDBRANCH  22  23
ENDBRANCH  21  22
ENDBRANCH   2  21
TORSDOF 6
ENDMDL
MODEL 2
REMARK VINA RESULT:     -10.3      2.523     10.373
REMARK  6 active torsions:
REMARK  status: ('A' for Active; 'I' for Inactive)
REMARK    1  A    between atoms: C_3  and  C_4 
REMARK    2  A    between atoms: C_4  and  C_5 
REMARK       I    between atoms: C_5  and  N_6 
REMARK    3  A    between atoms: N_6  and  C_7 
REMARK    4  A    between atoms: C_7  and  C_8 
REMARK    5  A    between atoms: C_8  and  C_9 
REMARK    6  A    between atoms: C_27  and  O_28 
ROOT
HETATM    1  C   UNL     1       7.589  28.291  55.892  1.00  0.00     0.222 C 
HETATM    2  N   UNL     1       7.115  28.744  57.109  1.00  0.00    -0.360 N 
HETATM    3  O   UNL     1       8.675  28.598  55.413  1.00  0.00    -0.273 OA
HETATM    4  H   UNL     1       6.426  28.140  57.543  1.00  0.00     0.162 HD
ENDROOT
BRANCH   1   5
HETATM    5  C   UNL     1       6.615  27.348  55.178  1.00  0.00     0.148 C 
BRANCH   5   6
HETATM    6  C   UNL     1       6.970  25.883  55.297  1.00  0.00     0.033 C 
HETATM    7  C   UNL     1       7.367  25.100  54.266  1.00  0.00    -0.036 C 
HETATM    8  C   UNL     1       7.468  25.570  52.838  1.00  0.00     0.050 C 
HETATM    9  C   UNL     1       7.708  23.688  54.541  1.00  0.00     0.006 A 
HETATM   10  C   UNL     1       7.827  23.279  55.870  1.00  0.00     0.093 A 
HETATM   11  C   UNL     1       7.951  22.731  53.546  1.00  0.00     0.041 A 
HETATM   12  O   UNL     1       7.506  24.139  56.927  1.00  0.00    -0.274 OA
HETATM   13  C   UNL     1       8.215  21.985  56.228  1.00  0.00     0.076 A 
HETATM   14  C   UNL     1       6.776  25.275  56.643  1.00  0.00     0.295 C 
HETATM   15  O   UNL     1       6.009  25.762  57.466  1.00  0.00    -0.259 OA
HETATM   16  C   UNL     1       8.455  21.053  55.225  1.00  0.00     0.090 A 
HETATM   17  C   UNL     1       8.311  21.420  53.885  1.00  0.00     0.068 A 
HETATM   18 CL   UNL     1       8.566  20.284  52.610  1.00  0.00    -0.081 Cl
BRANCH  16  19
HETATM   19  O   UNL     1       8.818  19.777  55.552  1.00  0.00    -0.359 OA
HETATM   20  H   UNL     1       8.279  19.464  56.298  1.00  0.00     0.218 HD
ENDBRANCH  16  19
ENDBRANCH   5   6
ENDBRANCH   1   5
BRANCH   2  21
HETATM   21  C   UNL     1       7.992  29.412  58.054  1.00  0.00     0.127 C 
BRANCH  21  22
HETATM   22  C   UNL     1       7.436  30.722  58.617  1.00  0.00     0.060 C 
BRANCH  22  23
HETATM   23  C   UNL     1       8.019  31.009  59.969  1.00  0.00    -0.029 A 
HETATM   24  C   UNL     1       7.492  31.899  60.962  1.00  0.00    -0.000 A 
HETATM   25  C   UNL     1       8.313  31.802  62.087  1.00  0.00     0.043 A 
HETATM   26  C   UNL     1       6.381  32.766  61.012  1.00  0.00     0.038 A 
HETATM   27  C   UNL     1       8.076  32.522  63.265  1.00  0.00     0.032 A 
HETATM   28  N   UNL     1       9.310  30.906  61.783  1.00  0.00    -0.365 N 
HETATM   29  C   UNL     1       6.970  33.377  63.290  1.00  0.00     0.026 A 
HETATM   30  C   UNL     1       6.139  33.496  62.180  1.00  0.00     0.035 A 
HETATM   31 CL   UNL     1       4.785  34.561  62.245  1.00  0.00    -0.084 Cl
HETATM   32  H   UNL     1      10.050  30.635  62.416  1.00  0.00     0.165 HD
HETATM   33  C   UNL     1       9.145  30.425  60.514  1.00  0.00     0.096 A 
ENDBRANCH  22  23
ENDBRANCH  21  22
ENDBRANCH   2  21
TORSDOF 6
ENDMDL
MODEL 3
REMARK VINA RESULT:     -10.1      1.816      2.777
REMARK  6 active torsions:
REMARK  status: ('A' for Active; 'I' for Inactive)
REMARK    1  A    between atoms: C_3  and  C_4 
REMARK    2  A    between atoms: C_4  and  C_5 
REMARK       I    between atoms: C_5  and  N_6 
REMARK    3  A    between atoms: N_6  and  C_7 
REMARK    4  A    between atoms: C_7  and  C_8 
REMARK    5  A    between atoms: C_8  and  C_9 
REMARK    6  A    between atoms: C_27  and  O_28 
ROOT
HETATM    1  C   UNL     1       7.383  30.090  58.509  1.00  0.00     0.222 C 
HETATM    2  N   UNL     1       6.193  29.751  57.892  1.00  0.00    -0.360 N 
HETATM    3  O   UNL     1       8.212  29.280  58.908  1.00  0.00    -0.273 OA
HETATM    4  H   UNL     1       5.810  30.472  57.292  1.00  0.00     0.162 HD
ENDROOT
BRANCH   1   5
HETATM    5  C   UNL     1       7.580  31.602  58.651  1.00  0.00     0.148 C 
BRANCH   5   6
HETATM    6  C   UNL     1       7.530  32.103  60.078  1.00  0.00     0.033 C 
HETATM    7  C   UNL     1       6.411  32.531  60.705  1.00  0.00    -0.036 C 
HETATM    8  C   UNL     1       5.054  32.612  60.053  1.00  0.00     0.050 C 
HETATM    9  C   UNL     1       6.512  32.968  62.114  1.00  0.00     0.006 A 
HETATM   10  C   UNL     1       7.696  32.712  62.806  1.00  0.00     0.093 A 
HETATM   11  C   UNL     1       5.477  33.602  62.816  1.00  0.00     0.041 A 
HETATM   12  O   UNL     1       8.815  32.174  62.158  1.00  0.00    -0.274 OA
HETATM   13  C   UNL     1       7.861  33.023  64.158  1.00  0.00     0.076 A 
HETATM   14  C   UNL     1       8.841  32.196  60.778  1.00  0.00     0.295 C 
HETATM   15  O   UNL     1       9.898  32.281  60.162  1.00  0.00    -0.259 OA
HETATM   16  C   UNL     1       6.821  33.647  64.837  1.00  0.00     0.090 A 
HETATM   17  C   UNL     1       5.634  33.949  64.164  1.00  0.00     0.068 A 
HETATM   18 CL   UNL     1       4.331  34.755  64.961  1.00  0.00    -0.081 Cl
BRANCH  16  19
HETATM   19  O   UNL     1       6.966  33.976  66.155  1.00  0.00    -0.359 OA
HETATM   20  H   UNL     1       7.244  34.904  66.233  1.00  0.00     0.218 HD
ENDBRANCH  16  19
ENDBRANCH   5   6
ENDBRANCH   1   5
BRANCH   2  21
HETATM   21  C   UNL     1       5.951  28.400  57.418  1.00  0.00     0.127 C 
BRANCH  21  22
HETATM   22  C   UNL     1       6.923  27.925  56.336  1.00  0.00     0.060 C 
BRANCH  22  23
HETATM   23  C   UNL     1       7.274  26.480  56.535  1.00  0.00    -0.029 A 
HETATM   24  C   UNL     1       7.524  25.506  55.513  1.00  0.00    -0.000 A 
HETATM   25  C   UNL     1       7.883  24.317  56.148  1.00  0.00     0.043 A 
HETATM   26  C   UNL     1       7.491  25.534  54.103  1.00  0.00     0.038 A 
HETATM   27  C   UNL     1       8.221  23.152  55.447  1.00  0.00     0.032 A 
HETATM   28  N   UNL     1       7.835  24.552  57.502  1.00  0.00    -0.365 N 
HETATM   29  C   UNL     1       8.181  23.203  54.050  1.00  0.00     0.026 A 
HETATM   30  C   UNL     1       7.819  24.375  53.392  1.00  0.00     0.035 A 
HETATM   31 CL   UNL     1       7.777  24.401  51.669  1.00  0.00    -0.084 Cl
HETATM   32  H   UNL     1       8.053  23.865  58.211  1.00  0.00     0.165 HD
HETATM   33  C   UNL     1       7.469  25.846  57.746  1.00  0.00     0.096 A 
ENDBRANCH  22  23
ENDBRANCH  21  22
ENDBRANCH   2  21
TORSDOF 6
ENDMDL
MODEL 4
REMARK VINA RESULT:     -10.1      1.413      2.051
REMARK  6 active torsions:
REMARK  status: ('A' for Active; 'I' for Inactive)
REMARK    1  A    between atoms: C_3  and  C_4 
REMARK    2  A    between atoms: C_4  and  C_5 
REMARK       I    between atoms: C_5  and  N_6 
REMARK    3  A    between atoms: N_6  and  C_7 
REMARK    4  A    between atoms: C_7  and  C_8 
REMARK    5  A    between atoms: C_8  and  C_9 
REMARK    6  A    between atoms: C_27  and  O_28 
ROOT
HETATM    1  C   UNL     1       7.338  28.249  57.153  1.00  0.00     0.222 C 
HETATM    2  N   UNL     1       6.593  27.824  56.069  1.00  0.00    -0.360 N 
HETATM    3  O   UNL     1       7.651  27.537  58.101  1.00  0.00    -0.273 OA
HETATM    4  H   UNL     1       6.735  28.364  55.223  1.00  0.00     0.162 HD
ENDROOT
BRANCH   1   5
HETATM    5  C   UNL     1       7.749  29.722  57.063  1.00  0.00     0.148 C 
BRANCH   5   6
HETATM    6  C   UNL     1       7.214  30.586  58.183  1.00  0.00     0.033 C 
HETATM    7  C   UNL     1       7.906  30.919  59.298  1.00  0.00    -0.036 C 
HETATM    8  C   UNL     1       9.301  30.436  59.603  1.00  0.00     0.050 C 
HETATM    9  C   UNL     1       7.259  31.797  60.296  1.00  0.00     0.006 A 
HETATM   10  C   UNL     1       6.062  32.426  59.953  1.00  0.00     0.093 A 
HETATM   11  C   UNL     1       7.788  32.063  61.566  1.00  0.00     0.041 A 
HETATM   12  O   UNL     1       5.411  32.141  58.746  1.00  0.00    -0.274 OA
HETATM   13  C   UNL     1       5.414  33.327  60.802  1.00  0.00     0.076 A 
HETATM   14  C   UNL     1       5.792  31.011  58.052  1.00  0.00     0.295 C 
HETATM   15  O   UNL     1       4.995  30.391  57.356  1.00  0.00    -0.259 OA
HETATM   16  C   UNL     1       5.958  33.581  62.055  1.00  0.00     0.090 A 
HETATM   17  C   UNL     1       7.137  32.940  62.444  1.00  0.00     0.068 A 
HETATM   18 CL   UNL     1       7.827  33.201  64.006  1.00  0.00    -0.081 Cl
BRANCH  16  19
HETATM   19  O   UNL     1       5.332  34.445  62.909  1.00  0.00    -0.359 OA
HETATM   20  H   UNL     1       4.393  34.208  62.985  1.00  0.00     0.218 HD
ENDBRANCH  16  19
ENDBRANCH   5   6
ENDBRANCH   1   5
BRANCH   2  21
HETATM   21  C   UNL     1       6.349  26.412  55.833  1.00  0.00     0.127 C 
BRANCH  21  22
HETATM   22  C   UNL     1       7.529  25.660  55.214  1.00  0.00     0.060 C 
BRANCH  22  23
HETATM   23  C   UNL     1       7.862  24.439  56.019  1.00  0.00    -0.029 A 
HETATM   24  C   UNL     1       8.035  23.104  55.527  1.00  0.00    -0.000 A 
HETATM   25  C   UNL     1       8.406  22.304  56.610  1.00  0.00     0.043 A 
HETATM   26  C   UNL     1       7.925  22.506  54.255  1.00  0.00     0.038 A 
HETATM   27  C   UNL     1       8.681  20.936  56.486  1.00  0.00     0.032 A 
HETATM   28  N   UNL     1       8.437  23.116  57.719  1.00  0.00    -0.365 N 
HETATM   29  C   UNL     1       8.564  20.366  55.215  1.00  0.00     0.026 A 
HETATM   30  C   UNL     1       8.190  21.140  54.120  1.00  0.00     0.035 A 
HETATM   31 CL   UNL     1       8.053  20.402  52.568  1.00  0.00    -0.084 Cl
HETATM   32  H   UNL     1       8.680  22.806  58.650  1.00  0.00     0.165 HD
HETATM   33  C   UNL     1       8.111  24.399  57.377  1.00  0.00     0.096 A 
ENDBRANCH  22  23
ENDBRANCH  21  22
ENDBRANCH   2  21
TORSDOF 6
ENDMDL
MODEL 5
REMARK VINA RESULT:     -10.0      5.793      9.634
REMARK  6 active torsions:
REMARK  status: ('A' for Active; 'I' for Inactive)
REMARK    1  A    between atoms: C_3  and  C_4 
REMARK    2  A    between atoms: C_4  and  C_5 
REMARK       I    between atoms: C_5  and  N_6 
REMARK    3  A    between atoms: N_6  and  C_7 
REMARK    4  A    between atoms: C_7  and  C_8 
REMARK    5  A    between atoms: C_8  and  C_9 
REMARK    6  A    between atoms: C_27  and  O_28 
ROOT
HETATM    1  C   UNL     1       5.915  27.670  54.341  1.00  0.00     0.222 C 
HETATM    2  N   UNL     1       6.047  28.769  53.513  1.00  0.00    -0.360 N 
HETATM    3  O   UNL     1       4.874  27.044  54.502  1.00  0.00    -0.273 OA
HETATM    4  H   UNL     1       6.990  28.937  53.183  1.00  0.00     0.162 HD
ENDROOT
BRANCH   1   5
HETATM    5  C   UNL     1       7.218  27.291  55.053  1.00  0.00     0.148 C 
BRANCH   5   6
HETATM    6  C   UNL     1       7.442  25.801  55.187  1.00  0.00     0.033 C 
HETATM    7  C   UNL     1       7.772  24.977  54.166  1.00  0.00    -0.036 C 
HETATM    8  C   UNL     1       7.920  25.422  52.733  1.00  0.00     0.050 C 
HETATM    9  C   UNL     1       7.986  23.543  54.455  1.00  0.00     0.006 A 
HETATM   10  C   UNL     1       8.063  23.138  55.788  1.00  0.00     0.093 A 
HETATM   11  C   UNL     1       8.147  22.559  53.470  1.00  0.00     0.041 A 
HETATM   12  O   UNL     1       7.815  24.033  56.835  1.00  0.00    -0.274 OA
HETATM   13  C   UNL     1       8.333  21.818  56.160  1.00  0.00     0.076 A 
HETATM   14  C   UNL     1       7.189  25.226  56.537  1.00  0.00     0.295 C 
HETATM   15  O   UNL     1       6.465  25.787  57.353  1.00  0.00    -0.259 OA
HETATM   16  C   UNL     1       8.494  20.859  55.167  1.00  0.00     0.090 A 
HETATM   17  C   UNL     1       8.389  21.224  53.823  1.00  0.00     0.068 A 
HETATM   18 CL   UNL     1       8.547  20.057  52.560  1.00  0.00    -0.081 Cl
BRANCH  16  19
HETATM   19  O   UNL     1       8.742  19.559  55.508  1.00  0.00    -0.359 OA
HETATM   20  H   UNL     1       8.341  18.966  54.850  1.00  0.00     0.218 HD
ENDBRANCH  16  19
ENDBRANCH   5   6
ENDBRANCH   1   5
BRANCH   2  21
HETATM   21  C   UNL     1       5.015  29.111  52.549  1.00  0.00     0.127 C 
BRANCH  21  22
HETATM   22  C   UNL     1       5.459  29.019  51.088  1.00  0.00     0.060 C 
BRANCH  22  23
HETATM   23  C   UNL     1       4.824  27.839  50.413  1.00  0.00    -0.029 A 
HETATM   24  C   UNL     1       3.958  27.864  49.270  1.00  0.00    -0.000 A 
HETATM   25  C   UNL     1       3.662  26.540  48.941  1.00  0.00     0.043 A 
HETATM   26  C   UNL     1       3.411  28.894  48.476  1.00  0.00     0.038 A 
HETATM   27  C   UNL     1       2.854  26.190  47.852  1.00  0.00     0.032 A 
HETATM   28  N   UNL     1       4.306  25.743  49.858  1.00  0.00    -0.365 N 
HETATM   29  C   UNL     1       2.322  27.227  47.081  1.00  0.00     0.026 A 
HETATM   30  C   UNL     1       2.596  28.556  47.391  1.00  0.00     0.035 A 
HETATM   31 CL   UNL     1       1.921  29.810  46.420  1.00  0.00    -0.084 Cl
HETATM   32  H   UNL     1       4.275  24.733  49.861  1.00  0.00     0.165 HD
HETATM   33  C   UNL     1       5.004  26.512  50.747  1.00  0.00     0.096 A 
ENDBRANCH  22  23
ENDBRANCH  21  22
ENDBRANCH   2  21
TORSDOF 6
ENDMDL
MODEL 6
REMARK VINA RESULT:     -10.0      2.108      3.302
REMARK  6 active torsions:
REMARK  status: ('A' for Active; 'I' for Inactive)
REMARK    1  A    between atoms: C_3  and  C_4 
REMARK    2  A    between atoms: C_4  and  C_5 
REMARK       I    between atoms: C_5  and  N_6 
REMARK    3  A    between atoms: N_6  and  C_7 
REMARK    4  A    between atoms: C_7  and  C_8 
REMARK    5  A    between atoms: C_8  and  C_9 
REMARK    6  A    between atoms: C_27  and  O_28 
ROOT
HETATM    1  C   UNL     1       7.311  30.084  58.468  1.00  0.00     0.222 C 
HETATM    2  N   UNL     1       6.290  29.395  57.840  1.00  0.00    -0.360 N 
HETATM    3  O   UNL     1       8.355  29.573  58.857  1.00  0.00    -0.273 OA
HETATM    4  H   UNL     1       5.697  29.966  57.250  1.00  0.00     0.162 HD
ENDROOT
BRANCH   1   5
HETATM    5  C   UNL     1       7.016  31.578  58.635  1.00  0.00     0.148 C 
BRANCH   5   6
HETATM    6  C   UNL     1       7.074  32.066  60.066  1.00  0.00     0.033 C 
HETATM    7  C   UNL     1       5.993  32.266  60.856  1.00  0.00    -0.036 C 
HETATM    8  C   UNL     1       4.568  32.074  60.404  1.00  0.00     0.050 C 
HETATM    9  C   UNL     1       6.208  32.720  62.246  1.00  0.00     0.006 A 
HETATM   10  C   UNL     1       7.506  32.707  62.757  1.00  0.00     0.093 A 
HETATM   11  C   UNL     1       5.181  33.140  63.102  1.00  0.00     0.041 A 
HETATM   12  O   UNL     1       8.604  32.398  61.945  1.00  0.00    -0.274 OA
HETATM   13  C   UNL     1       7.798  33.050  64.080  1.00  0.00     0.076 A 
HETATM   14  C   UNL     1       8.428  32.419  60.577  1.00  0.00     0.295 C 
HETATM   15  O   UNL     1       9.348  32.709  59.820  1.00  0.00    -0.259 OA
HETATM   16  C   UNL     1       6.764  33.459  64.914  1.00  0.00     0.090 A 
HETATM   17  C   UNL     1       5.457  33.517  64.423  1.00  0.00     0.068 A 
HETATM   18 CL   UNL     1       4.150  34.054  65.415  1.00  0.00    -0.081 Cl
BRANCH  16  19
HETATM   19  O   UNL     1       7.029  33.815  66.206  1.00  0.00    -0.359 OA
HETATM   20  H   UNL     1       7.219  34.767  66.250  1.00  0.00     0.218 HD
ENDBRANCH  16  19
ENDBRANCH   5   6
ENDBRANCH   1   5
BRANCH   2  21
HETATM   21  C   UNL     1       6.490  28.045  57.343  1.00  0.00     0.127 C 
BRANCH  21  22
HETATM   22  C   UNL     1       5.229  27.380  56.788  1.00  0.00     0.060 C 
BRANCH  22  23
HETATM   23  C   UNL     1       5.515  26.706  55.479  1.00  0.00    -0.029 A 
HETATM   24  C   UNL     1       6.204  25.464  55.283  1.00  0.00    -0.000 A 
HETATM   25  C   UNL     1       6.178  25.184  53.916  1.00  0.00     0.043 A 
HETATM   26  C   UNL     1       6.833  24.544  56.147  1.00  0.00     0.038 A 
HETATM   27  C   UNL     1       6.743  24.026  53.366  1.00  0.00     0.032 A 
HETATM   28  N   UNL     1       5.519  26.223  53.303  1.00  0.00    -0.365 N 
HETATM   29  C   UNL     1       7.363  23.130  54.242  1.00  0.00     0.026 A 
HETATM   30  C   UNL     1       7.407  23.388  55.609  1.00  0.00     0.035 A 
HETATM   31 CL   UNL     1       8.182  22.263  56.660  1.00  0.00    -0.084 Cl
HETATM   32  H   UNL     1       5.346  26.286  52.309  1.00  0.00     0.165 HD
HETATM   33  C   UNL     1       5.118  27.143  54.231  1.00  0.00     0.096 A 
ENDBRANCH  22  23
ENDBRANCH  21  22
ENDBRANCH   2  21
TORSDOF 6
ENDMDL
MODEL 7
REMARK VINA RESULT:      -9.9      2.813     10.062
REMARK  6 active torsions:
REMARK  status: ('A' for Active; 'I' for Inactive)
REMARK    1  A    between atoms: C_3  and  C_4 
REMARK    2  A    between atoms: C_4  and  C_5 
REMARK       I    between atoms: C_5  and  N_6 
REMARK    3  A    between atoms: N_6  and  C_7 
REMARK    4  A    between atoms: C_7  and  C_8 
REMARK    5  A    between atoms: C_8  and  C_9 
REMARK    6  A    between atoms: C_27  and  O_28 
ROOT
HETATM    1  C   UNL     1       6.326  28.058  55.159  1.00  0.00     0.222 C 
HETATM    2  N   UNL     1       5.638  29.184  55.574  1.00  0.00    -0.360 N 
HETATM    3  O   UNL     1       7.547  27.979  55.089  1.00  0.00    -0.273 OA
HETATM    4  H   UNL     1       4.713  28.998  55.943  1.00  0.00     0.162 HD
ENDROOT
BRANCH   1   5
HETATM    5  C   UNL     1       5.406  26.892  54.786  1.00  0.00     0.148 C 
BRANCH   5   6
HETATM    6  C   UNL     1       6.133  25.604  54.469  1.00  0.00     0.033 C 
HETATM    7  C   UNL     1       6.545  24.704  55.392  1.00  0.00    -0.036 C 
HETATM    8  C   UNL     1       6.375  24.880  56.879  1.00  0.00     0.050 C 
HETATM    9  C   UNL     1       7.221  23.474  54.928  1.00  0.00     0.006 A 
HETATM   10  C   UNL     1       7.208  23.182  53.564  1.00  0.00     0.093 A 
HETATM   11  C   UNL     1       7.856  22.559  55.779  1.00  0.00     0.041 A 
HETATM   12  O   UNL     1       6.686  24.087  52.631  1.00  0.00    -0.274 OA
HETATM   13  C   UNL     1       7.758  22.009  53.039  1.00  0.00     0.076 A 
HETATM   14  C   UNL     1       6.476  25.389  53.035  1.00  0.00     0.295 C 
HETATM   15  O   UNL     1       6.564  26.324  52.246  1.00  0.00    -0.259 OA
HETATM   16  C   UNL     1       8.379  21.113  53.901  1.00  0.00     0.090 A 
HETATM   17  C   UNL     1       8.440  21.392  55.268  1.00  0.00     0.068 A 
HETATM   18 CL   UNL     1       9.233  20.322  56.368  1.00  0.00    -0.081 Cl
BRANCH  16  19
HETATM   19  O   UNL     1       8.939  19.968  53.408  1.00  0.00    -0.359 OA
HETATM   20  H   UNL     1       8.241  19.376  53.081  1.00  0.00     0.218 HD
ENDBRANCH  16  19
ENDBRANCH   5   6
ENDBRANCH   1   5
BRANCH   2  21
HETATM   21  C   UNL     1       6.324  30.284  56.228  1.00  0.00     0.127 C 
BRANCH  21  22
HETATM   22  C   UNL     1       6.104  30.359  57.740  1.00  0.00     0.060 C 
BRANCH  22  23
HETATM   23  C   UNL     1       7.410  30.520  58.461  1.00  0.00    -0.029 A 
HETATM   24  C   UNL     1       7.635  31.227  59.687  1.00  0.00    -0.000 A 
HETATM   25  C   UNL     1       8.978  31.058  60.027  1.00  0.00     0.043 A 
HETATM   26  C   UNL     1       6.813  31.984  60.549  1.00  0.00     0.038 A 
HETATM   27  C   UNL     1       9.543  31.599  61.188  1.00  0.00     0.032 A 
HETATM   28  N   UNL     1       9.552  30.295  59.036  1.00  0.00    -0.365 N 
HETATM   29  C   UNL     1       8.710  32.346  62.026  1.00  0.00     0.026 A 
HETATM   30  C   UNL     1       7.368  32.535  61.708  1.00  0.00     0.035 A 
HETATM   31 CL   UNL     1       6.369  33.465  62.762  1.00  0.00    -0.084 Cl
HETATM   32  H   UNL     1      10.521  30.010  59.021  1.00  0.00     0.165 HD
HETATM   33  C   UNL     1       8.620  29.969  58.090  1.00  0.00     0.096 A 
ENDBRANCH  22  23
ENDBRANCH  21  22
ENDBRANCH   2  21
TORSDOF 6
ENDMDL
MODEL 8
REMARK VINA RESULT:      -9.9      1.356      1.770
REMARK  6 active torsions:
REMARK  status: ('A' for Active; 'I' for Inactive)
REMARK    1  A    between atoms: C_3  and  C_4 
REMARK    2  A    between atoms: C_4  and  C_5 
REMARK       I    between atoms: C_5  and  N_6 
REMARK    3  A    between atoms: N_6  and  C_7 
REMARK    4  A    between atoms: C_7  and  C_8 
REMARK    5  A    between atoms: C_8  and  C_9 
REMARK    6  A    between atoms: C_27  and  O_28 
ROOT
HETATM    1  C   UNL     1       6.462  28.736  56.700  1.00  0.00     0.222 C 
HETATM    2  N   UNL     1       6.393  28.196  55.429  1.00  0.00    -0.360 N 
HETATM    3  O   UNL     1       6.009  28.202  57.706  1.00  0.00    -0.273 OA
HETATM    4  H   UNL     1       7.110  28.525  54.793  1.00  0.00     0.162 HD
ENDROOT
BRANCH   1   5
HETATM    5  C   UNL     1       7.174  30.092  56.742  1.00  0.00     0.148 C 
BRANCH   5   6
HETATM    6  C   UNL     1       7.430  30.616  58.138  1.00  0.00     0.033 C 
HETATM    7  C   UNL     1       6.653  31.522  58.775  1.00  0.00    -0.036 C 
HETATM    8  C   UNL     1       5.439  32.174  58.164  1.00  0.00     0.050 C 
HETATM    9  C   UNL     1       7.014  31.919  60.153  1.00  0.00     0.006 A 
HETATM   10  C   UNL     1       7.998  31.188  60.820  1.00  0.00     0.093 A 
HETATM   11  C   UNL     1       6.409  32.974  60.850  1.00  0.00     0.041 A 
HETATM   12  O   UNL     1       8.724  30.184  60.168  1.00  0.00    -0.274 OA
HETATM   13  C   UNL     1       8.357  31.444  62.146  1.00  0.00     0.076 A 
HETATM   14  C   UNL     1       8.682  30.140  58.790  1.00  0.00     0.295 C 
HETATM   15  O   UNL     1       9.631  29.722  58.136  1.00  0.00    -0.259 OA
HETATM   16  C   UNL     1       7.741  32.491  62.820  1.00  0.00     0.090 A 
HETATM   17  C   UNL     1       6.777  33.265  62.170  1.00  0.00     0.068 A 
HETATM   18 CL   UNL     1       6.013  34.597  62.960  1.00  0.00    -0.081 Cl
BRANCH  16  19
HETATM   19  O   UNL     1       8.089  32.770  64.112  1.00  0.00    -0.359 OA
HETATM   20  H   UNL     1       7.372  32.499  64.710  1.00  0.00     0.218 HD
ENDBRANCH  16  19
ENDBRANCH   5   6
ENDBRANCH   1   5
BRANCH   2  21
HETATM   21  C   UNL     1       6.014  26.810  55.223  1.00  0.00     0.127 C 
BRANCH  21  22
HETATM   22  C   UNL     1       7.101  25.795  55.582  1.00  0.00     0.060 C 
BRANCH  22  23
HETATM   23  C   UNL     1       7.440  24.937  54.399  1.00  0.00    -0.029 A 
HETATM   24  C   UNL     1       7.652  23.520  54.395  1.00  0.00    -0.000 A 
HETATM   25  C   UNL     1       7.872  23.133  53.072  1.00  0.00     0.043 A 
HETATM   26  C   UNL     1       7.661  22.526  55.397  1.00  0.00     0.038 A 
HETATM   27  C   UNL     1       8.092  21.802  52.695  1.00  0.00     0.032 A 
HETATM   28  N   UNL     1       7.816  24.273  52.304  1.00  0.00    -0.365 N 
HETATM   29  C   UNL     1       8.098  20.836  53.705  1.00  0.00     0.026 A 
HETATM   30  C   UNL     1       7.887  21.196  55.033  1.00  0.00     0.035 A 
HETATM   31 CL   UNL     1       7.904  19.978  56.254  1.00  0.00    -0.084 Cl
HETATM   32  H   UNL     1       7.936  24.295  51.301  1.00  0.00     0.165 HD
HETATM   33  C   UNL     1       7.560  25.362  53.090  1.00  0.00     0.096 A 
ENDBRANCH  22  23
ENDBRANCH  21  22
ENDBRANCH   2  21
TORSDOF 6
ENDMDL
MODEL 9
REMARK VINA RESULT:      -9.7      2.268      3.508
REMARK  6 active torsions:
REMARK  status: ('A' for Active; 'I' for Inactive)
REMARK    1  A    between atoms: C_3  and  C_4 
REMARK    2  A    between atoms: C_4  and  C_5 
REMARK       I    between atoms: C_5  and  N_6 
REMARK    3  A    between atoms: N_6  and  C_7 
REMARK    4  A    between atoms: C_7  and  C_8 
REMARK    5  A    between atoms: C_8  and  C_9 
REMARK    6  A    between atoms: C_27  and  O_28 
ROOT
HETATM    1  C   UNL     1       7.731  30.202  58.793  1.00  0.00     0.222 C 
HETATM    2  N   UNL     1       6.631  29.877  58.021  1.00  0.00    -0.360 N 
HETATM    3  O   UNL     1       8.466  29.382  59.332  1.00  0.00    -0.273 OA
HETATM    4  H   UNL     1       6.364  30.588  57.350  1.00  0.00     0.162 HD
ENDROOT
BRANCH   1   5
HETATM    5  C   UNL     1       7.959  31.712  58.915  1.00  0.00     0.148 C 
BRANCH   5   6
HETATM    6  C   UNL     1       7.259  32.351  60.094  1.00  0.00     0.033 C 
HETATM    7  C   UNL     1       7.799  32.489  61.328  1.00  0.00    -0.036 C 
HETATM    8  C   UNL     1       9.164  31.980  61.715  1.00  0.00     0.050 C 
HETATM    9  C   UNL     1       7.004  33.162  62.377  1.00  0.00     0.006 A 
HETATM   10  C   UNL     1       5.834  33.824  62.003  1.00  0.00     0.093 A 
HETATM   11  C   UNL     1       7.365  33.203  63.730  1.00  0.00     0.041 A 
HETATM   12  O   UNL     1       5.345  33.751  60.693  1.00  0.00    -0.274 OA
HETATM   13  C   UNL     1       5.055  34.547  62.910  1.00  0.00     0.076 A 
HETATM   14  C   UNL     1       5.849  32.770  59.863  1.00  0.00     0.295 C 
HETATM   15  O   UNL     1       5.166  32.274  58.974  1.00  0.00    -0.259 OA
HETATM   16  C   UNL     1       5.434  34.580  64.246  1.00  0.00     0.090 A 
HETATM   17  C   UNL     1       6.581  33.898  64.661  1.00  0.00     0.068 A 
HETATM   18 CL   UNL     1       7.067  33.883  66.318  1.00  0.00    -0.081 Cl
BRANCH  16  19
HETATM   19  O   UNL     1       4.677  35.266  65.154  1.00  0.00    -0.359 OA
HETATM   20  H   UNL     1       4.005  35.792  64.689  1.00  0.00     0.218 HD
ENDBRANCH  16  19
ENDBRANCH   5   6
ENDBRANCH   1   5
BRANCH   2  21
HETATM   21  C   UNL     1       6.413  28.518  57.559  1.00  0.00     0.127 C 
BRANCH  21  22
HETATM   22  C   UNL     1       7.503  27.983  56.627  1.00  0.00     0.060 C 
BRANCH  22  23
HETATM   23  C   UNL     1       7.574  26.487  56.695  1.00  0.00    -0.029 A 
HETATM   24  C   UNL     1       7.607  25.575  55.589  1.00  0.00    -0.000 A 
HETATM   25  C   UNL     1       7.745  24.288  56.113  1.00  0.00     0.043 A 
HETATM   26  C   UNL     1       7.549  25.729  54.189  1.00  0.00     0.038 A 
HETATM   27  C   UNL     1       7.836  23.145  55.308  1.00  0.00     0.032 A 
HETATM   28  N   UNL     1       7.773  24.411  57.483  1.00  0.00    -0.365 N 
HETATM   29  C   UNL     1       7.775  23.323  53.923  1.00  0.00     0.026 A 
HETATM   30  C   UNL     1       7.632  24.595  53.375  1.00  0.00     0.035 A 
HETATM   31 CL   UNL     1       7.556  24.777  51.662  1.00  0.00    -0.084 Cl
HETATM   32  H   UNL     1       7.870  23.637  58.125  1.00  0.00     0.165 HD
HETATM   33  C   UNL     1       7.669  25.725  57.843  1.00  0.00     0.096 A 
ENDBRANCH  22  23
ENDBRANCH  21  22
ENDBRANCH   2  21
TORSDOF 6
ENDMDL
MODEL 10
REMARK VINA RESULT:      -9.7      5.916      9.752
REMARK  6 active torsions:
REMARK  status: ('A' for Active; 'I' for Inactive)
REMARK    1  A    between atoms: C_3  and  C_4 
REMARK    2  A    between atoms: C_4  and  C_5 
REMARK       I    between atoms: C_5  and  N_6 
REMARK    3  A    between atoms: N_6  and  C_7 
REMARK    4  A    between atoms: C_7  and  C_8 
REMARK    5  A    between atoms: C_8  and  C_9 
REMARK    6  A    between atoms: C_27  and  O_28 
ROOT
HETATM    1  C   UNL     1       5.812  27.966  53.796  1.00  0.00     0.222 C 
HETATM    2  N   UNL     1       6.052  28.775  52.701  1.00  0.00    -0.360 N 
HETATM    3  O   UNL     1       4.704  27.564  54.132  1.00  0.00    -0.273 OA
HETATM    4  H   UNL     1       6.991  28.710  52.328  1.00  0.00     0.162 HD
ENDROOT
BRANCH   1   5
HETATM    5  C   UNL     1       7.084  27.605  54.570  1.00  0.00     0.148 C 
BRANCH   5   6
HETATM    6  C   UNL     1       7.263  26.123  54.813  1.00  0.00     0.033 C 
HETATM    7  C   UNL     1       7.633  25.227  53.870  1.00  0.00    -0.036 C 
HETATM    8  C   UNL     1       7.878  25.574  52.423  1.00  0.00     0.050 C 
HETATM    9  C   UNL     1       7.795  23.811  54.264  1.00  0.00     0.006 A 
HETATM   10  C   UNL     1       7.782  23.493  55.622  1.00  0.00     0.093 A 
HETATM   11  C   UNL     1       7.992  22.761  53.356  1.00  0.00     0.041 A 
HETATM   12  O   UNL     1       7.494  24.460  56.592  1.00  0.00    -0.274 OA
HETATM   13  C   UNL     1       7.997  22.195  56.094  1.00  0.00     0.076 A 
HETATM   14  C   UNL     1       6.916  25.644  56.180  1.00  0.00     0.295 C 
HETATM   15  O   UNL     1       6.157  26.271  56.911  1.00  0.00    -0.259 OA
HETATM   16  C   UNL     1       8.195  21.170  55.177  1.00  0.00     0.090 A 
HETATM   17  C   UNL     1       8.179  21.448  53.808  1.00  0.00     0.068 A 
HETATM   18 CL   UNL     1       8.385  20.198  52.635  1.00  0.00    -0.081 Cl
BRANCH  16  19
HETATM   19  O   UNL     1       8.390  19.890  55.615  1.00  0.00    -0.359 OA
HETATM   20  H   UNL     1       8.530  19.891  56.576  1.00  0.00     0.218 HD
ENDBRANCH  16  19
ENDBRANCH   5   6
ENDBRANCH   1   5
BRANCH   2  21
HETATM   21  C   UNL     1       5.031  28.994  51.692  1.00  0.00     0.127 C 
BRANCH  21  22
HETATM   22  C   UNL     1       5.565  29.096  50.262  1.00  0.00     0.060 C 
BRANCH  22  23
HETATM   23  C   UNL     1       4.438  29.228  49.281  1.00  0.00    -0.029 A 
HETATM   24  C   UNL     1       3.690  28.162  48.681  1.00  0.00    -0.000 A 
HETATM   25  C   UNL     1       2.695  28.742  47.892  1.00  0.00     0.043 A 
HETATM   26  C   UNL     1       3.759  26.755  48.749  1.00  0.00     0.038 A 
HETATM   27  C   UNL     1       1.758  27.989  47.173  1.00  0.00     0.032 A 
HETATM   28  N   UNL     1       2.845  30.106  47.992  1.00  0.00    -0.365 N 
HETATM   29  C   UNL     1       1.848  26.596  47.255  1.00  0.00     0.026 A 
HETATM   30  C   UNL     1       2.834  25.992  48.030  1.00  0.00     0.035 A 
HETATM   31 CL   UNL     1       2.918  24.272  48.107  1.00  0.00    -0.084 Cl
HETATM   32  H   UNL     1       2.255  30.782  47.527  1.00  0.00     0.165 HD
HETATM   33  C   UNL     1       3.888  30.408  48.821  1.00  0.00     0.096 A 
ENDBRANCH  22  23
ENDBRANCH  21  22
ENDBRANCH   2  21
TORSDOF 6
ENDMDL
