MODEL 1
REMARK VINA RESULT:     -10.1      0.000      0.000
REMARK  8 active torsions:
REMARK  status: ('A' for Active; 'I' for Inactive)
REMARK    1  A    between atoms: C_2  and  N_3 
REMARK    2  A    between atoms: N_3  and  C_4 
REMARK    3  A    between atoms: C_4  and  N_5 
REMARK    4  A    between atoms: N_5  and  C_6 
REMARK    5  A    between atoms: N_5  and  C_21 
REMARK    6  A    between atoms: C_6  and  C_7 
REMARK    7  A    between atoms: C_21  and  C_22 
REMARK    8  A    between atoms: C_22  and  N_23 
ROOT
HETATM    1  N   UNL     1       7.028  26.216  56.699  1.00  0.00    -0.352 N 
ENDROOT
BRANCH   1   2
HETATM    2  C   UNL     1       7.625  24.969  56.661  1.00  0.00     0.174 C 
HETATM    3  S   UNL     1       9.037  24.615  57.500  1.00  0.00    -0.041 SA
BRANCH   2   4
HETATM    4  N   UNL     1       6.955  23.904  56.145  1.00  0.00    -0.333 N 
HETATM    5  H   UNL     1       6.239  23.545  56.774  1.00  0.00     0.168 HD
BRANCH   4   6
HETATM    6  C   UNL     1       7.315  22.982  55.139  1.00  0.00     0.034 A 
HETATM    7  C   UNL     1       7.486  23.322  53.796  1.00  0.00     0.032 A 
HETATM    8  C   UNL     1       7.876  22.352  52.867  1.00  0.00     0.044 A 
HETATM    9  C   UNL     1       8.112  21.050  53.289  1.00  0.00     0.116 A 
HETATM   10  C   UNL     1       7.976  20.700  54.625  1.00  0.00     0.044 A 
HETATM   11  F   UNL     1       8.486  20.123  52.399  1.00  0.00    -0.206 F 
HETATM   12  C   UNL     1       7.588  21.670  55.552  1.00  0.00     0.032 A 
ENDBRANCH   4   6
ENDBRANCH   2   4
ENDBRANCH   1   2
BRANCH   1  13
HETATM   13  C   UNL     1       5.551  26.368  56.682  1.00  0.00     0.169 C 
BRANCH  13  14
HETATM   14  C   UNL     1       5.055  26.895  55.365  1.00  0.00     0.029 A 
HETATM   15  C   UNL     1       4.435  28.256  55.364  1.00  0.00     0.253 A 
HETATM   16  O   UNL     1       4.273  28.880  56.409  1.00  0.00    -0.268 OA
HETATM   17  N   UNL     1       4.054  28.777  54.159  1.00  0.00    -0.322 N 
HETATM   18  C   UNL     1       4.275  28.141  52.930  1.00  0.00     0.048 A 
HETATM   19  H   UNL     1       3.641  29.700  54.176  1.00  0.00     0.169 HD
HETATM   20  C   UNL     1       4.891  26.870  52.920  1.00  0.00    -0.006 A 
HETATM   21  C   UNL     1       3.915  28.784  51.745  1.00  0.00     0.070 A 
HETATM   22  C   UNL     1       5.160  26.234  51.704  1.00  0.00     0.053 A 
HETATM   23  C   UNL     1       5.272  26.261  54.197  1.00  0.00     0.028 A 
HETATM   24  C   UNL     1       4.810  26.897  50.544  1.00  0.00     0.106 A 
HETATM   25  C   UNL     1       4.205  28.133  50.565  1.00  0.00     0.107 A 
HETATM   26  O   UNL     1       5.020  26.445  49.279  1.00  0.00    -0.323 OA
HETATM   27  O   UNL     1       3.958  28.609  49.316  1.00  0.00    -0.323 OA
HETATM   28  C   UNL     1       4.511  27.552  48.503  1.00  0.00     0.352 A 
ENDBRANCH  13  14
ENDBRANCH   1  13
BRANCH   1  29
HETATM   29  C   UNL     1       7.824  27.464  56.595  1.00  0.00     0.153 C 
BRANCH  29  30
HETATM   30  C   UNL     1       7.572  28.496  57.715  1.00  0.00     0.254 C 
BRANCH  30  31
HETATM   31  N   UNL     1       8.815  29.313  58.029  1.00  0.00    -0.066 N 
HETATM   32  H   UNL     1       9.261  28.871  58.847  1.00  0.00     0.280 HD
HETATM   33  C   UNL     1       9.853  29.327  56.912  1.00  0.00     0.261 C 
HETATM   34  C   UNL     1      11.064  30.154  57.359  1.00  0.00     0.195 C 
HETATM   35  O   UNL     1      10.672  31.491  57.692  1.00  0.00    -0.388 OA
HETATM   36  C   UNL     1       9.739  31.513  58.778  1.00  0.00     0.195 C 
HETATM   37  C   UNL     1       8.463  30.743  58.421  1.00  0.00     0.261 C 
ENDBRANCH  30  31
ENDBRANCH  29  30
ENDBRANCH   1  29
TORSDOF 8
ENDMDL
MODEL 2
REMARK VINA RESULT:      -9.6      1.578      2.286
REMARK  8 active torsions:
REMARK  status: ('A' for Active; 'I' for Inactive)
REMARK    1  A    between atoms: C_2  and  N_3 
REMARK    2  A    between atoms: N_3  and  C_4 
REMARK    3  A    between atoms: C_4  and  N_5 
REMARK    4  A    between atoms: N_5  and  C_6 
REMARK    5  A    between atoms: N_5  and  C_21 
REMARK    6  A    between atoms: C_6  and  C_7 
REMARK    7  A    between atoms: C_21  and  C_22 
REMARK    8  A    between atoms: C_22  and  N_23 
ROOT
HETATM    1  N   UNL     1       6.793  26.550  55.436  1.00  0.00    -0.352 N 
ENDROOT
BRANCH   1   2
HETATM    2  C   UNL     1       7.293  25.359  55.929  1.00  0.00     0.174 C 
HETATM    3  S   UNL     1       8.316  25.287  57.259  1.00  0.00    -0.041 SA
BRANCH   2   4
HETATM    4  N   UNL     1       6.773  24.173  55.512  1.00  0.00    -0.333 N 
HETATM    5  H   UNL     1       5.886  23.950  55.961  1.00  0.00     0.168 HD
BRANCH   4   6
HETATM    6  C   UNL     1       7.389  23.048  54.925  1.00  0.00     0.034 A 
HETATM    7  C   UNL     1       7.611  21.843  55.595  1.00  0.00     0.032 A 
HETATM    8  C   UNL     1       8.200  20.764  54.929  1.00  0.00     0.044 A 
HETATM    9  C   UNL     1       8.548  20.888  53.590  1.00  0.00     0.116 A 
HETATM   10  C   UNL     1       8.308  22.067  52.899  1.00  0.00     0.044 A 
HETATM   11  F   UNL     1       9.111  19.853  52.954  1.00  0.00    -0.206 F 
HETATM   12  C   UNL     1       7.719  23.144  53.565  1.00  0.00     0.032 A 
ENDBRANCH   4   6
ENDBRANCH   2   4
ENDBRANCH   1   2
BRANCH   1  13
HETATM   13  C   UNL     1       5.389  26.665  54.966  1.00  0.00     0.169 C 
BRANCH  13  14
HETATM   14  C   UNL     1       5.303  26.735  53.467  1.00  0.00     0.029 A 
HETATM   15  C   UNL     1       4.868  25.498  52.750  1.00  0.00     0.253 A 
HETATM   16  O   UNL     1       4.663  24.450  53.358  1.00  0.00    -0.268 OA
HETATM   17  N   UNL     1       4.710  25.575  51.394  1.00  0.00    -0.322 N 
HETATM   18  C   UNL     1       4.863  26.757  50.658  1.00  0.00     0.048 A 
HETATM   19  H   UNL     1       4.410  24.729  50.925  1.00  0.00     0.169 HD
HETATM   20  C   UNL     1       5.241  27.938  51.333  1.00  0.00    -0.006 A 
HETATM   21  C   UNL     1       4.611  26.753  49.285  1.00  0.00     0.070 A 
HETATM   22  C   UNL     1       5.360  29.139  50.626  1.00  0.00     0.053 A 
HETATM   23  C   UNL     1       5.463  27.882  52.780  1.00  0.00     0.028 A 
HETATM   24  C   UNL     1       5.088  29.114  49.272  1.00  0.00     0.106 A 
HETATM   25  C   UNL     1       4.727  27.957  48.622  1.00  0.00     0.107 A 
HETATM   26  O   UNL     1       5.126  30.186  48.437  1.00  0.00    -0.323 OA
HETATM   27  O   UNL     1       4.494  28.157  47.298  1.00  0.00    -0.323 OA
HETATM   28  C   UNL     1       4.711  29.581  47.193  1.00  0.00     0.352 A 
ENDBRANCH  13  14
ENDBRANCH   1  13
BRANCH   1  29
HETATM   29  C   UNL     1       7.669  27.724  55.201  1.00  0.00     0.153 C 
BRANCH  29  30
HETATM   30  C   UNL     1       7.384  28.945  56.102  1.00  0.00     0.254 C 
BRANCH  30  31
HETATM   31  N   UNL     1       8.599  29.347  56.922  1.00  0.00    -0.066 N 
HETATM   32  H   UNL     1       8.852  28.529  57.497  1.00  0.00     0.280 HD
HETATM   33  C   UNL     1       9.826  29.700  56.088  1.00  0.00     0.261 C 
HETATM   34  C   UNL     1      10.986  30.057  57.025  1.00  0.00     0.195 C 
HETATM   35  O   UNL     1      10.632  31.151  57.879  1.00  0.00    -0.388 OA
HETATM   36  C   UNL     1       9.516  30.829  58.715  1.00  0.00     0.195 C 
HETATM   37  C   UNL     1       8.279  30.492  57.876  1.00  0.00     0.261 C 
ENDBRANCH  30  31
ENDBRANCH  29  30
ENDBRANCH   1  29
TORSDOF 8
ENDMDL
MODEL 3
REMARK VINA RESULT:      -9.5      3.037      5.702
REMARK  8 active torsions:
REMARK  status: ('A' for Active; 'I' for Inactive)
REMARK    1  A    between atoms: C_2  and  N_3 
REMARK    2  A    between atoms: N_3  and  C_4 
REMARK    3  A    between atoms: C_4  and  N_5 
REMARK    4  A    between atoms: N_5  and  C_6 
REMARK    5  A    between atoms: N_5  and  C_21 
REMARK    6  A    between atoms: C_6  and  C_7 
REMARK    7  A    between atoms: C_21  and  C_22 
REMARK    8  A    between atoms: C_22  and  N_23 
ROOT
HETATM    1  N   UNL     1       5.515  28.292  56.042  1.00  0.00    -0.352 N 
ENDROOT
BRANCH   1   2
HETATM    2  C   UNL     1       4.483  28.709  55.220  1.00  0.00     0.174 C 
HETATM    3  S   UNL     1       4.050  30.324  55.058  1.00  0.00    -0.041 SA
BRANCH   2   4
HETATM    4  N   UNL     1       3.942  27.852  54.314  1.00  0.00    -0.333 N 
HETATM    5  H   UNL     1       3.410  27.100  54.749  1.00  0.00     0.168 HD
BRANCH   4   6
HETATM    6  C   UNL     1       4.299  27.570  52.978  1.00  0.00     0.034 A 
HETATM    7  C   UNL     1       5.003  26.430  52.584  1.00  0.00     0.032 A 
HETATM    8  C   UNL     1       5.290  26.211  51.233  1.00  0.00     0.044 A 
HETATM    9  C   UNL     1       4.855  27.122  50.280  1.00  0.00     0.116 A 
HETATM   10  C   UNL     1       4.128  28.245  50.649  1.00  0.00     0.044 A 
HETATM   11  F   UNL     1       5.130  26.909  48.987  1.00  0.00    -0.206 F 
HETATM   12  C   UNL     1       3.841  28.463  51.998  1.00  0.00     0.032 A 
ENDBRANCH   4   6
ENDBRANCH   2   4
ENDBRANCH   1   2
BRANCH   1  13
HETATM   13  C   UNL     1       5.393  27.072  56.879  1.00  0.00     0.169 C 
BRANCH  13  14
HETATM   14  C   UNL     1       6.365  26.005  56.461  1.00  0.00     0.029 A 
HETATM   15  C   UNL     1       7.482  25.692  57.405  1.00  0.00     0.253 A 
HETATM   16  O   UNL     1       7.636  26.333  58.441  1.00  0.00    -0.268 OA
HETATM   17  N   UNL     1       8.325  24.669  57.071  1.00  0.00    -0.322 N 
HETATM   18  C   UNL     1       8.159  23.861  55.939  1.00  0.00     0.048 A 
HETATM   19  H   UNL     1       9.072  24.467  57.723  1.00  0.00     0.169 HD
HETATM   20  C   UNL     1       7.086  24.129  55.059  1.00  0.00    -0.006 A 
HETATM   21  C   UNL     1       9.030  22.793  55.718  1.00  0.00     0.070 A 
HETATM   22  C   UNL     1       6.876  23.311  53.945  1.00  0.00     0.053 A 
HETATM   23  C   UNL     1       6.190  25.247  55.363  1.00  0.00     0.028 A 
HETATM   24  C   UNL     1       7.741  22.250  53.757  1.00  0.00     0.106 A 
HETATM   25  C   UNL     1       8.786  22.001  54.616  1.00  0.00     0.107 A 
HETATM   26  O   UNL     1       7.671  21.340  52.750  1.00  0.00    -0.323 OA
HETATM   27  O   UNL     1       9.504  20.905  54.254  1.00  0.00    -0.323 OA
HETATM   28  C   UNL     1       8.769  20.466  53.091  1.00  0.00     0.352 A 
ENDBRANCH  13  14
ENDBRANCH   1  13
BRANCH   1  29
HETATM   29  C   UNL     1       6.725  29.123  56.254  1.00  0.00     0.153 C 
BRANCH  29  30
HETATM   30  C   UNL     1       6.915  29.652  57.692  1.00  0.00     0.254 C 
BRANCH  30  31
HETATM   31  N   UNL     1       8.372  29.949  58.005  1.00  0.00    -0.066 N 
HETATM   32  H   UNL     1       8.670  29.258  58.711  1.00  0.00     0.280 HD
HETATM   33  C   UNL     1       9.311  29.797  56.812  1.00  0.00     0.261 C 
HETATM   34  C   UNL     1      10.747  30.092  57.261  1.00  0.00     0.195 C 
HETATM   35  O   UNL     1      10.847  31.412  57.809  1.00  0.00    -0.388 OA
HETATM   36  C   UNL     1      10.018  31.568  58.966  1.00  0.00     0.195 C 
HETATM   37  C   UNL     1       8.543  31.332  58.621  1.00  0.00     0.261 C 
ENDBRANCH  30  31
ENDBRANCH  29  30
ENDBRANCH   1  29
TORSDOF 8
ENDMDL
MODEL 4
REMARK VINA RESULT:      -9.4      3.378      7.531
REMARK  8 active torsions:
REMARK  status: ('A' for Active; 'I' for Inactive)
REMARK    1  A    between atoms: C_2  and  N_3 
REMARK    2  A    between atoms: N_3  and  C_4 
REMARK    3  A    between atoms: C_4  and  N_5 
REMARK    4  A    between atoms: N_5  and  C_6 
REMARK    5  A    between atoms: N_5  and  C_21 
REMARK    6  A    between atoms: C_6  and  C_7 
REMARK    7  A    between atoms: C_21  and  C_22 
REMARK    8  A    between atoms: C_22  and  N_23 
ROOT
HETATM    1  N   UNL     1       5.375  28.528  55.625  1.00  0.00    -0.352 N 
ENDROOT
BRANCH   1   2
HETATM    2  C   UNL     1       5.771  29.725  56.194  1.00  0.00     0.174 C 
HETATM    3  S   UNL     1       5.022  31.187  55.844  1.00  0.00    -0.041 SA
BRANCH   2   4
HETATM    4  N   UNL     1       6.622  29.730  57.255  1.00  0.00    -0.333 N 
HETATM    5  H   UNL     1       6.159  29.960  58.133  1.00  0.00     0.168 HD
BRANCH   4   6
HETATM    6  C   UNL     1       8.024  29.883  57.317  1.00  0.00     0.034 A 
HETATM    7  C   UNL     1       8.697  30.462  58.395  1.00  0.00     0.032 A 
HETATM    8  C   UNL     1      10.092  30.547  58.391  1.00  0.00     0.044 A 
HETATM    9  C   UNL     1      10.810  30.034  57.318  1.00  0.00     0.116 A 
HETATM   10  C   UNL     1      10.161  29.428  56.253  1.00  0.00     0.044 A 
HETATM   11  F   UNL     1      12.147  30.115  57.318  1.00  0.00    -0.206 F 
HETATM   12  C   UNL     1       8.767  29.343  56.258  1.00  0.00     0.032 A 
ENDBRANCH   4   6
ENDBRANCH   2   4
ENDBRANCH   1   2
BRANCH   1  13
HETATM   13  C   UNL     1       5.166  27.310  56.449  1.00  0.00     0.169 C 
BRANCH  13  14
HETATM   14  C   UNL     1       6.179  26.244  56.141  1.00  0.00     0.029 A 
HETATM   15  C   UNL     1       7.275  26.036  57.136  1.00  0.00     0.253 A 
HETATM   16  O   UNL     1       7.382  26.758  58.124  1.00  0.00    -0.268 OA
HETATM   17  N   UNL     1       8.155  25.015  56.904  1.00  0.00    -0.322 N 
HETATM   18  C   UNL     1       8.043  24.118  55.833  1.00  0.00     0.048 A 
HETATM   19  H   UNL     1       8.887  24.885  57.590  1.00  0.00     0.169 HD
HETATM   20  C   UNL     1       6.990  24.288  54.908  1.00  0.00    -0.006 A 
HETATM   21  C   UNL     1       8.949  23.063  55.719  1.00  0.00     0.070 A 
HETATM   22  C   UNL     1       6.834  23.381  53.854  1.00  0.00     0.053 A 
HETATM   23  C   UNL     1       6.056  25.399  55.100  1.00  0.00     0.028 A 
HETATM   24  C   UNL     1       7.732  22.335  53.772  1.00  0.00     0.106 A 
HETATM   25  C   UNL     1       8.758  22.182  54.675  1.00  0.00     0.107 A 
HETATM   26  O   UNL     1       7.716  21.349  52.836  1.00  0.00    -0.323 OA
HETATM   27  O   UNL     1       9.515  21.083  54.418  1.00  0.00    -0.323 OA
HETATM   28  C   UNL     1       8.827  20.536  53.272  1.00  0.00     0.352 A 
ENDBRANCH  13  14
ENDBRANCH   1  13
BRANCH   1  29
HETATM   29  C   UNL     1       5.294  28.355  54.154  1.00  0.00     0.153 C 
BRANCH  29  30
HETATM   30  C   UNL     1       3.871  28.134  53.598  1.00  0.00     0.254 C 
BRANCH  30  31
HETATM   31  N   UNL     1       3.889  27.633  52.163  1.00  0.00    -0.066 N 
HETATM   32  H   UNL     1       3.056  27.036  52.047  1.00  0.00     0.280 HD
HETATM   33  C   UNL     1       3.793  28.737  51.114  1.00  0.00     0.261 C 
HETATM   34  C   UNL     1       3.791  28.105  49.717  1.00  0.00     0.195 C 
HETATM   35  O   UNL     1       4.973  27.323  49.511  1.00  0.00    -0.388 OA
HETATM   36  C   UNL     1       5.062  26.243  50.446  1.00  0.00     0.195 C 
HETATM   37  C   UNL     1       5.111  26.766  51.886  1.00  0.00     0.261 C 
ENDBRANCH  30  31
ENDBRANCH  29  30
ENDBRANCH   1  29
TORSDOF 8
ENDMDL
MODEL 5
REMARK VINA RESULT:      -9.2      2.416      7.224
REMARK  8 active torsions:
REMARK  status: ('A' for Active; 'I' for Inactive)
REMARK    1  A    between atoms: C_2  and  N_3 
REMARK    2  A    between atoms: N_3  and  C_4 
REMARK    3  A    between atoms: C_4  and  N_5 
REMARK    4  A    between atoms: N_5  and  C_6 
REMARK    5  A    between atoms: N_5  and  C_21 
REMARK    6  A    between atoms: C_6  and  C_7 
REMARK    7  A    between atoms: C_21  and  C_22 
REMARK    8  A    between atoms: C_22  and  N_23 
ROOT
HETATM    1  N   UNL     1       6.489  27.139  55.116  1.00  0.00    -0.352 N 
ENDROOT
BRANCH   1   2
HETATM    2  C   UNL     1       6.689  26.025  55.911  1.00  0.00     0.174 C 
HETATM    3  S   UNL     1       5.525  25.453  56.979  1.00  0.00    -0.041 SA
BRANCH   2   4
HETATM    4  N   UNL     1       7.742  25.197  55.676  1.00  0.00    -0.333 N 
HETATM    5  H   UNL     1       8.642  25.661  55.780  1.00  0.00     0.168 HD
BRANCH   4   6
HETATM    6  C   UNL     1       7.827  23.993  54.945  1.00  0.00     0.034 A 
HETATM    7  C   UNL     1       7.814  22.724  55.528  1.00  0.00     0.032 A 
HETATM    8  C   UNL     1       7.871  21.579  54.728  1.00  0.00     0.044 A 
HETATM    9  C   UNL     1       7.920  21.707  53.345  1.00  0.00     0.116 A 
HETATM   10  C   UNL     1       7.903  22.958  52.746  1.00  0.00     0.044 A 
HETATM   11  F   UNL     1       7.972  20.609  52.581  1.00  0.00    -0.206 F 
HETATM   12  C   UNL     1       7.846  24.101  53.546  1.00  0.00     0.032 A 
ENDBRANCH   4   6
ENDBRANCH   2   4
ENDBRANCH   1   2
BRANCH   1  13
HETATM   13  C   UNL     1       7.435  28.283  55.134  1.00  0.00     0.169 C 
BRANCH  13  14
HETATM   14  C   UNL     1       7.373  29.044  56.428  1.00  0.00     0.029 A 
HETATM   15  C   UNL     1       8.599  29.037  57.284  1.00  0.00     0.253 A 
HETATM   16  O   UNL     1       9.586  28.376  56.973  1.00  0.00    -0.268 OA
HETATM   17  N   UNL     1       8.580  29.791  58.424  1.00  0.00    -0.322 N 
HETATM   18  C   UNL     1       7.510  30.617  58.794  1.00  0.00     0.048 A 
HETATM   19  H   UNL     1       9.420  29.779  58.988  1.00  0.00     0.169 HD
HETATM   20  C   UNL     1       6.361  30.654  57.973  1.00  0.00    -0.006 A 
HETATM   21  C   UNL     1       7.611  31.405  59.941  1.00  0.00     0.070 A 
HETATM   22  C   UNL     1       5.297  31.502  58.300  1.00  0.00     0.053 A 
HETATM   23  C   UNL     1       6.330  29.824  56.767  1.00  0.00     0.028 A 
HETATM   24  C   UNL     1       5.427  32.286  59.430  1.00  0.00     0.106 A 
HETATM   25  C   UNL     1       6.548  32.237  60.226  1.00  0.00     0.107 A 
HETATM   26  O   UNL     1       4.511  33.183  59.881  1.00  0.00    -0.323 OA
HETATM   27  O   UNL     1       6.474  33.095  61.277  1.00  0.00    -0.323 OA
HETATM   28  C   UNL     1       5.196  33.721  61.033  1.00  0.00     0.352 A 
ENDBRANCH  13  14
ENDBRANCH   1  13
BRANCH   1  29
HETATM   29  C   UNL     1       5.244  27.321  54.331  1.00  0.00     0.153 C 
BRANCH  29  30
HETATM   30  C   UNL     1       4.999  26.262  53.235  1.00  0.00     0.254 C 
BRANCH  30  31
HETATM   31  N   UNL     1       4.638  26.893  51.900  1.00  0.00    -0.066 N 
HETATM   32  H   UNL     1       3.620  27.062  51.918  1.00  0.00     0.280 HD
HETATM   33  C   UNL     1       5.307  28.239  51.643  1.00  0.00     0.261 C 
HETATM   34  C   UNL     1       4.842  28.783  50.288  1.00  0.00     0.195 C 
HETATM   35  O   UNL     1       5.155  27.862  49.236  1.00  0.00    -0.388 OA
HETATM   36  C   UNL     1       4.495  26.605  49.420  1.00  0.00     0.195 C 
HETATM   37  C   UNL     1       4.921  25.948  50.738  1.00  0.00     0.261 C 
ENDBRANCH  30  31
ENDBRANCH  29  30
ENDBRANCH   1  29
TORSDOF 8
ENDMDL
MODEL 6
REMARK VINA RESULT:      -9.1      3.041      6.395
REMARK  8 active torsions:
REMARK  status: ('A' for Active; 'I' for Inactive)
REMARK    1  A    between atoms: C_2  and  N_3 
REMARK    2  A    between atoms: N_3  and  C_4 
REMARK    3  A    between atoms: C_4  and  N_5 
REMARK    4  A    between atoms: N_5  and  C_6 
REMARK    5  A    between atoms: N_5  and  C_21 
REMARK    6  A    between atoms: C_6  and  C_7 
REMARK    7  A    between atoms: C_21  and  C_22 
REMARK    8  A    between atoms: C_22  and  N_23 
ROOT
HETATM    1  N   UNL     1       6.481  25.862  55.910  1.00  0.00    -0.352 N 
ENDROOT
BRANCH   1   2
HETATM    2  C   UNL     1       7.584  26.328  56.601  1.00  0.00     0.174 C 
HETATM    3  S   UNL     1       8.493  25.353  57.623  1.00  0.00    -0.041 SA
BRANCH   2   4
HETATM    4  N   UNL     1       8.131  27.533  56.285  1.00  0.00    -0.333 N 
HETATM    5  H   UNL     1       8.576  27.538  55.369  1.00  0.00     0.168 HD
BRANCH   4   6
HETATM    6  C   UNL     1       8.550  28.603  57.104  1.00  0.00     0.034 A 
HETATM    7  C   UNL     1       7.816  29.088  58.188  1.00  0.00     0.032 A 
HETATM    8  C   UNL     1       8.319  30.133  58.970  1.00  0.00     0.044 A 
HETATM    9  C   UNL     1       9.563  30.675  58.675  1.00  0.00     0.116 A 
HETATM   10  C   UNL     1      10.320  30.187  57.621  1.00  0.00     0.044 A 
HETATM   11  F   UNL     1      10.043  31.675  59.426  1.00  0.00    -0.206 F 
HETATM   12  C   UNL     1       9.818  29.143  56.841  1.00  0.00     0.032 A 
ENDBRANCH   4   6
ENDBRANCH   2   4
ENDBRANCH   1   2
BRANCH   1  13
HETATM   13  C   UNL     1       5.261  26.692  55.747  1.00  0.00     0.169 C 
BRANCH  13  14
HETATM   14  C   UNL     1       5.185  27.317  54.383  1.00  0.00     0.029 A 
HETATM   15  C   UNL     1       5.518  28.771  54.279  1.00  0.00     0.253 A 
HETATM   16  O   UNL     1       5.769  29.438  55.279  1.00  0.00    -0.268 OA
HETATM   17  N   UNL     1       5.530  29.330  53.031  1.00  0.00    -0.322 N 
HETATM   18  C   UNL     1       5.319  28.605  51.851  1.00  0.00     0.048 A 
HETATM   19  H   UNL     1       5.763  30.314  52.978  1.00  0.00     0.169 HD
HETATM   20  C   UNL     1       5.037  27.224  51.938  1.00  0.00    -0.006 A 
HETATM   21  C   UNL     1       5.421  29.250  50.617  1.00  0.00     0.070 A 
HETATM   22  C   UNL     1       4.863  26.472  50.772  1.00  0.00     0.053 A 
HETATM   23  C   UNL     1       4.971  26.602  53.263  1.00  0.00     0.028 A 
HETATM   24  C   UNL     1       4.986  27.128  49.563  1.00  0.00     0.106 A 
HETATM   25  C   UNL     1       5.255  28.475  49.489  1.00  0.00     0.107 A 
HETATM   26  O   UNL     1       4.877  26.553  48.336  1.00  0.00    -0.323 OA
HETATM   27  O   UNL     1       5.347  28.914  48.206  1.00  0.00    -0.323 OA
HETATM   28  C   UNL     1       5.144  27.684  47.477  1.00  0.00     0.352 A 
ENDBRANCH  13  14
ENDBRANCH   1  13
BRANCH   1  29
HETATM   29  C   UNL     1       6.395  24.458  55.438  1.00  0.00     0.153 C 
BRANCH  29  30
HETATM   30  C   UNL     1       7.587  23.981  54.581  1.00  0.00     0.254 C 
BRANCH  30  31
HETATM   31  N   UNL     1       7.617  22.468  54.435  1.00  0.00    -0.066 N 
HETATM   32  H   UNL     1       6.658  22.134  54.617  1.00  0.00     0.280 HD
HETATM   33  C   UNL     1       7.998  21.983  53.040  1.00  0.00     0.261 C 
HETATM   34  C   UNL     1       7.963  20.450  53.013  1.00  0.00     0.195 C 
HETATM   35  O   UNL     1       8.854  19.904  53.992  1.00  0.00    -0.388 OA
HETATM   36  C   UNL     1       8.487  20.297  55.319  1.00  0.00     0.195 C 
HETATM   37  C   UNL     1       8.528  21.821  55.471  1.00  0.00     0.261 C 
ENDBRANCH  30  31
ENDBRANCH  29  30
ENDBRANCH   1  29
TORSDOF 8
ENDMDL
MODEL 7
REMARK VINA RESULT:      -9.0      3.638      7.888
REMARK  8 active torsions:
REMARK  status: ('A' for Active; 'I' for Inactive)
REMARK    1  A    between atoms: C_2  and  N_3 
REMARK    2  A    between atoms: N_3  and  C_4 
REMARK    3  A    between atoms: C_4  and  N_5 
REMARK    4  A    between atoms: N_5  and  C_6 
REMARK    5  A    between atoms: N_5  and  C_21 
REMARK    6  A    between atoms: C_6  and  C_7 
REMARK    7  A    between atoms: C_21  and  C_22 
REMARK    8  A    between atoms: C_22  and  N_23 
ROOT
HETATM    1  N   UNL     1       5.640  28.177  54.503  1.00  0.00    -0.352 N 
ENDROOT
BRANCH   1   2
HETATM    2  C   UNL     1       5.756  28.764  55.750  1.00  0.00     0.174 C 
HETATM    3  S   UNL     1       4.514  29.649  56.454  1.00  0.00    -0.041 SA
BRANCH   2   4
HETATM    4  N   UNL     1       6.792  28.435  56.568  1.00  0.00    -0.333 N 
HETATM    5  H   UNL     1       6.571  27.663  57.196  1.00  0.00     0.168 HD
BRANCH   4   6
HETATM    6  C   UNL     1       7.911  29.182  56.991  1.00  0.00     0.034 A 
HETATM    7  C   UNL     1       7.942  29.945  58.160  1.00  0.00     0.032 A 
HETATM    8  C   UNL     1       9.105  30.632  58.524  1.00  0.00     0.044 A 
HETATM    9  C   UNL     1      10.238  30.538  57.726  1.00  0.00     0.116 A 
HETATM   10  C   UNL     1      10.235  29.762  56.576  1.00  0.00     0.044 A 
HETATM   11  F   UNL     1      11.350  31.196  58.076  1.00  0.00    -0.206 F 
HETATM   12  C   UNL     1       9.074  29.076  56.214  1.00  0.00     0.032 A 
ENDBRANCH   4   6
ENDBRANCH   2   4
ENDBRANCH   1   2
BRANCH   1  13
HETATM   13  C   UNL     1       6.837  27.748  53.735  1.00  0.00     0.169 C 
BRANCH  13  14
HETATM   14  C   UNL     1       6.968  26.252  53.688  1.00  0.00     0.029 A 
HETATM   15  C   UNL     1       6.659  25.580  52.388  1.00  0.00     0.253 A 
HETATM   16  O   UNL     1       6.246  26.221  51.425  1.00  0.00    -0.268 OA
HETATM   17  N   UNL     1       6.852  24.229  52.312  1.00  0.00    -0.322 N 
HETATM   18  C   UNL     1       7.384  23.459  53.354  1.00  0.00     0.048 A 
HETATM   19  H   UNL     1       6.644  23.792  51.424  1.00  0.00     0.169 HD
HETATM   20  C   UNL     1       7.709  24.091  54.575  1.00  0.00    -0.006 A 
HETATM   21  C   UNL     1       7.611  22.095  53.159  1.00  0.00     0.070 A 
HETATM   22  C   UNL     1       8.280  23.351  55.615  1.00  0.00     0.053 A 
HETATM   23  C   UNL     1       7.473  25.531  54.706  1.00  0.00     0.028 A 
HETATM   24  C   UNL     1       8.512  22.007  55.391  1.00  0.00     0.106 A 
HETATM   25  C   UNL     1       8.186  21.399  54.202  1.00  0.00     0.107 A 
HETATM   26  O   UNL     1       9.081  21.144  56.274  1.00  0.00    -0.323 OA
HETATM   27  O   UNL     1       8.508  20.079  54.190  1.00  0.00    -0.323 OA
HETATM   28  C   UNL     1       9.111  19.930  55.493  1.00  0.00     0.352 A 
ENDBRANCH  13  14
ENDBRANCH   1  13
BRANCH   1  29
HETATM   29  C   UNL     1       4.336  28.092  53.801  1.00  0.00     0.153 C 
BRANCH  29  30
HETATM   30  C   UNL     1       4.092  29.184  52.738  1.00  0.00     0.254 C 
BRANCH  30  31
HETATM   31  N   UNL     1       4.383  28.687  51.331  1.00  0.00    -0.066 N 
HETATM   32  H   UNL     1       4.771  27.736  51.427  1.00  0.00     0.280 HD
HETATM   33  C   UNL     1       3.149  28.574  50.441  1.00  0.00     0.261 C 
HETATM   34  C   UNL     1       3.567  28.037  49.067  1.00  0.00     0.195 C 
HETATM   35  O   UNL     1       4.542  28.895  48.461  1.00  0.00    -0.388 OA
HETATM   36  C   UNL     1       5.736  28.976  49.248  1.00  0.00     0.195 C 
HETATM   37  C   UNL     1       5.438  29.542  50.640  1.00  0.00     0.261 C 
ENDBRANCH  30  31
ENDBRANCH  29  30
ENDBRANCH   1  29
TORSDOF 8
ENDMDL
MODEL 8
REMARK VINA RESULT:      -9.0      3.471      7.688
REMARK  8 active torsions:
REMARK  status: ('A' for Active; 'I' for Inactive)
REMARK    1  A    between atoms: C_2  and  N_3 
REMARK    2  A    between atoms: N_3  and  C_4 
REMARK    3  A    between atoms: C_4  and  N_5 
REMARK    4  A    between atoms: N_5  and  C_6 
REMARK    5  A    between atoms: N_5  and  C_21 
REMARK    6  A    between atoms: C_6  and  C_7 
REMARK    7  A    between atoms: C_21  and  C_22 
REMARK    8  A    between atoms: C_22  and  N_23 
ROOT
HETATM    1  N   UNL     1       5.301  28.346  53.828  1.00  0.00    -0.352 N 
ENDROOT
BRANCH   1   2
HETATM    2  C   UNL     1       5.304  29.307  54.822  1.00  0.00     0.174 C 
HETATM    3  S   UNL     1       4.314  30.663  54.773  1.00  0.00    -0.041 SA
BRANCH   2   4
HETATM    4  N   UNL     1       5.927  29.066  56.007  1.00  0.00    -0.333 N 
HETATM    5  H   UNL     1       5.283  29.051  56.796  1.00  0.00     0.168 HD
BRANCH   4   6
HETATM    6  C   UNL     1       7.272  29.239  56.398  1.00  0.00     0.034 A 
HETATM    7  C   UNL     1       8.358  29.104  55.532  1.00  0.00     0.032 A 
HETATM    8  C   UNL     1       9.660  29.324  55.993  1.00  0.00     0.044 A 
HETATM    9  C   UNL     1       9.868  29.698  57.315  1.00  0.00     0.116 A 
HETATM   10  C   UNL     1       8.798  29.866  58.183  1.00  0.00     0.044 A 
HETATM   11  F   UNL     1      11.114  29.909  57.754  1.00  0.00    -0.206 F 
HETATM   12  C   UNL     1       7.499  29.647  57.721  1.00  0.00     0.032 A 
ENDBRANCH   4   6
ENDBRANCH   2   4
ENDBRANCH   1   2
BRANCH   1  13
HETATM   13  C   UNL     1       4.553  27.072  53.985  1.00  0.00     0.169 C 
BRANCH  13  14
HETATM   14  C   UNL     1       5.455  25.935  54.374  1.00  0.00     0.029 A 
HETATM   15  C   UNL     1       5.620  25.665  55.836  1.00  0.00     0.253 A 
HETATM   16  O   UNL     1       5.098  26.390  56.678  1.00  0.00    -0.268 OA
HETATM   17  N   UNL     1       6.374  24.583  56.198  1.00  0.00    -0.322 N 
HETATM   18  C   UNL     1       6.936  23.684  55.283  1.00  0.00     0.048 A 
HETATM   19  H   UNL     1       6.471  24.412  57.191  1.00  0.00     0.169 HD
HETATM   20  C   UNL     1       6.756  23.914  53.901  1.00  0.00    -0.006 A 
HETATM   21  C   UNL     1       7.631  22.568  55.750  1.00  0.00     0.070 A 
HETATM   22  C   UNL     1       7.273  23.007  52.970  1.00  0.00     0.053 A 
HETATM   23  C   UNL     1       5.991  25.088  53.476  1.00  0.00     0.028 A 
HETATM   24  C   UNL     1       7.942  21.901  53.456  1.00  0.00     0.106 A 
HETATM   25  C   UNL     1       8.117  21.690  54.804  1.00  0.00     0.107 A 
HETATM   26  O   UNL     1       8.482  20.907  52.702  1.00  0.00    -0.323 OA
HETATM   27  O   UNL     1       8.790  20.538  55.064  1.00  0.00    -0.323 OA
HETATM   28  C   UNL     1       8.987  20.025  53.729  1.00  0.00     0.352 A 
ENDBRANCH  13  14
ENDBRANCH   1  13
BRANCH   1  29
HETATM   29  C   UNL     1       6.169  28.461  52.630  1.00  0.00     0.153 C 
BRANCH  29  30
HETATM   30  C   UNL     1       5.529  29.180  51.424  1.00  0.00     0.254 C 
BRANCH  30  31
HETATM   31  N   UNL     1       5.475  28.292  50.191  1.00  0.00    -0.066 N 
HETATM   32  H   UNL     1       6.378  27.795  50.145  1.00  0.00     0.280 HD
HETATM   33  C   UNL     1       4.384  27.227  50.235  1.00  0.00     0.261 C 
HETATM   34  C   UNL     1       4.452  26.383  48.957  1.00  0.00     0.195 C 
HETATM   35  O   UNL     1       4.299  27.207  47.795  1.00  0.00    -0.388 OA
HETATM   36  C   UNL     1       5.343  28.181  47.697  1.00  0.00     0.195 C 
HETATM   37  C   UNL     1       5.342  29.112  48.914  1.00  0.00     0.261 C 
ENDBRANCH  30  31
ENDBRANCH  29  30
ENDBRANCH   1  29
TORSDOF 8
ENDMDL
MODEL 9
REMARK VINA RESULT:      -8.9      3.906      8.209
REMARK  8 active torsions:
REMARK  status: ('A' for Active; 'I' for Inactive)
REMARK    1  A    between atoms: C_2  and  N_3 
REMARK    2  A    between atoms: N_3  and  C_4 
REMARK    3  A    between atoms: C_4  and  N_5 
REMARK    4  A    between atoms: N_5  and  C_6 
REMARK    5  A    between atoms: N_5  and  C_21 
REMARK    6  A    between atoms: C_6  and  C_7 
REMARK    7  A    between atoms: C_21  and  C_22 
REMARK    8  A    between atoms: C_22  and  N_23 
ROOT
HETATM    1  N   UNL     1       6.964  28.551  55.982  1.00  0.00    -0.352 N 
ENDROOT
BRANCH   1   2
HETATM    2  C   UNL     1       7.758  29.327  56.807  1.00  0.00     0.174 C 
HETATM    3  S   UNL     1       9.425  29.429  56.624  1.00  0.00    -0.041 SA
BRANCH   2   4
HETATM    4  N   UNL     1       7.192  30.240  57.641  1.00  0.00    -0.333 N 
HETATM    5  H   UNL     1       6.562  30.879  57.159  1.00  0.00     0.168 HD
BRANCH   4   6
HETATM    6  C   UNL     1       7.604  30.721  58.902  1.00  0.00     0.034 A 
HETATM    7  C   UNL     1       8.601  30.124  59.676  1.00  0.00     0.032 A 
HETATM    8  C   UNL     1       8.971  30.683  60.903  1.00  0.00     0.044 A 
HETATM    9  C   UNL     1       8.356  31.849  61.342  1.00  0.00     0.116 A 
HETATM   10  C   UNL     1       7.385  32.473  60.573  1.00  0.00     0.044 A 
HETATM   11  F   UNL     1       8.713  32.384  62.516  1.00  0.00    -0.206 F 
HETATM   12  C   UNL     1       7.016  31.914  59.347  1.00  0.00     0.032 A 
ENDBRANCH   4   6
ENDBRANCH   2   4
ENDBRANCH   1   2
BRANCH   1  13
HETATM   13  C   UNL     1       6.202  27.390  56.510  1.00  0.00     0.169 C 
BRANCH  13  14
HETATM   14  C   UNL     1       6.943  26.097  56.314  1.00  0.00     0.029 A 
HETATM   15  C   UNL     1       7.693  25.555  57.489  1.00  0.00     0.253 A 
HETATM   16  O   UNL     1       7.759  26.181  58.543  1.00  0.00    -0.268 OA
HETATM   17  N   UNL     1       8.303  24.339  57.344  1.00  0.00    -0.322 N 
HETATM   18  C   UNL     1       8.205  23.551  56.190  1.00  0.00     0.048 A 
HETATM   19  H   UNL     1       8.801  23.986  58.151  1.00  0.00     0.169 HD
HETATM   20  C   UNL     1       7.470  24.042  55.088  1.00  0.00    -0.006 A 
HETATM   21  C   UNL     1       8.804  22.291  56.162  1.00  0.00     0.070 A 
HETATM   22  C   UNL     1       7.324  23.255  53.941  1.00  0.00     0.053 A 
HETATM   23  C   UNL     1       6.841  25.360  55.192  1.00  0.00     0.028 A 
HETATM   24  C   UNL     1       7.911  22.005  53.943  1.00  0.00     0.106 A 
HETATM   25  C   UNL     1       8.630  21.539  55.020  1.00  0.00     0.107 A 
HETATM   26  O   UNL     1       7.849  21.099  52.931  1.00  0.00    -0.323 OA
HETATM   27  O   UNL     1       9.110  20.284  54.817  1.00  0.00    -0.323 OA
HETATM   28  C   UNL     1       8.580  19.993  53.506  1.00  0.00     0.352 A 
ENDBRANCH  13  14
ENDBRANCH   1  13
BRANCH   1  29
HETATM   29  C   UNL     1       6.956  28.734  54.510  1.00  0.00     0.153 C 
BRANCH  29  30
HETATM   30  C   UNL     1       5.575  28.581  53.838  1.00  0.00     0.254 C 
BRANCH  30  31
HETATM   31  N   UNL     1       5.676  27.939  52.464  1.00  0.00    -0.066 N 
HETATM   32  H   UNL     1       6.680  27.783  52.283  1.00  0.00     0.280 HD
HETATM   33  C   UNL     1       4.990  26.581  52.356  1.00  0.00     0.261 C 
HETATM   34  C   UNL     1       5.187  26.028  50.940  1.00  0.00     0.195 C 
HETATM   35  O   UNL     1       4.660  26.932  49.962  1.00  0.00    -0.388 OA
HETATM   36  C   UNL     1       5.324  28.200  50.002  1.00  0.00     0.195 C 
HETATM   37  C   UNL     1       5.156  28.866  51.372  1.00  0.00     0.261 C 
ENDBRANCH  30  31
ENDBRANCH  29  30
ENDBRANCH   1  29
TORSDOF 8
ENDMDL
MODEL 10
REMARK VINA RESULT:      -8.4      1.785      2.183
REMARK  8 active torsions:
REMARK  status: ('A' for Active; 'I' for Inactive)
REMARK    1  A    between atoms: C_2  and  N_3 
REMARK    2  A    between atoms: N_3  and  C_4 
REMARK    3  A    between atoms: C_4  and  N_5 
REMARK    4  A    between atoms: N_5  and  C_6 
REMARK    5  A    between atoms: N_5  and  C_21 
REMARK    6  A    between atoms: C_6  and  C_7 
REMARK    7  A    between atoms: C_21  and  C_22 
REMARK    8  A    between atoms: C_22  and  N_23 
ROOT
HETATM    1  N   UNL     1       7.238  27.389  56.150  1.00  0.00    -0.352 N 
ENDROOT
BRANCH   1   2
HETATM    2  C   UNL     1       7.047  26.054  55.846  1.00  0.00     0.174 C 
HETATM    3  S   UNL     1       5.820  25.135  56.532  1.00  0.00    -0.041 SA
BRANCH   2   4
HETATM    4  N   UNL     1       7.690  25.494  54.786  1.00  0.00    -0.333 N 
HETATM    5  H   UNL     1       7.707  26.102  53.968  1.00  0.00     0.168 HD
BRANCH   4   6
HETATM    6  C   UNL     1       7.957  24.144  54.473  1.00  0.00     0.034 A 
HETATM    7  C   UNL     1       7.477  23.500  53.331  1.00  0.00     0.032 A 
HETATM    8  C   UNL     1       7.815  22.167  53.079  1.00  0.00     0.044 A 
HETATM    9  C   UNL     1       8.648  21.489  53.960  1.00  0.00     0.116 A 
HETATM   10  C   UNL     1       9.159  22.122  55.084  1.00  0.00     0.044 A 
HETATM   11  F   UNL     1       8.972  20.213  53.716  1.00  0.00    -0.206 F 
HETATM   12  C   UNL     1       8.821  23.454  55.335  1.00  0.00     0.032 A 
ENDBRANCH   4   6
ENDBRANCH   2   4
ENDBRANCH   1   2
BRANCH   1  13
HETATM   13  C   UNL     1       7.427  28.407  55.084  1.00  0.00     0.169 C 
BRANCH  13  14
HETATM   14  C   UNL     1       6.231  28.502  54.180  1.00  0.00     0.029 A 
HETATM   15  C   UNL     1       5.049  29.263  54.689  1.00  0.00     0.253 A 
HETATM   16  O   UNL     1       5.034  29.725  55.827  1.00  0.00    -0.268 OA
HETATM   17  N   UNL     1       3.987  29.424  53.843  1.00  0.00    -0.322 N 
HETATM   18  C   UNL     1       3.975  28.978  52.515  1.00  0.00     0.048 A 
HETATM   19  H   UNL     1       3.198  29.946  54.203  1.00  0.00     0.169 HD
HETATM   20  C   UNL     1       5.101  28.287  52.016  1.00  0.00    -0.006 A 
HETATM   21  C   UNL     1       2.871  29.251  51.706  1.00  0.00     0.070 A 
HETATM   22  C   UNL     1       5.128  27.869  50.682  1.00  0.00     0.053 A 
HETATM   23  C   UNL     1       6.239  28.058  52.909  1.00  0.00     0.028 A 
HETATM   24  C   UNL     1       4.032  28.167  49.895  1.00  0.00     0.106 A 
HETATM   25  C   UNL     1       2.938  28.835  50.393  1.00  0.00     0.107 A 
HETATM   26  O   UNL     1       3.898  27.864  48.577  1.00  0.00    -0.323 OA
HETATM   27  O   UNL     1       1.980  29.033  49.449  1.00  0.00    -0.323 OA
HETATM   28  C   UNL     1       2.610  28.449  48.289  1.00  0.00     0.352 A 
ENDBRANCH  13  14
ENDBRANCH   1  13
BRANCH   1  29
HETATM   29  C   UNL     1       7.424  27.851  57.547  1.00  0.00     0.153 C 
BRANCH  29  30
HETATM   30  C   UNL     1       8.152  29.204  57.699  1.00  0.00     0.254 C 
BRANCH  30  31
HETATM   31  N   UNL     1       7.589  30.031  58.844  1.00  0.00    -0.066 N 
HETATM   32  H   UNL     1       6.904  29.434  59.332  1.00  0.00     0.280 HD
HETATM   33  C   UNL     1       8.627  30.452  59.879  1.00  0.00     0.261 C 
HETATM   34  C   UNL     1       7.935  31.249  60.991  1.00  0.00     0.195 C 
HETATM   35  O   UNL     1       7.271  32.400  60.454  1.00  0.00    -0.388 OA
HETATM   36  C   UNL     1       6.251  32.032  59.519  1.00  0.00     0.195 C 
HETATM   37  C   UNL     1       6.842  31.258  58.336  1.00  0.00     0.261 C 
ENDBRANCH  30  31
ENDBRANCH  29  30
ENDBRANCH   1  29
TORSDOF 8
ENDMDL
