MODEL 1
REMARK VINA RESULT:     -10.0      0.000      0.000
REMARK  9 active torsions:
REMARK  status: ('A' for Active; 'I' for Inactive)
REMARK    1  A    between atoms: C_2  and  O_3 
REMARK    2  A    between atoms: O_3  and  C_4 
REMARK    3  A    between atoms: C_7  and  N_8 
REMARK    4  A    between atoms: C_9  and  S_10 
REMARK    5  A    between atoms: S_10  and  C_11 
REMARK    6  A    between atoms: C_11  and  C_12 
REMARK       I    between atoms: C_12  and  N_13 
REMARK    7  A    between atoms: N_13  and  C_14 
REMARK    8  A    between atoms: C_17  and  S_18 
REMARK    9  A    between atoms: S_18  and  N_19 
ROOT
HETATM    1  N   UNL     1       6.272  27.457  54.703  1.00  0.00    -0.256 N 
HETATM    2  C   UNL     1       5.294  28.284  54.135  1.00  0.00     0.177 A 
HETATM    3  N   UNL     1       4.960  29.466  54.551  1.00  0.00    -0.216 NA
HETATM    4  C   UNL     1       5.588  29.876  55.672  1.00  0.00     0.117 A 
HETATM    5  C   UNL     1       6.518  29.167  56.392  1.00  0.00     0.076 A 
HETATM    6  C   UNL     1       6.918  27.859  55.894  1.00  0.00     0.268 A 
HETATM    7  O   UNL     1       7.778  27.212  56.487  1.00  0.00    -0.267 OA
HETATM    8  S   UNL     1       5.223  31.378  56.391  1.00  0.00    -0.073 SA
HETATM    9  C   UNL     1       6.289  31.082  57.681  1.00  0.00    -0.008 A 
HETATM   10  C   UNL     1       6.951  29.874  57.562  1.00  0.00    -0.026 A 
HETATM   11  C   UNL     1       7.940  29.406  58.591  1.00  0.00     0.041 C 
HETATM   12  C   UNL     1       8.369  30.541  59.536  1.00  0.00     0.005 C 
HETATM   13  C   UNL     1       7.174  31.394  59.987  1.00  0.00     0.005 C 
HETATM   14  C   UNL     1       6.480  32.067  58.793  1.00  0.00     0.047 C 
ENDROOT
BRANCH   2  15
HETATM   15  S   UNL     1       4.288  27.710  52.806  1.00  0.00    -0.082 SA
BRANCH  15  16
HETATM   16  C   UNL     1       5.232  28.419  51.424  1.00  0.00     0.185 C 
BRANCH  16  17
HETATM   17  C   UNL     1       4.532  28.448  50.064  1.00  0.00     0.231 C 
HETATM   18  N   UNL     1       3.161  28.327  50.081  1.00  0.00    -0.327 N 
HETATM   19  H   UNL     1       2.742  28.197  51.000  1.00  0.00     0.169 HD
HETATM   20  O   UNL     1       5.222  28.534  49.048  1.00  0.00    -0.272 OA
BRANCH  18  21
HETATM   21  C   UNL     1       2.271  28.218  48.996  1.00  0.00     0.034 A 
HETATM   22  C   UNL     1       1.973  27.023  48.339  1.00  0.00     0.031 A 
HETATM   23  C   UNL     1       1.039  27.000  47.295  1.00  0.00     0.027 A 
HETATM   24  C   UNL     1       0.403  28.180  46.909  1.00  0.00     0.074 A 
HETATM   25  C   UNL     1       0.711  29.388  47.537  1.00  0.00     0.027 A 
HETATM   26  C   UNL     1       1.640  29.400  48.580  1.00  0.00     0.031 A 
BRANCH  24  27
HETATM   27  S   UNL     1      -0.771  28.164  45.588  1.00  0.00     0.239 S 
HETATM   28  O   UNL     1      -0.554  26.988  44.777  1.00  0.00    -0.206 OA
HETATM   29  O   UNL     1      -2.073  28.526  46.095  1.00  0.00    -0.206 OA
BRANCH  27  30
HETATM   30  N   UNL     1      -0.263  29.467  44.658  1.00  0.00    -0.225 NA
HETATM   31  H   UNL     1      -0.215  29.195  43.676  1.00  0.00     0.136 HD
HETATM   32  H   UNL     1      -0.863  30.273  44.837  1.00  0.00     0.136 HD
ENDBRANCH  27  30
ENDBRANCH  24  27
ENDBRANCH  18  21
ENDBRANCH  16  17
ENDBRANCH  15  16
ENDBRANCH   2  15
BRANCH   1  33
HETATM   33  C   UNL     1       6.723  26.236  54.095  1.00  0.00     0.045 A 
HETATM   34  C   UNL     1       6.334  24.992  54.610  1.00  0.00     0.033 A 
HETATM   35  C   UNL     1       6.822  23.804  54.058  1.00  0.00     0.039 A 
HETATM   36  C   UNL     1       7.717  23.828  52.990  1.00  0.00     0.068 A 
HETATM   37  C   UNL     1       8.109  25.057  52.464  1.00  0.00     0.039 A 
HETATM   38  C   UNL     1       7.622  26.250  53.019  1.00  0.00     0.033 A 
BRANCH  36  39
HETATM   39  O   UNL     1       8.136  22.598  52.565  1.00  0.00    -0.352 OA
BRANCH  39  40
HETATM   40  C   UNL     1       8.679  21.720  53.549  1.00  0.00     0.171 C 
HETATM   41  C   UNL     1       8.043  20.355  53.359  1.00  0.00     0.034 C 
ENDBRANCH  39  40
ENDBRANCH  36  39
ENDBRANCH   1  33
TORSDOF 9
ENDMDL
MODEL 2
REMARK VINA RESULT:      -9.9      3.338     10.016
REMARK  9 active torsions:
REMARK  status: ('A' for Active; 'I' for Inactive)
REMARK    1  A    between atoms: C_2  and  O_3 
REMARK    2  A    between atoms: O_3  and  C_4 
REMARK    3  A    between atoms: C_7  and  N_8 
REMARK    4  A    between atoms: C_9  and  S_10 
REMARK    5  A    between atoms: S_10  and  C_11 
REMARK    6  A    between atoms: C_11  and  C_12 
REMARK       I    between atoms: C_12  and  N_13 
REMARK    7  A    between atoms: N_13  and  C_14 
REMARK    8  A    between atoms: C_17  and  S_18 
REMARK    9  A    between atoms: S_18  and  N_19 
ROOT
HETATM    1  N   UNL     1       5.658  26.524  52.580  1.00  0.00    -0.256 N 
HETATM    2  C   UNL     1       5.100  27.033  53.759  1.00  0.00     0.177 A 
HETATM    3  N   UNL     1       5.362  26.629  54.963  1.00  0.00    -0.216 NA
HETATM    4  C   UNL     1       6.204  25.579  55.043  1.00  0.00     0.117 A 
HETATM    5  C   UNL     1       6.787  24.919  53.989  1.00  0.00     0.076 A 
HETATM    6  C   UNL     1       6.521  25.406  52.644  1.00  0.00     0.268 A 
HETATM    7  O   UNL     1       7.056  24.868  51.678  1.00  0.00    -0.267 OA
HETATM    8  S   UNL     1       6.608  24.882  56.545  1.00  0.00    -0.073 SA
HETATM    9  C   UNL     1       7.546  23.678  55.797  1.00  0.00    -0.008 A 
HETATM   10  C   UNL     1       7.591  23.813  54.421  1.00  0.00    -0.026 A 
HETATM   11  C   UNL     1       8.361  22.858  53.555  1.00  0.00     0.041 C 
HETATM   12  C   UNL     1       9.331  21.991  54.375  1.00  0.00     0.005 C 
HETATM   13  C   UNL     1       8.683  21.468  55.665  1.00  0.00     0.005 C 
HETATM   14  C   UNL     1       8.252  22.619  56.586  1.00  0.00     0.047 C 
ENDROOT
BRANCH   2  15
HETATM   15  S   UNL     1       3.827  28.252  53.702  1.00  0.00    -0.082 SA
BRANCH  15  16
HETATM   16  C   UNL     1       4.804  29.691  54.231  1.00  0.00     0.185 C 
BRANCH  16  17
HETATM   17  C   UNL     1       5.065  29.824  55.733  1.00  0.00     0.231 C 
HETATM   18  N   UNL     1       6.295  30.326  56.095  1.00  0.00    -0.327 N 
HETATM   19  H   UNL     1       6.929  30.534  55.327  1.00  0.00     0.169 HD
HETATM   20  O   UNL     1       4.197  29.441  56.518  1.00  0.00    -0.272 OA
BRANCH  18  21
HETATM   21  C   UNL     1       6.848  30.462  57.383  1.00  0.00     0.034 A 
HETATM   22  C   UNL     1       7.846  29.635  57.901  1.00  0.00     0.031 A 
HETATM   23  C   UNL     1       8.371  29.872  59.178  1.00  0.00     0.027 A 
HETATM   24  C   UNL     1       7.891  30.940  59.938  1.00  0.00     0.074 A 
HETATM   25  C   UNL     1       6.873  31.756  59.445  1.00  0.00     0.027 A 
HETATM   26  C   UNL     1       6.360  31.517  58.168  1.00  0.00     0.031 A 
BRANCH  24  27
HETATM   27  S   UNL     1       8.540  31.241  61.553  1.00  0.00     0.239 S 
HETATM   28  O   UNL     1       9.762  32.004  61.438  1.00  0.00    -0.206 OA
HETATM   29  O   UNL     1       7.468  31.625  62.440  1.00  0.00    -0.206 OA
BRANCH  27  30
HETATM   30  N   UNL     1       9.002  29.699  62.034  1.00  0.00    -0.225 NA
HETATM   31  H   UNL     1       8.450  29.000  61.536  1.00  0.00     0.136 HD
HETATM   32  H   UNL     1      10.010  29.590  61.920  1.00  0.00     0.136 HD
ENDBRANCH  27  30
ENDBRANCH  24  27
ENDBRANCH  18  21
ENDBRANCH  16  17
ENDBRANCH  15  16
ENDBRANCH   2  15
BRANCH   1  33
HETATM   33  C   UNL     1       5.466  27.128  51.290  1.00  0.00     0.045 A 
HETATM   34  C   UNL     1       5.868  28.449  51.051  1.00  0.00     0.033 A 
HETATM   35  C   UNL     1       5.625  29.059  49.816  1.00  0.00     0.039 A 
HETATM   36  C   UNL     1       4.965  28.373  48.798  1.00  0.00     0.068 A 
HETATM   37  C   UNL     1       4.563  27.057  49.021  1.00  0.00     0.039 A 
HETATM   38  C   UNL     1       4.804  26.445  50.260  1.00  0.00     0.033 A 
BRANCH  36  39
HETATM   39  O   UNL     1       4.768  29.094  47.655  1.00  0.00    -0.352 OA
BRANCH  39  40
HETATM   40  C   UNL     1       4.032  30.310  47.771  1.00  0.00     0.171 C 
HETATM   41  C   UNL     1       2.554  29.962  47.795  1.00  0.00     0.034 C 
ENDBRANCH  39  40
ENDBRANCH  36  39
ENDBRANCH   1  33
TORSDOF 9
ENDMDL
MODEL 3
REMARK VINA RESULT:      -9.9      5.614     10.762
REMARK  9 active torsions:
REMARK  status: ('A' for Active; 'I' for Inactive)
REMARK    1  A    between atoms: C_2  and  O_3 
REMARK    2  A    between atoms: O_3  and  C_4 
REMARK    3  A    between atoms: C_7  and  N_8 
REMARK    4  A    between atoms: C_9  and  S_10 
REMARK    5  A    between atoms: S_10  and  C_11 
REMARK    6  A    between atoms: C_11  and  C_12 
REMARK       I    between atoms: C_12  and  N_13 
REMARK    7  A    between atoms: N_13  and  C_14 
REMARK    8  A    between atoms: C_17  and  S_18 
REMARK    9  A    between atoms: S_18  and  N_19 
ROOT
HETATM    1  N   UNL     1       5.847  28.956  56.279  1.00  0.00    -0.256 N 
HETATM    2  C   UNL     1       6.490  29.582  57.353  1.00  0.00     0.177 A 
HETATM    3  N   UNL     1       6.190  30.742  57.850  1.00  0.00    -0.216 NA
HETATM    4  C   UNL     1       5.205  31.402  57.207  1.00  0.00     0.117 A 
HETATM    5  C   UNL     1       4.517  30.965  56.102  1.00  0.00     0.076 A 
HETATM    6  C   UNL     1       4.832  29.645  55.577  1.00  0.00     0.268 A 
HETATM    7  O   UNL     1       4.210  29.202  54.614  1.00  0.00    -0.267 OA
HETATM    8  S   UNL     1       4.726  32.965  57.690  1.00  0.00    -0.073 SA
HETATM    9  C   UNL     1       3.613  33.079  56.411  1.00  0.00    -0.008 A 
HETATM   10  C   UNL     1       3.567  31.934  55.638  1.00  0.00    -0.026 A 
HETATM   11  C   UNL     1       2.655  31.814  54.451  1.00  0.00     0.041 C 
HETATM   12  C   UNL     1       1.581  32.914  54.436  1.00  0.00     0.005 C 
HETATM   13  C   UNL     1       2.165  34.290  54.789  1.00  0.00     0.005 C 
HETATM   14  C   UNL     1       2.772  34.300  56.200  1.00  0.00     0.047 C 
ENDROOT
BRANCH   2  15
HETATM   15  S   UNL     1       7.925  28.868  58.087  1.00  0.00    -0.082 SA
BRANCH  15  16
HETATM   16  C   UNL     1       8.999  30.335  58.070  1.00  0.00     0.185 C 
BRANCH  16  17
HETATM   17  C   UNL     1       8.852  31.302  59.246  1.00  0.00     0.231 C 
HETATM   18  N   UNL     1       8.016  30.901  60.265  1.00  0.00    -0.327 N 
HETATM   19  H   UNL     1       7.549  30.007  60.124  1.00  0.00     0.169 HD
HETATM   20  O   UNL     1       9.441  32.382  59.199  1.00  0.00    -0.272 OA
BRANCH  18  21
HETATM   21  C   UNL     1       7.612  31.616  61.407  1.00  0.00     0.034 A 
HETATM   22  C   UNL     1       8.446  31.912  62.487  1.00  0.00     0.031 A 
HETATM   23  C   UNL     1       7.970  32.669  63.565  1.00  0.00     0.027 A 
HETATM   24  C   UNL     1       6.653  33.130  63.560  1.00  0.00     0.074 A 
HETATM   25  C   UNL     1       5.799  32.817  62.502  1.00  0.00     0.027 A 
HETATM   26  C   UNL     1       6.284  32.067  61.429  1.00  0.00     0.031 A 
BRANCH  24  27
HETATM   27  S   UNL     1       6.040  34.079  64.919  1.00  0.00     0.239 S 
HETATM   28  O   UNL     1       6.876  33.844  66.075  1.00  0.00    -0.206 OA
HETATM   29  O   UNL     1       5.699  35.406  64.466  1.00  0.00    -0.206 OA
BRANCH  27  30
HETATM   30  N   UNL     1       4.579  33.316  65.243  1.00  0.00    -0.225 NA
HETATM   31  H   UNL     1       4.187  32.937  64.381  1.00  0.00     0.136 HD
HETATM   32  H   UNL     1       4.709  32.623  65.981  1.00  0.00     0.136 HD
ENDBRANCH  27  30
ENDBRANCH  24  27
ENDBRANCH  18  21
ENDBRANCH  16  17
ENDBRANCH  15  16
ENDBRANCH   2  15
BRANCH   1  33
HETATM   33  C   UNL     1       6.106  27.597  55.887  1.00  0.00     0.045 A 
HETATM   34  C   UNL     1       6.970  27.311  54.822  1.00  0.00     0.033 A 
HETATM   35  C   UNL     1       7.174  25.994  54.400  1.00  0.00     0.039 A 
HETATM   36  C   UNL     1       6.513  24.934  55.020  1.00  0.00     0.068 A 
HETATM   37  C   UNL     1       5.654  25.204  56.083  1.00  0.00     0.039 A 
HETATM   38  C   UNL     1       5.446  26.525  56.506  1.00  0.00     0.033 A 
BRANCH  36  39
HETATM   39  O   UNL     1       6.782  23.704  54.492  1.00  0.00    -0.352 OA
BRANCH  39  40
HETATM   40  C   UNL     1       7.880  23.609  53.587  1.00  0.00     0.171 C 
HETATM   41  C   UNL     1       8.201  22.137  53.393  1.00  0.00     0.034 C 
ENDBRANCH  39  40
ENDBRANCH  36  39
ENDBRANCH   1  33
TORSDOF 9
ENDMDL
MODEL 4
REMARK VINA RESULT:      -9.8      3.877     11.090
REMARK  9 active torsions:
REMARK  status: ('A' for Active; 'I' for Inactive)
REMARK    1  A    between atoms: C_2  and  O_3 
REMARK    2  A    between atoms: O_3  and  C_4 
REMARK    3  A    between atoms: C_7  and  N_8 
REMARK    4  A    between atoms: C_9  and  S_10 
REMARK    5  A    between atoms: S_10  and  C_11 
REMARK    6  A    between atoms: C_11  and  C_12 
REMARK       I    between atoms: C_12  and  N_13 
REMARK    7  A    between atoms: N_13  and  C_14 
REMARK    8  A    between atoms: C_17  and  S_18 
REMARK    9  A    between atoms: S_18  and  N_19 
ROOT
HETATM    1  N   UNL     1       5.925  27.001  54.119  1.00  0.00    -0.256 N 
HETATM    2  C   UNL     1       6.397  27.396  55.377  1.00  0.00     0.177 A 
HETATM    3  N   UNL     1       7.191  26.713  56.141  1.00  0.00    -0.216 NA
HETATM    4  C   UNL     1       7.519  25.489  55.678  1.00  0.00     0.117 A 
HETATM    5  C   UNL     1       7.091  24.922  54.503  1.00  0.00     0.076 A 
HETATM    6  C   UNL     1       6.235  25.712  53.632  1.00  0.00     0.268 A 
HETATM    7  O   UNL     1       5.866  25.254  52.553  1.00  0.00    -0.267 OA
HETATM    8  S   UNL     1       8.504  24.434  56.585  1.00  0.00    -0.073 SA
HETATM    9  C   UNL     1       8.347  23.202  55.425  1.00  0.00    -0.008 A 
HETATM   10  C   UNL     1       7.588  23.586  54.335  1.00  0.00    -0.026 A 
HETATM   11  C   UNL     1       7.316  22.654  53.189  1.00  0.00     0.041 C 
HETATM   12  C   UNL     1       8.244  21.428  53.212  1.00  0.00     0.005 C 
HETATM   13  C   UNL     1       8.391  20.846  54.625  1.00  0.00     0.005 C 
HETATM   14  C   UNL     1       9.004  21.867  55.595  1.00  0.00     0.047 C 
ENDROOT
BRANCH   2  15
HETATM   15  S   UNL     1       5.825  28.884  56.130  1.00  0.00    -0.082 SA
BRANCH  15  16
HETATM   16  C   UNL     1       7.422  29.524  56.718  1.00  0.00     0.185 C 
BRANCH  16  17
HETATM   17  C   UNL     1       7.517  29.858  58.207  1.00  0.00     0.231 C 
HETATM   18  N   UNL     1       6.795  30.949  58.635  1.00  0.00    -0.327 N 
HETATM   19  H   UNL     1       6.286  31.451  57.910  1.00  0.00     0.169 HD
HETATM   20  O   UNL     1       8.253  29.173  58.919  1.00  0.00    -0.272 OA
BRANCH  18  21
HETATM   21  C   UNL     1       6.771  31.548  59.908  1.00  0.00     0.034 A 
HETATM   22  C   UNL     1       7.827  31.501  60.820  1.00  0.00     0.031 A 
HETATM   23  C   UNL     1       7.733  32.165  62.050  1.00  0.00     0.027 A 
HETATM   24  C   UNL     1       6.575  32.877  62.366  1.00  0.00     0.074 A 
HETATM   25  C   UNL     1       5.500  32.908  61.478  1.00  0.00     0.027 A 
HETATM   26  C   UNL     1       5.605  32.249  60.251  1.00  0.00     0.031 A 
BRANCH  24  27
HETATM   27  S   UNL     1       6.444  33.711  63.918  1.00  0.00     0.239 S 
HETATM   28  O   UNL     1       7.565  33.341  64.751  1.00  0.00    -0.206 OA
HETATM   29  O   UNL     1       6.063  35.085  63.697  1.00  0.00    -0.206 OA
BRANCH  27  30
HETATM   30  N   UNL     1       5.099  32.967  64.598  1.00  0.00    -0.225 NA
HETATM   31  H   UNL     1       4.445  33.673  64.935  1.00  0.00     0.136 HD
HETATM   32  H   UNL     1       4.694  32.311  63.929  1.00  0.00     0.136 HD
ENDBRANCH  27  30
ENDBRANCH  24  27
ENDBRANCH  18  21
ENDBRANCH  16  17
ENDBRANCH  15  16
ENDBRANCH   2  15
BRANCH   1  33
HETATM   33  C   UNL     1       5.193  27.873  53.242  1.00  0.00     0.045 A 
HETATM   34  C   UNL     1       3.800  27.985  53.341  1.00  0.00     0.033 A 
HETATM   35  C   UNL     1       3.080  28.785  52.447  1.00  0.00     0.039 A 
HETATM   36  C   UNL     1       3.730  29.480  51.429  1.00  0.00     0.068 A 
HETATM   37  C   UNL     1       5.116  29.382  51.322  1.00  0.00     0.039 A 
HETATM   38  C   UNL     1       5.838  28.578  52.215  1.00  0.00     0.033 A 
BRANCH  36  39
HETATM   39  O   UNL     1       2.906  30.201  50.612  1.00  0.00    -0.352 OA
BRANCH  39  40
HETATM   40  C   UNL     1       1.703  29.570  50.180  1.00  0.00     0.171 C 
HETATM   41  C   UNL     1       2.035  28.701  48.979  1.00  0.00     0.034 C 
ENDBRANCH  39  40
ENDBRANCH  36  39
ENDBRANCH   1  33
TORSDOF 9
ENDMDL
MODEL 5
REMARK VINA RESULT:      -9.8      2.043      6.149
REMARK  9 active torsions:
REMARK  status: ('A' for Active; 'I' for Inactive)
REMARK    1  A    between atoms: C_2  and  O_3 
REMARK    2  A    between atoms: O_3  and  C_4 
REMARK    3  A    between atoms: C_7  and  N_8 
REMARK    4  A    between atoms: C_9  and  S_10 
REMARK    5  A    between atoms: S_10  and  C_11 
REMARK    6  A    between atoms: C_11  and  C_12 
REMARK       I    between atoms: C_12  and  N_13 
REMARK    7  A    between atoms: N_13  and  C_14 
REMARK    8  A    between atoms: C_17  and  S_18 
REMARK    9  A    between atoms: S_18  and  N_19 
ROOT
HETATM    1  N   UNL     1       6.519  26.582  54.989  1.00  0.00    -0.256 N 
HETATM    2  C   UNL     1       6.402  26.446  53.600  1.00  0.00     0.177 A 
HETATM    3  N   UNL     1       6.627  25.366  52.918  1.00  0.00    -0.216 NA
HETATM    4  C   UNL     1       7.073  24.317  53.640  1.00  0.00     0.117 A 
HETATM    5  C   UNL     1       7.308  24.300  54.993  1.00  0.00     0.076 A 
HETATM    6  C   UNL     1       7.012  25.503  55.755  1.00  0.00     0.268 A 
HETATM    7  O   UNL     1       7.170  25.513  56.974  1.00  0.00    -0.267 OA
HETATM    8  S   UNL     1       7.477  22.839  52.894  1.00  0.00    -0.073 SA
HETATM    9  C   UNL     1       7.991  22.171  54.370  1.00  0.00    -0.008 A 
HETATM   10  C   UNL     1       7.828  23.038  55.435  1.00  0.00    -0.026 A 
HETATM   11  C   UNL     1       8.218  22.658  56.835  1.00  0.00     0.041 C 
HETATM   12  C   UNL     1       8.455  21.145  56.976  1.00  0.00     0.005 C 
HETATM   13  C   UNL     1       9.263  20.579  55.799  1.00  0.00     0.005 C 
HETATM   14  C   UNL     1       8.529  20.777  54.464  1.00  0.00     0.047 C 
ENDROOT
BRANCH   2  15
HETATM   15  S   UNL     1       6.039  27.840  52.583  1.00  0.00    -0.082 SA
BRANCH  15  16
HETATM   16  C   UNL     1       5.649  26.959  51.041  1.00  0.00     0.185 C 
BRANCH  16  17
HETATM   17  C   UNL     1       4.732  27.683  50.055  1.00  0.00     0.231 C 
HETATM   18  N   UNL     1       3.513  27.091  49.808  1.00  0.00    -0.327 N 
HETATM   19  H   UNL     1       3.350  26.207  50.285  1.00  0.00     0.169 HD
HETATM   20  O   UNL     1       5.142  28.710  49.514  1.00  0.00    -0.272 OA
BRANCH  18  21
HETATM   21  C   UNL     1       2.521  27.467  48.883  1.00  0.00     0.034 A 
HETATM   22  C   UNL     1       1.831  28.681  48.920  1.00  0.00     0.031 A 
HETATM   23  C   UNL     1       0.889  28.991  47.930  1.00  0.00     0.027 A 
HETATM   24  C   UNL     1       0.638  28.081  46.902  1.00  0.00     0.074 A 
HETATM   25  C   UNL     1       1.298  26.852  46.870  1.00  0.00     0.027 A 
HETATM   26  C   UNL     1       2.240  26.554  47.857  1.00  0.00     0.031 A 
BRANCH  24  27
HETATM   27  S   UNL     1      -0.554  28.459  45.655  1.00  0.00     0.239 S 
HETATM   28  O   UNL     1      -1.880  28.360  46.221  1.00  0.00    -0.206 OA
HETATM   29  O   UNL     1      -0.117  29.612  44.903  1.00  0.00    -0.206 OA
BRANCH  27  30
HETATM   30  N   UNL     1      -0.397  27.148  44.616  1.00  0.00    -0.225 NA
HETATM   31  H   UNL     1      -1.134  26.468  44.801  1.00  0.00     0.136 HD
HETATM   32  H   UNL     1      -0.366  27.476  43.650  1.00  0.00     0.136 HD
ENDBRANCH  27  30
ENDBRANCH  24  27
ENDBRANCH  18  21
ENDBRANCH  16  17
ENDBRANCH  15  16
ENDBRANCH   2  15
BRANCH   1  33
HETATM   33  C   UNL     1       6.086  27.750  55.706  1.00  0.00     0.045 A 
HETATM   34  C   UNL     1       4.729  27.958  55.984  1.00  0.00     0.033 A 
HETATM   35  C   UNL     1       4.299  29.124  56.626  1.00  0.00     0.039 A 
HETATM   36  C   UNL     1       5.210  30.113  56.994  1.00  0.00     0.068 A 
HETATM   37  C   UNL     1       6.563  29.917  56.728  1.00  0.00     0.039 A 
HETATM   38  C   UNL     1       6.995  28.750  56.081  1.00  0.00     0.033 A 
BRANCH  36  39
HETATM   39  O   UNL     1       4.654  31.210  57.588  1.00  0.00    -0.352 OA
BRANCH  39  40
HETATM   40  C   UNL     1       5.328  32.455  57.416  1.00  0.00     0.171 C 
HETATM   41  C   UNL     1       4.737  33.142  56.197  1.00  0.00     0.034 C 
ENDBRANCH  39  40
ENDBRANCH  36  39
ENDBRANCH   1  33
TORSDOF 9
ENDMDL
MODEL 6
REMARK VINA RESULT:      -9.7      5.016      9.258
REMARK  9 active torsions:
REMARK  status: ('A' for Active; 'I' for Inactive)
REMARK    1  A    between atoms: C_2  and  O_3 
REMARK    2  A    between atoms: O_3  and  C_4 
REMARK    3  A    between atoms: C_7  and  N_8 
REMARK    4  A    between atoms: C_9  and  S_10 
REMARK    5  A    between atoms: S_10  and  C_11 
REMARK    6  A    between atoms: C_11  and  C_12 
REMARK       I    between atoms: C_12  and  N_13 
REMARK    7  A    between atoms: N_13  and  C_14 
REMARK    8  A    between atoms: C_17  and  S_18 
REMARK    9  A    between atoms: S_18  and  N_19 
ROOT
HETATM    1  N   UNL     1       7.872  26.741  55.753  1.00  0.00    -0.256 N 
HETATM    2  C   UNL     1       7.359  26.853  54.455  1.00  0.00     0.177 A 
HETATM    3  N   UNL     1       7.036  25.868  53.676  1.00  0.00    -0.216 NA
HETATM    4  C   UNL     1       7.290  24.640  54.171  1.00  0.00     0.117 A 
HETATM    5  C   UNL     1       7.850  24.353  55.392  1.00  0.00     0.076 A 
HETATM    6  C   UNL     1       8.170  25.463  56.277  1.00  0.00     0.268 A 
HETATM    7  O   UNL     1       8.634  25.244  57.393  1.00  0.00    -0.267 OA
HETATM    8  S   UNL     1       6.983  23.236  53.254  1.00  0.00    -0.073 SA
HETATM    9  C   UNL     1       7.618  22.235  54.473  1.00  0.00    -0.008 A 
HETATM   10  C   UNL     1       8.029  22.944  55.587  1.00  0.00    -0.026 A 
HETATM   11  C   UNL     1       8.625  22.262  56.785  1.00  0.00     0.041 C 
HETATM   12  C   UNL     1       8.386  20.743  56.761  1.00  0.00     0.005 C 
HETATM   13  C   UNL     1       8.631  20.145  55.369  1.00  0.00     0.005 C 
HETATM   14  C   UNL     1       7.680  20.746  54.322  1.00  0.00     0.047 C 
ENDROOT
BRANCH   2  15
HETATM   15  S   UNL     1       7.216  28.427  53.673  1.00  0.00    -0.082 SA
BRANCH  15  16
HETATM   16  C   UNL     1       5.412  28.459  53.451  1.00  0.00     0.185 C 
BRANCH  16  17
HETATM   17  C   UNL     1       4.650  29.540  54.219  1.00  0.00     0.231 C 
HETATM   18  N   UNL     1       5.351  30.198  55.204  1.00  0.00    -0.327 N 
HETATM   19  H   UNL     1       6.307  29.881  55.350  1.00  0.00     0.169 HD
HETATM   20  O   UNL     1       3.463  29.728  53.948  1.00  0.00    -0.272 OA
BRANCH  18  21
HETATM   21  C   UNL     1       4.888  31.153  56.129  1.00  0.00     0.034 A 
HETATM   22  C   UNL     1       5.107  32.527  56.017  1.00  0.00     0.031 A 
HETATM   23  C   UNL     1       4.570  33.410  56.962  1.00  0.00     0.027 A 
HETATM   24  C   UNL     1       3.811  32.913  58.023  1.00  0.00     0.074 A 
HETATM   25  C   UNL     1       3.608  31.540  58.164  1.00  0.00     0.027 A 
HETATM   26  C   UNL     1       4.143  30.667  57.213  1.00  0.00     0.031 A 
BRANCH  24  27
HETATM   27  S   UNL     1       3.136  34.018  59.225  1.00  0.00     0.239 S 
HETATM   28  O   UNL     1       4.216  34.713  59.889  1.00  0.00    -0.206 OA
HETATM   29  O   UNL     1       2.001  34.709  58.662  1.00  0.00    -0.206 OA
BRANCH  27  30
HETATM   30  N   UNL     1       2.507  32.952  60.361  1.00  0.00    -0.225 NA
HETATM   31  H   UNL     1       2.121  33.472  61.149  1.00  0.00     0.136 HD
HETATM   32  H   UNL     1       1.840  32.324  59.911  1.00  0.00     0.136 HD
ENDBRANCH  27  30
ENDBRANCH  24  27
ENDBRANCH  18  21
ENDBRANCH  16  17
ENDBRANCH  15  16
ENDBRANCH   2  15
BRANCH   1  33
HETATM   33  C   UNL     1       8.043  27.864  56.634  1.00  0.00     0.045 A 
HETATM   34  C   UNL     1       9.264  28.549  56.692  1.00  0.00     0.033 A 
HETATM   35  C   UNL     1       9.452  29.602  57.593  1.00  0.00     0.039 A 
HETATM   36  C   UNL     1       8.434  29.988  58.463  1.00  0.00     0.068 A 
HETATM   37  C   UNL     1       7.213  29.318  58.413  1.00  0.00     0.039 A 
HETATM   38  C   UNL     1       7.024  28.261  57.512  1.00  0.00     0.033 A 
BRANCH  36  39
HETATM   39  O   UNL     1       8.760  31.010  59.308  1.00  0.00    -0.352 OA
BRANCH  39  40
HETATM   40  C   UNL     1       8.259  30.939  60.641  1.00  0.00     0.171 C 
HETATM   41  C   UNL     1       9.405  31.247  61.589  1.00  0.00     0.034 C 
ENDBRANCH  39  40
ENDBRANCH  36  39
ENDBRANCH   1  33
TORSDOF 9
ENDMDL
MODEL 7
REMARK VINA RESULT:      -9.5      5.350      8.557
REMARK  9 active torsions:
REMARK  status: ('A' for Active; 'I' for Inactive)
REMARK    1  A    between atoms: C_2  and  O_3 
REMARK    2  A    between atoms: O_3  and  C_4 
REMARK    3  A    between atoms: C_7  and  N_8 
REMARK    4  A    between atoms: C_9  and  S_10 
REMARK    5  A    between atoms: S_10  and  C_11 
REMARK    6  A    between atoms: C_11  and  C_12 
REMARK       I    between atoms: C_12  and  N_13 
REMARK    7  A    between atoms: N_13  and  C_14 
REMARK    8  A    between atoms: C_17  and  S_18 
REMARK    9  A    between atoms: S_18  and  N_19 
ROOT
HETATM    1  N   UNL     1       6.775  32.592  60.620  1.00  0.00    -0.256 N 
HETATM    2  C   UNL     1       5.660  33.257  60.093  1.00  0.00     0.177 A 
HETATM    3  N   UNL     1       4.869  34.051  60.745  1.00  0.00    -0.216 NA
HETATM    4  C   UNL     1       5.139  34.174  62.060  1.00  0.00     0.117 A 
HETATM    5  C   UNL     1       6.146  33.544  62.749  1.00  0.00     0.076 A 
HETATM    6  C   UNL     1       7.055  32.688  62.002  1.00  0.00     0.268 A 
HETATM    7  O   UNL     1       7.994  32.140  62.574  1.00  0.00    -0.267 OA
HETATM    8  S   UNL     1       4.160  35.130  63.078  1.00  0.00    -0.073 SA
HETATM    9  C   UNL     1       5.062  34.691  64.450  1.00  0.00    -0.008 A 
HETATM   10  C   UNL     1       6.123  33.856  64.148  1.00  0.00    -0.026 A 
HETATM   11  C   UNL     1       7.053  33.340  65.209  1.00  0.00     0.041 C 
HETATM   12  C   UNL     1       6.905  34.114  66.530  1.00  0.00     0.005 C 
HETATM   13  C   UNL     1       5.433  34.360  66.889  1.00  0.00     0.005 C 
HETATM   14  C   UNL     1       4.725  35.201  65.817  1.00  0.00     0.047 C 
ENDROOT
BRANCH   2  15
HETATM   15  S   UNL     1       5.130  32.959  58.439  1.00  0.00    -0.082 SA
BRANCH  15  16
HETATM   16  C   UNL     1       3.896  31.666  58.776  1.00  0.00     0.185 C 
BRANCH  16  17
HETATM   17  C   UNL     1       3.792  30.538  57.750  1.00  0.00     0.231 C 
HETATM   18  N   UNL     1       4.902  29.736  57.610  1.00  0.00    -0.327 N 
HETATM   19  H   UNL     1       5.703  29.989  58.185  1.00  0.00     0.169 HD
HETATM   20  O   UNL     1       2.759  30.438  57.087  1.00  0.00    -0.272 OA
BRANCH  18  21
HETATM   21  C   UNL     1       5.132  28.700  56.685  1.00  0.00     0.034 A 
HETATM   22  C   UNL     1       5.107  27.341  57.004  1.00  0.00     0.031 A 
HETATM   23  C   UNL     1       5.303  26.375  56.008  1.00  0.00     0.027 A 
HETATM   24  C   UNL     1       5.525  26.774  54.689  1.00  0.00     0.074 A 
HETATM   25  C   UNL     1       5.582  28.129  54.361  1.00  0.00     0.027 A 
HETATM   26  C   UNL     1       5.379  29.085  55.359  1.00  0.00     0.031 A 
BRANCH  24  27
HETATM   27  S   UNL     1       5.781  25.564  53.427  1.00  0.00     0.239 S 
HETATM   28  O   UNL     1       6.200  26.227  52.213  1.00  0.00    -0.206 OA
HETATM   29  O   UNL     1       6.493  24.436  53.978  1.00  0.00    -0.206 OA
BRANCH  27  30
HETATM   30  N   UNL     1       4.216  25.024  53.143  1.00  0.00    -0.225 NA
HETATM   31  H   UNL     1       3.839  25.477  52.310  1.00  0.00     0.136 HD
HETATM   32  H   UNL     1       4.206  24.005  53.102  1.00  0.00     0.136 HD
ENDBRANCH  27  30
ENDBRANCH  24  27
ENDBRANCH  18  21
ENDBRANCH  16  17
ENDBRANCH  15  16
ENDBRANCH   2  15
BRANCH   1  33
HETATM   33  C   UNL     1       7.717  31.868  59.810  1.00  0.00     0.045 A 
HETATM   34  C   UNL     1       7.453  30.552  59.409  1.00  0.00     0.033 A 
HETATM   35  C   UNL     1       8.395  29.824  58.675  1.00  0.00     0.039 A 
HETATM   36  C   UNL     1       9.625  30.387  58.336  1.00  0.00     0.068 A 
HETATM   37  C   UNL     1       9.898  31.697  58.724  1.00  0.00     0.039 A 
HETATM   38  C   UNL     1       8.956  32.426  59.463  1.00  0.00     0.033 A 
BRANCH  36  39
HETATM   39  O   UNL     1      10.461  29.559  57.642  1.00  0.00    -0.352 OA
BRANCH  39  40
HETATM   40  C   UNL     1      10.527  29.735  56.228  1.00  0.00     0.171 C 
HETATM   41  C   UNL     1       9.228  29.222  55.632  1.00  0.00     0.034 C 
ENDBRANCH  39  40
ENDBRANCH  36  39
ENDBRANCH   1  33
TORSDOF 9
ENDMDL
MODEL 8
REMARK VINA RESULT:      -9.5      4.366      7.972
REMARK  9 active torsions:
REMARK  status: ('A' for Active; 'I' for Inactive)
REMARK    1  A    between atoms: C_2  and  O_3 
REMARK    2  A    between atoms: O_3  and  C_4 
REMARK    3  A    between atoms: C_7  and  N_8 
REMARK    4  A    between atoms: C_9  and  S_10 
REMARK    5  A    between atoms: S_10  and  C_11 
REMARK    6  A    between atoms: C_11  and  C_12 
REMARK       I    between atoms: C_12  and  N_13 
REMARK    7  A    between atoms: N_13  and  C_14 
REMARK    8  A    between atoms: C_17  and  S_18 
REMARK    9  A    between atoms: S_18  and  N_19 
ROOT
HETATM    1  N   UNL     1       7.583  26.567  55.679  1.00  0.00    -0.256 N 
HETATM    2  C   UNL     1       7.255  26.684  54.322  1.00  0.00     0.177 A 
HETATM    3  N   UNL     1       7.098  25.703  53.489  1.00  0.00    -0.216 NA
HETATM    4  C   UNL     1       7.343  24.477  53.996  1.00  0.00     0.117 A 
HETATM    5  C   UNL     1       7.738  24.190  55.280  1.00  0.00     0.076 A 
HETATM    6  C   UNL     1       7.870  25.293  56.219  1.00  0.00     0.268 A 
HETATM    7  O   UNL     1       8.181  25.073  57.387  1.00  0.00    -0.267 OA
HETATM    8  S   UNL     1       7.244  23.081  53.023  1.00  0.00    -0.073 SA
HETATM    9  C   UNL     1       7.750  22.085  54.304  1.00  0.00    -0.008 A 
HETATM   10  C   UNL     1       7.961  22.787  55.476  1.00  0.00    -0.026 A 
HETATM   11  C   UNL     1       8.414  22.108  56.737  1.00  0.00     0.041 C 
HETATM   12  C   UNL     1       8.261  20.580  56.655  1.00  0.00     0.005 C 
HETATM   13  C   UNL     1       8.733  20.028  55.303  1.00  0.00     0.005 C 
HETATM   14  C   UNL     1       7.911  20.605  54.140  1.00  0.00     0.047 C 
ENDROOT
BRANCH   2  15
HETATM   15  S   UNL     1       7.144  28.266  53.553  1.00  0.00    -0.082 SA
BRANCH  15  16
HETATM   16  C   UNL     1       5.718  27.944  52.472  1.00  0.00     0.185 C 
BRANCH  16  17
HETATM   17  C   UNL     1       4.456  28.764  52.743  1.00  0.00     0.231 C 
HETATM   18  N   UNL     1       4.648  30.084  53.085  1.00  0.00    -0.327 N 
HETATM   19  H   UNL     1       5.619  30.383  53.155  1.00  0.00     0.169 HD
HETATM   20  O   UNL     1       3.363  28.200  52.685  1.00  0.00    -0.272 OA
BRANCH  18  21
HETATM   21  C   UNL     1       3.696  31.039  53.486  1.00  0.00     0.034 A 
HETATM   22  C   UNL     1       3.087  31.953  52.624  1.00  0.00     0.031 A 
HETATM   23  C   UNL     1       2.115  32.841  53.102  1.00  0.00     0.027 A 
HETATM   24  C   UNL     1       1.752  32.811  54.449  1.00  0.00     0.074 A 
HETATM   25  C   UNL     1       2.372  31.923  55.329  1.00  0.00     0.027 A 
HETATM   26  C   UNL     1       3.337  31.038  54.842  1.00  0.00     0.031 A 
BRANCH  24  27
HETATM   27  S   UNL     1       0.532  33.932  55.064  1.00  0.00     0.239 S 
HETATM   28  O   UNL     1       0.463  35.082  54.192  1.00  0.00    -0.206 OA
HETATM   29  O   UNL     1      -0.641  33.194  55.468  1.00  0.00    -0.206 OA
BRANCH  27  30
HETATM   30  N   UNL     1       1.244  34.473  56.486  1.00  0.00    -0.225 NA
HETATM   31  H   UNL     1       1.461  33.680  57.090  1.00  0.00     0.136 HD
HETATM   32  H   UNL     1       2.050  35.060  56.266  1.00  0.00     0.136 HD
ENDBRANCH  27  30
ENDBRANCH  24  27
ENDBRANCH  18  21
ENDBRANCH  16  17
ENDBRANCH  15  16
ENDBRANCH   2  15
BRANCH   1  33
HETATM   33  C   UNL     1       7.569  27.677  56.592  1.00  0.00     0.045 A 
HETATM   34  C   UNL     1       6.358  28.246  57.010  1.00  0.00     0.033 A 
HETATM   35  C   UNL     1       6.344  29.365  57.848  1.00  0.00     0.039 A 
HETATM   36  C   UNL     1       7.534  29.949  58.279  1.00  0.00     0.068 A 
HETATM   37  C   UNL     1       8.746  29.391  57.875  1.00  0.00     0.039 A 
HETATM   38  C   UNL     1       8.761  28.271  57.032  1.00  0.00     0.033 A 
BRANCH  36  39
HETATM   39  O   UNL     1       7.377  31.051  59.071  1.00  0.00    -0.352 OA
BRANCH  39  40
HETATM   40  C   UNL     1       8.070  31.061  60.317  1.00  0.00     0.171 C 
HETATM   41  C   UNL     1       8.252  32.509  60.739  1.00  0.00     0.034 C 
ENDBRANCH  39  40
ENDBRANCH  36  39
ENDBRANCH   1  33
TORSDOF 9
ENDMDL
MODEL 9
REMARK VINA RESULT:      -9.3      5.052     12.280
REMARK  9 active torsions:
REMARK  status: ('A' for Active; 'I' for Inactive)
REMARK    1  A    between atoms: C_2  and  O_3 
REMARK    2  A    between atoms: O_3  and  C_4 
REMARK    3  A    between atoms: C_7  and  N_8 
REMARK    4  A    between atoms: C_9  and  S_10 
REMARK    5  A    between atoms: S_10  and  C_11 
REMARK    6  A    between atoms: C_11  and  C_12 
REMARK       I    between atoms: C_12  and  N_13 
REMARK    7  A    between atoms: N_13  and  C_14 
REMARK    8  A    between atoms: C_17  and  S_18 
REMARK    9  A    between atoms: S_18  and  N_19 
ROOT
HETATM    1  N   UNL     1       5.679  29.419  56.113  1.00  0.00    -0.256 N 
HETATM    2  C   UNL     1       6.801  28.675  56.501  1.00  0.00     0.177 A 
HETATM    3  N   UNL     1       7.428  27.806  55.771  1.00  0.00    -0.216 NA
HETATM    4  C   UNL     1       6.883  27.579  54.558  1.00  0.00     0.117 A 
HETATM    5  C   UNL     1       5.752  28.168  54.049  1.00  0.00     0.076 A 
HETATM    6  C   UNL     1       5.080  29.173  54.857  1.00  0.00     0.268 A 
HETATM    7  O   UNL     1       4.089  29.753  54.419  1.00  0.00    -0.267 OA
HETATM    8  S   UNL     1       7.545  26.422  53.495  1.00  0.00    -0.073 SA
HETATM    9  C   UNL     1       6.311  26.683  52.355  1.00  0.00    -0.008 A 
HETATM   10  C   UNL     1       5.419  27.664  52.748  1.00  0.00    -0.026 A 
HETATM   11  C   UNL     1       4.247  28.058  51.895  1.00  0.00     0.041 C 
HETATM   12  C   UNL     1       4.377  27.528  50.457  1.00  0.00     0.005 C 
HETATM   13  C   UNL     1       4.864  26.073  50.424  1.00  0.00     0.005 C 
HETATM   14  C   UNL     1       6.253  25.928  51.063  1.00  0.00     0.047 C 
ENDROOT
BRANCH   2  15
HETATM   15  S   UNL     1       7.419  28.766  58.149  1.00  0.00    -0.082 SA
BRANCH  15  16
HETATM   16  C   UNL     1       8.423  30.273  57.981  1.00  0.00     0.185 C 
BRANCH  16  17
HETATM   17  C   UNL     1       8.385  31.252  59.155  1.00  0.00     0.231 C 
HETATM   18  N   UNL     1       7.654  30.859  60.254  1.00  0.00    -0.327 N 
HETATM   19  H   UNL     1       7.181  29.962  60.169  1.00  0.00     0.169 HD
HETATM   20  O   UNL     1       8.962  32.334  59.038  1.00  0.00    -0.272 OA
BRANCH  18  21
HETATM   21  C   UNL     1       7.359  31.586  61.423  1.00  0.00     0.034 A 
HETATM   22  C   UNL     1       8.273  31.831  62.449  1.00  0.00     0.031 A 
HETATM   23  C   UNL     1       7.904  32.604  63.557  1.00  0.00     0.027 A 
HETATM   24  C   UNL     1       6.614  33.131  63.637  1.00  0.00     0.074 A 
HETATM   25  C   UNL     1       5.681  32.870  62.633  1.00  0.00     0.027 A 
HETATM   26  C   UNL     1       6.059  32.103  61.529  1.00  0.00     0.031 A 
BRANCH  24  27
HETATM   27  S   UNL     1       6.137  34.100  65.035  1.00  0.00     0.239 S 
HETATM   28  O   UNL     1       7.059  33.852  66.120  1.00  0.00    -0.206 OA
HETATM   29  O   UNL     1       5.789  35.432  64.603  1.00  0.00    -0.206 OA
BRANCH  27  30
HETATM   30  N   UNL     1       4.691  33.371  65.484  1.00  0.00    -0.225 NA
HETATM   31  H   UNL     1       4.150  34.007  66.070  1.00  0.00     0.136 HD
HETATM   32  H   UNL     1       4.195  33.049  64.652  1.00  0.00     0.136 HD
ENDBRANCH  27  30
ENDBRANCH  24  27
ENDBRANCH  18  21
ENDBRANCH  16  17
ENDBRANCH  15  16
ENDBRANCH   2  15
BRANCH   1  33
HETATM   33  C   UNL     1       5.136  30.494  56.898  1.00  0.00     0.045 A 
HETATM   34  C   UNL     1       5.617  31.802  56.752  1.00  0.00     0.033 A 
HETATM   35  C   UNL     1       5.134  32.837  57.558  1.00  0.00     0.039 A 
HETATM   36  C   UNL     1       4.171  32.591  58.536  1.00  0.00     0.068 A 
HETATM   37  C   UNL     1       3.681  31.295  58.689  1.00  0.00     0.039 A 
HETATM   38  C   UNL     1       4.166  30.256  57.883  1.00  0.00     0.033 A 
BRANCH  36  39
HETATM   39  O   UNL     1       3.808  33.683  59.270  1.00  0.00    -0.352 OA
BRANCH  39  40
HETATM   40  C   UNL     1       2.818  33.491  60.278  1.00  0.00     0.171 C 
HETATM   41  C   UNL     1       2.227  34.848  60.619  1.00  0.00     0.034 C 
ENDBRANCH  39  40
ENDBRANCH  36  39
ENDBRANCH   1  33
TORSDOF 9
ENDMDL
MODEL 10
REMARK VINA RESULT:      -9.3      3.363      7.039
REMARK  9 active torsions:
REMARK  status: ('A' for Active; 'I' for Inactive)
REMARK    1  A    between atoms: C_2  and  O_3 
REMARK    2  A    between atoms: O_3  and  C_4 
REMARK    3  A    between atoms: C_7  and  N_8 
REMARK    4  A    between atoms: C_9  and  S_10 
REMARK    5  A    between atoms: S_10  and  C_11 
REMARK    6  A    between atoms: C_11  and  C_12 
REMARK       I    between atoms: C_12  and  N_13 
REMARK    7  A    between atoms: N_13  and  C_14 
REMARK    8  A    between atoms: C_17  and  S_18 
REMARK    9  A    between atoms: S_18  and  N_19 
ROOT
HETATM    1  N   UNL     1       7.600  26.526  55.614  1.00  0.00    -0.256 N 
HETATM    2  C   UNL     1       7.271  26.651  54.259  1.00  0.00     0.177 A 
HETATM    3  N   UNL     1       7.114  25.674  53.420  1.00  0.00    -0.216 NA
HETATM    4  C   UNL     1       7.362  24.446  53.919  1.00  0.00     0.117 A 
HETATM    5  C   UNL     1       7.759  24.152  55.201  1.00  0.00     0.076 A 
HETATM    6  C   UNL     1       7.890  25.249  56.146  1.00  0.00     0.268 A 
HETATM    7  O   UNL     1       8.203  25.022  57.312  1.00  0.00    -0.267 OA
HETATM    8  S   UNL     1       7.264  23.056  52.937  1.00  0.00    -0.073 SA
HETATM    9  C   UNL     1       7.774  22.053  54.211  1.00  0.00    -0.008 A 
HETATM   10  C   UNL     1       7.984  22.748  55.388  1.00  0.00    -0.026 A 
HETATM   11  C   UNL     1       8.441  22.062  56.644  1.00  0.00     0.041 C 
HETATM   12  C   UNL     1       8.290  20.534  56.553  1.00  0.00     0.005 C 
HETATM   13  C   UNL     1       8.761  19.991  55.196  1.00  0.00     0.005 C 
HETATM   14  C   UNL     1       7.937  20.574  54.039  1.00  0.00     0.047 C 
ENDROOT
BRANCH   2  15
HETATM   15  S   UNL     1       7.155  28.237  53.499  1.00  0.00    -0.082 SA
BRANCH  15  16
HETATM   16  C   UNL     1       5.345  28.350  53.377  1.00  0.00     0.185 C 
BRANCH  16  17
HETATM   17  C   UNL     1       4.787  29.032  52.127  1.00  0.00     0.231 C 
HETATM   18  N   UNL     1       5.714  29.520  51.233  1.00  0.00    -0.327 N 
HETATM   19  H   UNL     1       6.688  29.407  51.504  1.00  0.00     0.169 HD
HETATM   20  O   UNL     1       3.566  29.144  52.012  1.00  0.00    -0.272 OA
BRANCH  18  21
HETATM   21  C   UNL     1       5.500  30.275  50.064  1.00  0.00     0.034 A 
HETATM   22  C   UNL     1       5.911  31.598  49.896  1.00  0.00     0.031 A 
HETATM   23  C   UNL     1       5.696  32.259  48.680  1.00  0.00     0.027 A 
HETATM   24  C   UNL     1       5.066  31.590  47.629  1.00  0.00     0.074 A 
HETATM   25  C   UNL     1       4.624  30.277  47.792  1.00  0.00     0.027 A 
HETATM   26  C   UNL     1       4.848  29.624  49.006  1.00  0.00     0.031 A 
BRANCH  24  27
HETATM   27  S   UNL     1       4.783  32.417  46.094  1.00  0.00     0.239 S 
HETATM   28  O   UNL     1       4.198  31.487  45.156  1.00  0.00    -0.206 OA
HETATM   29  O   UNL     1       4.218  33.722  46.346  1.00  0.00    -0.206 OA
BRANCH  27  30
HETATM   30  N   UNL     1       6.350  32.693  45.555  1.00  0.00    -0.225 NA
HETATM   31  H   UNL     1       6.869  33.224  46.255  1.00  0.00     0.136 HD
HETATM   32  H   UNL     1       6.786  31.807  45.297  1.00  0.00     0.136 HD
ENDBRANCH  27  30
ENDBRANCH  24  27
ENDBRANCH  18  21
ENDBRANCH  16  17
ENDBRANCH  15  16
ENDBRANCH   2  15
BRANCH   1  33
HETATM   33  C   UNL     1       7.585  27.630  56.534  1.00  0.00     0.045 A 
HETATM   34  C   UNL     1       6.374  28.189  56.963  1.00  0.00     0.033 A 
HETATM   35  C   UNL     1       6.359  29.303  57.809  1.00  0.00     0.039 A 
HETATM   36  C   UNL     1       7.548  29.892  58.235  1.00  0.00     0.068 A 
HETATM   37  C   UNL     1       8.760  29.344  57.820  1.00  0.00     0.039 A 
HETATM   38  C   UNL     1       8.777  28.229  56.970  1.00  0.00     0.033 A 
BRANCH  36  39
HETATM   39  O   UNL     1       7.390  30.988  59.034  1.00  0.00    -0.352 OA
BRANCH  39  40
HETATM   40  C   UNL     1       8.070  30.984  60.288  1.00  0.00     0.171 C 
HETATM   41  C   UNL     1       8.800  32.308  60.428  1.00  0.00     0.034 C 
ENDBRANCH  39  40
ENDBRANCH  36  39
ENDBRANCH   1  33
TORSDOF 9
ENDMDL
