MODEL 1
REMARK VINA RESULT:      -9.6      0.000      0.000
REMARK  7 active torsions:
REMARK  status: ('A' for Active; 'I' for Inactive)
REMARK    1  A    between atoms: C_2  and  O_3 
REMARK    2  A    between atoms: O_3  and  C_4 
REMARK    3  A    between atoms: C_4  and  C_5 
REMARK    4  A    between atoms: C_6  and  C_7 
REMARK    5  A    between atoms: C_18  and  S_19 
REMARK    6  A    between atoms: S_19  and  C_20 
REMARK    7  A    between atoms: C_20  and  C_21 
ROOT
HETATM    1  C   UNL     1       9.058  30.205  58.335  1.00  0.00     0.070 A 
HETATM    2  C   UNL     1       7.635  29.675  58.431  1.00  0.00     0.203 A 
HETATM    3  N   UNL     1       7.445  28.501  57.572  1.00  0.00    -0.082 N 
HETATM    4  C   UNL     1       8.405  27.990  56.741  1.00  0.00     0.726 A 
HETATM    5  N   UNL     1       9.618  28.574  56.700  1.00  0.00    -0.192 N 
HETATM    6  N   UNL     1       6.320  27.765  57.530  1.00  0.00    -0.128 NA
HETATM    7  C   UNL     1       6.644  26.860  56.601  1.00  0.00     0.226 A 
HETATM    8  N   UNL     1       7.923  26.952  56.107  1.00  0.00    -0.035 NA
HETATM    9  C   UNL     1       9.978  29.650  57.507  1.00  0.00     0.037 A 
HETATM   10  C   UNL     1      11.422  30.079  57.421  1.00  0.00     0.070 C 
HETATM   11  H   UNL     1      10.337  28.169  56.106  1.00  0.00     0.184 HD
ENDROOT
BRANCH   7  12
HETATM   12  S   UNL     1       5.478  25.684  56.070  1.00  0.00    -0.083 SA
BRANCH  12  13
HETATM   13  C   UNL     1       6.077  25.369  54.391  1.00  0.00     0.121 C 
BRANCH  13  14
HETATM   14  C   UNL     1       6.802  24.045  54.310  1.00  0.00    -0.047 A 
HETATM   15  C   UNL     1       7.166  23.360  55.480  1.00  0.00     0.031 A 
HETATM   16  C   UNL     1       7.860  22.152  55.398  1.00  0.00     0.034 A 
HETATM   17 CL   UNL     1       8.295  21.319  56.840  1.00  0.00    -0.084 Cl
HETATM   18  C   UNL     1       8.205  21.615  54.160  1.00  0.00     0.024 A 
HETATM   19  C   UNL     1       7.852  22.292  52.992  1.00  0.00     0.002 A 
HETATM   20  C   UNL     1       7.155  23.498  53.067  1.00  0.00     0.008 A 
ENDBRANCH  13  14
ENDBRANCH  12  13
ENDBRANCH   7  12
BRANCH   2  21
HETATM   21  C   UNL     1       6.586  30.736  58.096  1.00  0.00    -0.028 A 
HETATM   22  C   UNL     1       6.075  30.886  56.794  1.00  0.00     0.011 A 
HETATM   23  C   UNL     1       5.114  31.862  56.518  1.00  0.00     0.024 A 
HETATM   24  C   UNL     1       4.659  32.695  57.536  1.00  0.00     0.034 A 
HETATM   25 CL   UNL     1       3.475  33.895  57.193  1.00  0.00    -0.084 Cl
HETATM   26  C   UNL     1       5.156  32.565  58.829  1.00  0.00     0.024 A 
HETATM   27  C   UNL     1       6.117  31.591  59.109  1.00  0.00     0.011 A 
ENDBRANCH   2  21
BRANCH   1  28
HETATM   28  C   UNL     1       9.320  31.334  59.249  1.00  0.00     0.293 C 
HETATM   29  O   UNL     1       9.591  32.456  58.854  1.00  0.00    -0.259 OA
BRANCH  28  30
HETATM   30  O   UNL     1       9.315  30.908  60.536  1.00  0.00    -0.318 OA
BRANCH  30  31
HETATM   31  C   UNL     1       9.603  31.909  61.523  1.00  0.00     0.174 C 
HETATM   32  C   UNL     1       8.427  32.089  62.465  1.00  0.00     0.034 C 
ENDBRANCH  30  31
ENDBRANCH  28  30
ENDBRANCH   1  28
TORSDOF 7
ENDMDL
MODEL 2
REMARK VINA RESULT:      -9.1      6.514      8.476
REMARK  7 active torsions:
REMARK  status: ('A' for Active; 'I' for Inactive)
REMARK    1  A    between atoms: C_2  and  O_3 
REMARK    2  A    between atoms: O_3  and  C_4 
REMARK    3  A    between atoms: C_4  and  C_5 
REMARK    4  A    between atoms: C_6  and  C_7 
REMARK    5  A    between atoms: C_18  and  S_19 
REMARK    6  A    between atoms: S_19  and  C_20 
REMARK    7  A    between atoms: C_20  and  C_21 
ROOT
HETATM    1  C   UNL     1       4.591  27.262  48.679  1.00  0.00     0.070 A 
HETATM    2  C   UNL     1       5.359  27.814  49.871  1.00  0.00     0.203 A 
HETATM    3  N   UNL     1       5.347  26.871  50.995  1.00  0.00    -0.082 N 
HETATM    4  C   UNL     1       4.676  25.679  50.994  1.00  0.00     0.726 A 
HETATM    5  N   UNL     1       3.985  25.314  49.897  1.00  0.00    -0.192 N 
HETATM    6  N   UNL     1       6.027  27.049  52.142  1.00  0.00    -0.128 NA
HETATM    7  C   UNL     1       5.668  25.954  52.821  1.00  0.00     0.226 A 
HETATM    8  N   UNL     1       4.856  25.077  52.142  1.00  0.00    -0.035 NA
HETATM    9  C   UNL     1       3.958  26.064  48.724  1.00  0.00     0.037 A 
HETATM   10  C   UNL     1       3.246  25.427  47.556  1.00  0.00     0.070 C 
HETATM   11  H   UNL     1       3.516  24.411  49.890  1.00  0.00     0.184 HD
ENDROOT
BRANCH   7  12
HETATM   12  S   UNL     1       6.202  25.717  54.458  1.00  0.00    -0.083 SA
BRANCH  12  13
HETATM   13  C   UNL     1       7.874  25.085  54.166  1.00  0.00     0.121 C 
BRANCH  13  14
HETATM   14  C   UNL     1       7.892  23.574  54.157  1.00  0.00    -0.047 A 
HETATM   15  C   UNL     1       8.004  22.855  55.357  1.00  0.00     0.031 A 
HETATM   16  C   UNL     1       8.048  21.461  55.339  1.00  0.00     0.034 A 
HETATM   17 CL   UNL     1       8.180  20.593  56.818  1.00  0.00    -0.084 Cl
HETATM   18  C   UNL     1       7.987  20.766  54.133  1.00  0.00     0.024 A 
HETATM   19  C   UNL     1       7.881  21.471  52.934  1.00  0.00     0.002 A 
HETATM   20  C   UNL     1       7.833  22.866  52.946  1.00  0.00     0.008 A 
ENDBRANCH  13  14
ENDBRANCH  12  13
ENDBRANCH   7  12
BRANCH   2  21
HETATM   21  C   UNL     1       4.835  29.174  50.332  1.00  0.00    -0.028 A 
HETATM   22  C   UNL     1       3.562  29.318  50.915  1.00  0.00     0.011 A 
HETATM   23  C   UNL     1       3.110  30.573  51.330  1.00  0.00     0.024 A 
HETATM   24  C   UNL     1       3.922  31.693  51.165  1.00  0.00     0.034 A 
HETATM   25 CL   UNL     1       3.362  33.236  51.678  1.00  0.00    -0.084 Cl
HETATM   26  C   UNL     1       5.182  31.571  50.587  1.00  0.00     0.024 A 
HETATM   27  C   UNL     1       5.636  30.318  50.170  1.00  0.00     0.011 A 
ENDBRANCH   2  21
BRANCH   1  28
HETATM   28  C   UNL     1       4.650  28.139  47.494  1.00  0.00     0.293 C 
HETATM   29  O   UNL     1       5.673  28.318  46.853  1.00  0.00    -0.259 OA
BRANCH  28  30
HETATM   30  O   UNL     1       3.462  28.764  47.312  1.00  0.00    -0.318 OA
BRANCH  30  31
HETATM   31  C   UNL     1       3.537  30.141  46.911  1.00  0.00     0.174 C 
HETATM   32  C   UNL     1       2.545  30.983  47.690  1.00  0.00     0.034 C 
ENDBRANCH  30  31
ENDBRANCH  28  30
ENDBRANCH   1  28
TORSDOF 7
ENDMDL
MODEL 3
REMARK VINA RESULT:      -8.8      5.061      7.503
REMARK  7 active torsions:
REMARK  status: ('A' for Active; 'I' for Inactive)
REMARK    1  A    between atoms: C_2  and  O_3 
REMARK    2  A    between atoms: O_3  and  C_4 
REMARK    3  A    between atoms: C_4  and  C_5 
REMARK    4  A    between atoms: C_6  and  C_7 
REMARK    5  A    between atoms: C_18  and  S_19 
REMARK    6  A    between atoms: S_19  and  C_20 
REMARK    7  A    between atoms: C_20  and  C_21 
ROOT
HETATM    1  C   UNL     1       6.841  28.572  55.590  1.00  0.00     0.070 A 
HETATM    2  C   UNL     1       6.716  28.207  54.118  1.00  0.00     0.203 A 
HETATM    3  N   UNL     1       5.434  28.658  53.565  1.00  0.00    -0.082 N 
HETATM    4  C   UNL     1       4.450  29.265  54.296  1.00  0.00     0.726 A 
HETATM    5  N   UNL     1       4.651  29.493  55.608  1.00  0.00    -0.192 N 
HETATM    6  N   UNL     1       5.091  28.561  52.268  1.00  0.00    -0.128 NA
HETATM    7  C   UNL     1       3.855  29.071  52.294  1.00  0.00     0.226 A 
HETATM    8  N   UNL     1       3.433  29.534  53.518  1.00  0.00    -0.035 NA
HETATM    9  C   UNL     1       5.842  29.192  56.264  1.00  0.00     0.037 A 
HETATM   10  C   UNL     1       5.931  29.647  57.700  1.00  0.00     0.070 C 
HETATM   11  H   UNL     1       3.930  29.976  56.139  1.00  0.00     0.184 HD
ENDROOT
BRANCH   7  12
HETATM   12  S   UNL     1       2.881  29.100  50.854  1.00  0.00    -0.083 SA
BRANCH  12  13
HETATM   13  C   UNL     1       4.103  28.575  49.626  1.00  0.00     0.121 C 
BRANCH  13  14
HETATM   14  C   UNL     1       3.510  27.577  48.659  1.00  0.00    -0.047 A 
HETATM   15  C   UNL     1       2.343  27.886  47.943  1.00  0.00     0.031 A 
HETATM   16  C   UNL     1       1.785  26.950  47.072  1.00  0.00     0.034 A 
HETATM   17 CL   UNL     1       0.358  27.344  46.196  1.00  0.00    -0.084 Cl
HETATM   18  C   UNL     1       2.373  25.697  46.907  1.00  0.00     0.024 A 
HETATM   19  C   UNL     1       3.530  25.379  47.618  1.00  0.00     0.002 A 
HETATM   20  C   UNL     1       4.095  26.312  48.488  1.00  0.00     0.008 A 
ENDBRANCH  13  14
ENDBRANCH  12  13
ENDBRANCH   7  12
BRANCH   2  21
HETATM   21  C   UNL     1       6.892  26.710  53.863  1.00  0.00    -0.028 A 
HETATM   22  C   UNL     1       6.143  25.747  54.564  1.00  0.00     0.011 A 
HETATM   23  C   UNL     1       6.323  24.386  54.308  1.00  0.00     0.024 A 
HETATM   24  C   UNL     1       7.251  23.975  53.354  1.00  0.00     0.034 A 
HETATM   25 CL   UNL     1       7.469  22.297  53.041  1.00  0.00    -0.084 Cl
HETATM   26  C   UNL     1       8.004  24.913  52.654  1.00  0.00     0.024 A 
HETATM   27  C   UNL     1       7.828  26.275  52.908  1.00  0.00     0.011 A 
ENDBRANCH   2  21
BRANCH   1  28
HETATM   28  C   UNL     1       8.153  28.216  56.166  1.00  0.00     0.293 C 
HETATM   29  O   UNL     1       8.330  27.212  56.837  1.00  0.00    -0.259 OA
BRANCH  28  30
HETATM   30  O   UNL     1       9.054  29.199  55.926  1.00  0.00    -0.318 OA
BRANCH  30  31
HETATM   31  C   UNL     1       9.667  29.778  57.088  1.00  0.00     0.174 C 
HETATM   32  C   UNL     1      11.179  29.709  56.988  1.00  0.00     0.034 C 
ENDBRANCH  30  31
ENDBRANCH  28  30
ENDBRANCH   1  28
TORSDOF 7
ENDMDL
MODEL 4
REMARK VINA RESULT:      -8.8      2.022      3.146
REMARK  7 active torsions:
REMARK  status: ('A' for Active; 'I' for Inactive)
REMARK    1  A    between atoms: C_2  and  O_3 
REMARK    2  A    between atoms: O_3  and  C_4 
REMARK    3  A    between atoms: C_4  and  C_5 
REMARK    4  A    between atoms: C_6  and  C_7 
REMARK    5  A    between atoms: C_18  and  S_19 
REMARK    6  A    between atoms: S_19  and  C_20 
REMARK    7  A    between atoms: C_20  and  C_21 
ROOT
HETATM    1  C   UNL     1       6.152  30.961  58.290  1.00  0.00     0.070 A 
HETATM    2  C   UNL     1       5.121  30.041  57.653  1.00  0.00     0.203 A 
HETATM    3  N   UNL     1       5.732  28.786  57.201  1.00  0.00    -0.082 N 
HETATM    4  C   UNL     1       7.070  28.509  57.279  1.00  0.00     0.726 A 
HETATM    5  N   UNL     1       7.900  29.422  57.817  1.00  0.00    -0.192 N 
HETATM    6  N   UNL     1       5.046  27.748  56.691  1.00  0.00    -0.128 NA
HETATM    7  C   UNL     1       6.041  26.896  56.421  1.00  0.00     0.226 A 
HETATM    8  N   UNL     1       7.296  27.319  56.786  1.00  0.00    -0.035 NA
HETATM    9  C   UNL     1       7.466  30.629  58.359  1.00  0.00     0.037 A 
HETATM   10  C   UNL     1       8.523  31.459  59.042  1.00  0.00     0.070 C 
HETATM   11  H   UNL     1       8.889  29.196  57.904  1.00  0.00     0.184 HD
ENDROOT
BRANCH   7  12
HETATM   12  S   UNL     1       5.714  25.380  55.635  1.00  0.00    -0.083 SA
BRANCH  12  13
HETATM   13  C   UNL     1       7.230  25.185  54.665  1.00  0.00     0.121 C 
BRANCH  13  14
HETATM   14  C   UNL     1       7.500  23.729  54.361  1.00  0.00    -0.047 A 
HETATM   15  C   UNL     1       7.527  22.779  55.394  1.00  0.00     0.031 A 
HETATM   16  C   UNL     1       7.804  21.441  55.110  1.00  0.00     0.034 A 
HETATM   17 CL   UNL     1       7.830  20.286  56.385  1.00  0.00    -0.084 Cl
HETATM   18  C   UNL     1       8.061  21.033  53.803  1.00  0.00     0.024 A 
HETATM   19  C   UNL     1       8.041  21.970  52.770  1.00  0.00     0.002 A 
HETATM   20  C   UNL     1       7.761  23.309  53.047  1.00  0.00     0.008 A 
ENDBRANCH  13  14
ENDBRANCH  12  13
ENDBRANCH   7  12
BRANCH   2  21
HETATM   21  C   UNL     1       4.376  30.702  56.493  1.00  0.00    -0.028 A 
HETATM   22  C   UNL     1       5.032  31.056  55.299  1.00  0.00     0.011 A 
HETATM   23  C   UNL     1       4.326  31.656  54.254  1.00  0.00     0.024 A 
HETATM   24  C   UNL     1       2.963  31.909  54.392  1.00  0.00     0.034 A 
HETATM   25 CL   UNL     1       2.096  32.647  53.102  1.00  0.00    -0.084 Cl
HETATM   26  C   UNL     1       2.298  31.570  55.567  1.00  0.00     0.024 A 
HETATM   27  C   UNL     1       3.002  30.971  56.614  1.00  0.00     0.011 A 
ENDBRANCH   2  21
BRANCH   1  28
HETATM   28  C   UNL     1       5.566  32.198  58.840  1.00  0.00     0.293 C 
HETATM   29  O   UNL     1       4.917  32.221  59.873  1.00  0.00    -0.259 OA
BRANCH  28  30
HETATM   30  O   UNL     1       5.770  33.233  57.989  1.00  0.00    -0.318 OA
BRANCH  30  31
HETATM   31  C   UNL     1       4.661  34.130  57.824  1.00  0.00     0.174 C 
HETATM   32  C   UNL     1       4.615  34.673  56.409  1.00  0.00     0.034 C 
ENDBRANCH  30  31
ENDBRANCH  28  30
ENDBRANCH   1  28
TORSDOF 7
ENDMDL
MODEL 5
REMARK VINA RESULT:      -8.8      3.950      8.466
REMARK  7 active torsions:
REMARK  status: ('A' for Active; 'I' for Inactive)
REMARK    1  A    between atoms: C_2  and  O_3 
REMARK    2  A    between atoms: O_3  and  C_4 
REMARK    3  A    between atoms: C_4  and  C_5 
REMARK    4  A    between atoms: C_6  and  C_7 
REMARK    5  A    between atoms: C_18  and  S_19 
REMARK    6  A    between atoms: S_19  and  C_20 
REMARK    7  A    between atoms: C_20  and  C_21 
ROOT
HETATM    1  C   UNL     1       7.148  25.554  55.050  1.00  0.00     0.070 A 
HETATM    2  C   UNL     1       7.438  27.026  54.795  1.00  0.00     0.203 A 
HETATM    3  N   UNL     1       7.797  27.721  56.037  1.00  0.00    -0.082 N 
HETATM    4  C   UNL     1       7.804  27.136  57.273  1.00  0.00     0.726 A 
HETATM    5  N   UNL     1       7.480  25.834  57.386  1.00  0.00    -0.192 N 
HETATM    6  N   UNL     1       8.199  29.003  56.100  1.00  0.00    -0.128 NA
HETATM    7  C   UNL     1       8.371  29.149  57.418  1.00  0.00     0.226 A 
HETATM    8  N   UNL     1       8.158  28.019  58.170  1.00  0.00    -0.035 NA
HETATM    9  C   UNL     1       7.187  25.019  56.295  1.00  0.00     0.037 A 
HETATM   10  C   UNL     1       6.984  23.557  56.605  1.00  0.00     0.070 C 
HETATM   11  H   UNL     1       7.519  25.396  58.304  1.00  0.00     0.184 HD
ENDROOT
BRANCH   7  12
HETATM   12  S   UNL     1       8.810  30.694  58.084  1.00  0.00    -0.083 SA
BRANCH  12  13
HETATM   13  C   UNL     1       7.259  31.148  58.900  1.00  0.00     0.121 C 
BRANCH  13  14
HETATM   14  C   UNL     1       7.503  31.612  60.317  1.00  0.00    -0.047 A 
HETATM   15  C   UNL     1       6.752  32.665  60.862  1.00  0.00     0.031 A 
HETATM   16  C   UNL     1       7.002  33.106  62.161  1.00  0.00     0.034 A 
HETATM   17 CL   UNL     1       6.070  34.394  62.819  1.00  0.00    -0.084 Cl
HETATM   18  C   UNL     1       8.001  32.514  62.931  1.00  0.00     0.024 A 
HETATM   19  C   UNL     1       8.757  31.471  62.397  1.00  0.00     0.002 A 
HETATM   20  C   UNL     1       8.509  31.022  61.099  1.00  0.00     0.008 A 
ENDBRANCH  13  14
ENDBRANCH  12  13
ENDBRANCH   7  12
BRANCH   2  21
HETATM   21  C   UNL     1       6.274  27.749  54.116  1.00  0.00    -0.028 A 
HETATM   22  C   UNL     1       5.031  27.911  54.755  1.00  0.00     0.011 A 
HETATM   23  C   UNL     1       3.985  28.578  54.112  1.00  0.00     0.024 A 
HETATM   24  C   UNL     1       4.171  29.086  52.828  1.00  0.00     0.034 A 
HETATM   25 CL   UNL     1       2.882  29.908  52.040  1.00  0.00    -0.084 Cl
HETATM   26  C   UNL     1       5.392  28.931  52.179  1.00  0.00     0.024 A 
HETATM   27  C   UNL     1       6.439  28.263  52.819  1.00  0.00     0.011 A 
ENDBRANCH   2  21
BRANCH   1  28
HETATM   28  C   UNL     1       6.868  24.796  53.815  1.00  0.00     0.293 C 
HETATM   29  O   UNL     1       5.736  24.575  53.417  1.00  0.00    -0.259 OA
BRANCH  28  30
HETATM   30  O   UNL     1       8.020  24.320  53.284  1.00  0.00    -0.318 OA
BRANCH  30  31
HETATM   31  C   UNL     1       8.001  22.939  52.893  1.00  0.00     0.174 C 
HETATM   32  C   UNL     1       8.892  22.111  53.799  1.00  0.00     0.034 C 
ENDBRANCH  30  31
ENDBRANCH  28  30
ENDBRANCH   1  28
TORSDOF 7
ENDMDL
MODEL 6
REMARK VINA RESULT:      -8.5      2.073      3.182
REMARK  7 active torsions:
REMARK  status: ('A' for Active; 'I' for Inactive)
REMARK    1  A    between atoms: C_2  and  O_3 
REMARK    2  A    between atoms: O_3  and  C_4 
REMARK    3  A    between atoms: C_4  and  C_5 
REMARK    4  A    between atoms: C_6  and  C_7 
REMARK    5  A    between atoms: C_18  and  S_19 
REMARK    6  A    between atoms: S_19  and  C_20 
REMARK    7  A    between atoms: C_20  and  C_21 
ROOT
HETATM    1  C   UNL     1       6.930  30.914  58.570  1.00  0.00     0.070 A 
HETATM    2  C   UNL     1       5.948  29.873  58.052  1.00  0.00     0.203 A 
HETATM    3  N   UNL     1       6.649  28.703  57.511  1.00  0.00    -0.082 N 
HETATM    4  C   UNL     1       8.010  28.593  57.421  1.00  0.00     0.726 A 
HETATM    5  N   UNL     1       8.782  29.602  57.866  1.00  0.00    -0.192 N 
HETATM    6  N   UNL     1       6.037  27.587  57.075  1.00  0.00    -0.128 NA
HETATM    7  C   UNL     1       7.088  26.864  56.673  1.00  0.00     0.226 A 
HETATM    8  N   UNL     1       8.318  27.439  56.888  1.00  0.00    -0.035 NA
HETATM    9  C   UNL     1       8.272  30.747  58.473  1.00  0.00     0.037 A 
HETATM   10  C   UNL     1       9.296  31.703  59.033  1.00  0.00     0.070 C 
HETATM   11  H   UNL     1       9.794  29.500  57.828  1.00  0.00     0.184 HD
ENDROOT
BRANCH   7  12
HETATM   12  S   UNL     1       6.856  25.318  55.912  1.00  0.00    -0.083 SA
BRANCH  12  13
HETATM   13  C   UNL     1       8.105  24.338  56.783  1.00  0.00     0.121 C 
BRANCH  13  14
HETATM   14  C   UNL     1       8.173  22.931  56.235  1.00  0.00    -0.047 A 
HETATM   15  C   UNL     1       8.008  22.692  54.862  1.00  0.00     0.031 A 
HETATM   16  C   UNL     1       8.044  21.388  54.367  1.00  0.00     0.034 A 
HETATM   17 CL   UNL     1       7.846  21.110  52.681  1.00  0.00    -0.084 Cl
HETATM   18  C   UNL     1       8.238  20.309  55.227  1.00  0.00     0.024 A 
HETATM   19  C   UNL     1       8.397  20.536  56.594  1.00  0.00     0.002 A 
HETATM   20  C   UNL     1       8.366  21.838  57.095  1.00  0.00     0.008 A 
ENDBRANCH  13  14
ENDBRANCH  12  13
ENDBRANCH   7  12
BRANCH   2  21
HETATM   21  C   UNL     1       4.991  30.435  57.000  1.00  0.00    -0.028 A 
HETATM   22  C   UNL     1       3.607  30.530  57.235  1.00  0.00     0.011 A 
HETATM   23  C   UNL     1       2.756  31.051  56.257  1.00  0.00     0.024 A 
HETATM   24  C   UNL     1       3.279  31.479  55.039  1.00  0.00     0.034 A 
HETATM   25 CL   UNL     1       2.228  32.121  53.837  1.00  0.00    -0.084 Cl
HETATM   26  C   UNL     1       4.644  31.389  54.787  1.00  0.00     0.024 A 
HETATM   27  C   UNL     1       5.498  30.868  55.762  1.00  0.00     0.011 A 
ENDBRANCH   2  21
BRANCH   1  28
HETATM   28  C   UNL     1       6.268  32.071  59.204  1.00  0.00     0.293 C 
HETATM   29  O   UNL     1       5.857  32.050  60.352  1.00  0.00    -0.259 OA
BRANCH  28  30
HETATM   30  O   UNL     1       6.108  33.072  58.305  1.00  0.00    -0.318 OA
BRANCH  30  31
HETATM   31  C   UNL     1       4.854  33.767  58.364  1.00  0.00     0.174 C 
HETATM   32  C   UNL     1       4.534  34.414  57.030  1.00  0.00     0.034 C 
ENDBRANCH  30  31
ENDBRANCH  28  30
ENDBRANCH   1  28
TORSDOF 7
ENDMDL
MODEL 7
REMARK VINA RESULT:      -8.3      3.723      8.300
REMARK  7 active torsions:
REMARK  status: ('A' for Active; 'I' for Inactive)
REMARK    1  A    between atoms: C_2  and  O_3 
REMARK    2  A    between atoms: O_3  and  C_4 
REMARK    3  A    between atoms: C_4  and  C_5 
REMARK    4  A    between atoms: C_6  and  C_7 
REMARK    5  A    between atoms: C_18  and  S_19 
REMARK    6  A    between atoms: S_19  and  C_20 
REMARK    7  A    between atoms: C_20  and  C_21 
ROOT
HETATM    1  C   UNL     1       5.665  26.113  54.695  1.00  0.00     0.070 A 
HETATM    2  C   UNL     1       5.550  27.297  55.645  1.00  0.00     0.203 A 
HETATM    3  N   UNL     1       4.652  28.326  55.108  1.00  0.00    -0.082 N 
HETATM    4  C   UNL     1       4.050  28.259  53.881  1.00  0.00     0.726 A 
HETATM    5  N   UNL     1       4.265  27.183  53.101  1.00  0.00    -0.192 N 
HETATM    6  N   UNL     1       4.285  29.435  55.774  1.00  0.00    -0.128 NA
HETATM    7  C   UNL     1       3.509  30.032  54.863  1.00  0.00     0.226 A 
HETATM    8  N   UNL     1       3.323  29.331  53.695  1.00  0.00    -0.035 NA
HETATM    9  C   UNL     1       5.031  26.090  53.496  1.00  0.00     0.037 A 
HETATM   10  C   UNL     1       5.043  24.919  52.545  1.00  0.00     0.070 C 
HETATM   11  H   UNL     1       3.787  27.124  52.204  1.00  0.00     0.184 HD
ENDROOT
BRANCH   7  12
HETATM   12  S   UNL     1       2.826  31.599  55.177  1.00  0.00    -0.083 SA
BRANCH  12  13
HETATM   13  C   UNL     1       4.323  32.526  55.599  1.00  0.00     0.121 C 
BRANCH  13  14
HETATM   14  C   UNL     1       4.562  32.524  57.092  1.00  0.00    -0.047 A 
HETATM   15  C   UNL     1       3.633  33.114  57.963  1.00  0.00     0.031 A 
HETATM   16  C   UNL     1       3.874  33.133  59.337  1.00  0.00     0.034 A 
HETATM   17 CL   UNL     1       2.724  33.855  60.394  1.00  0.00    -0.084 Cl
HETATM   18  C   UNL     1       5.038  32.573  59.860  1.00  0.00     0.024 A 
HETATM   19  C   UNL     1       5.969  31.989  59.002  1.00  0.00     0.002 A 
HETATM   20  C   UNL     1       5.733  31.964  57.627  1.00  0.00     0.008 A 
ENDBRANCH  13  14
ENDBRANCH  12  13
ENDBRANCH   7  12
BRANCH   2  21
HETATM   21  C   UNL     1       6.906  27.918  55.981  1.00  0.00    -0.028 A 
HETATM   22  C   UNL     1       7.363  28.023  57.308  1.00  0.00     0.011 A 
HETATM   23  C   UNL     1       8.608  28.593  57.585  1.00  0.00     0.024 A 
HETATM   24  C   UNL     1       9.405  29.062  56.544  1.00  0.00     0.034 A 
HETATM   25 CL   UNL     1      10.938  29.762  56.890  1.00  0.00    -0.084 Cl
HETATM   26  C   UNL     1       8.968  28.971  55.226  1.00  0.00     0.024 A 
HETATM   27  C   UNL     1       7.723  28.403  54.945  1.00  0.00     0.011 A 
ENDBRANCH   2  21
BRANCH   1  28
HETATM   28  C   UNL     1       6.489  25.014  55.234  1.00  0.00     0.293 C 
HETATM   29  O   UNL     1       6.205  24.415  56.258  1.00  0.00    -0.259 OA
BRANCH  28  30
HETATM   30  O   UNL     1       7.614  24.864  54.494  1.00  0.00    -0.318 OA
BRANCH  30  31
HETATM   31  C   UNL     1       8.223  23.565  54.544  1.00  0.00     0.174 C 
HETATM   32  C   UNL     1       8.080  22.852  53.212  1.00  0.00     0.034 C 
ENDBRANCH  30  31
ENDBRANCH  28  30
ENDBRANCH   1  28
TORSDOF 7
ENDMDL
MODEL 8
REMARK VINA RESULT:      -8.3      4.904      8.557
REMARK  7 active torsions:
REMARK  status: ('A' for Active; 'I' for Inactive)
REMARK    1  A    between atoms: C_2  and  O_3 
REMARK    2  A    between atoms: O_3  and  C_4 
REMARK    3  A    between atoms: C_4  and  C_5 
REMARK    4  A    between atoms: C_6  and  C_7 
REMARK    5  A    between atoms: C_18  and  S_19 
REMARK    6  A    between atoms: S_19  and  C_20 
REMARK    7  A    between atoms: C_20  and  C_21 
ROOT
HETATM    1  C   UNL     1       4.640  28.362  50.998  1.00  0.00     0.070 A 
HETATM    2  C   UNL     1       4.317  27.776  52.365  1.00  0.00     0.203 A 
HETATM    3  N   UNL     1       4.260  28.821  53.393  1.00  0.00    -0.082 N 
HETATM    4  C   UNL     1       4.530  30.142  53.165  1.00  0.00     0.726 A 
HETATM    5  N   UNL     1       4.856  30.541  51.920  1.00  0.00    -0.192 N 
HETATM    6  N   UNL     1       3.898  28.609  54.671  1.00  0.00    -0.128 NA
HETATM    7  C   UNL     1       4.034  29.839  55.180  1.00  0.00     0.226 A 
HETATM    8  N   UNL     1       4.401  30.812  54.281  1.00  0.00    -0.035 NA
HETATM    9  C   UNL     1       4.882  29.685  50.823  1.00  0.00     0.037 A 
HETATM   10  C   UNL     1       5.132  30.339  49.487  1.00  0.00     0.070 C 
HETATM   11  H   UNL     1       5.023  31.530  51.750  1.00  0.00     0.184 HD
ENDROOT
BRANCH   7  12
HETATM   12  S   UNL     1       3.778  30.126  56.875  1.00  0.00    -0.083 SA
BRANCH  12  13
HETATM   13  C   UNL     1       5.481  30.425  57.414  1.00  0.00     0.121 C 
BRANCH  13  14
HETATM   14  C   UNL     1       6.331  29.188  57.246  1.00  0.00    -0.047 A 
HETATM   15  C   UNL     1       5.739  27.916  57.205  1.00  0.00     0.031 A 
HETATM   16  C   UNL     1       6.532  26.776  57.078  1.00  0.00     0.034 A 
HETATM   17 CL   UNL     1       5.793  25.223  57.024  1.00  0.00    -0.084 Cl
HETATM   18  C   UNL     1       7.919  26.883  56.995  1.00  0.00     0.024 A 
HETATM   19  C   UNL     1       8.518  28.142  57.040  1.00  0.00     0.002 A 
HETATM   20  C   UNL     1       7.729  29.287  57.163  1.00  0.00     0.008 A 
ENDBRANCH  13  14
ENDBRANCH  12  13
ENDBRANCH   7  12
BRANCH   2  21
HETATM   21  C   UNL     1       5.302  26.686  52.789  1.00  0.00    -0.028 A 
HETATM   22  C   UNL     1       4.904  25.345  52.937  1.00  0.00     0.011 A 
HETATM   23  C   UNL     1       5.827  24.370  53.322  1.00  0.00     0.024 A 
HETATM   24  C   UNL     1       7.152  24.725  53.565  1.00  0.00     0.034 A 
HETATM   25 CL   UNL     1       8.286  23.521  54.038  1.00  0.00    -0.084 Cl
HETATM   26  C   UNL     1       7.563  26.047  53.428  1.00  0.00     0.024 A 
HETATM   27  C   UNL     1       6.643  27.025  53.044  1.00  0.00     0.011 A 
ENDBRANCH   2  21
BRANCH   1  28
HETATM   28  C   UNL     1       4.621  27.358  49.917  1.00  0.00     0.293 C 
HETATM   29  O   UNL     1       5.620  26.759  49.553  1.00  0.00    -0.259 OA
BRANCH  28  30
HETATM   30  O   UNL     1       3.389  27.296  49.354  1.00  0.00    -0.318 OA
BRANCH  30  31
HETATM   31  C   UNL     1       3.361  26.984  47.953  1.00  0.00     0.174 C 
HETATM   32  C   UNL     1       2.966  25.536  47.733  1.00  0.00     0.034 C 
ENDBRANCH  30  31
ENDBRANCH  28  30
ENDBRANCH   1  28
TORSDOF 7
ENDMDL
MODEL 9
REMARK VINA RESULT:      -8.2      5.194      8.274
REMARK  7 active torsions:
REMARK  status: ('A' for Active; 'I' for Inactive)
REMARK    1  A    between atoms: C_2  and  O_3 
REMARK    2  A    between atoms: O_3  and  C_4 
REMARK    3  A    between atoms: C_4  and  C_5 
REMARK    4  A    between atoms: C_6  and  C_7 
REMARK    5  A    between atoms: C_18  and  S_19 
REMARK    6  A    between atoms: S_19  and  C_20 
REMARK    7  A    between atoms: C_20  and  C_21 
ROOT
HETATM    1  C   UNL     1       6.506  28.002  55.284  1.00  0.00     0.070 A 
HETATM    2  C   UNL     1       6.639  27.654  53.808  1.00  0.00     0.203 A 
HETATM    3  N   UNL     1       5.438  28.038  53.060  1.00  0.00    -0.082 N 
HETATM    4  C   UNL     1       4.315  28.576  53.627  1.00  0.00     0.726 A 
HETATM    5  N   UNL     1       4.290  28.794  54.956  1.00  0.00    -0.192 N 
HETATM    6  N   UNL     1       5.313  27.942  51.724  1.00  0.00    -0.128 NA
HETATM    7  C   UNL     1       4.060  28.380  51.555  1.00  0.00     0.226 A 
HETATM    8  N   UNL     1       3.422  28.798  52.698  1.00  0.00    -0.035 NA
HETATM    9  C   UNL     1       5.376  28.552  55.793  1.00  0.00     0.037 A 
HETATM   10  C   UNL     1       5.208  28.988  57.227  1.00  0.00     0.070 C 
HETATM   11  H   UNL     1       3.465  29.226  55.367  1.00  0.00     0.184 HD
ENDROOT
BRANCH   7  12
HETATM   12  S   UNL     1       3.329  28.375  49.978  1.00  0.00    -0.083 SA
BRANCH  12  13
HETATM   13  C   UNL     1       4.806  28.486  48.936  1.00  0.00     0.121 C 
BRANCH  13  14
HETATM   14  C   UNL     1       4.928  29.855  48.307  1.00  0.00    -0.047 A 
HETATM   15  C   UNL     1       5.439  30.935  49.044  1.00  0.00     0.031 A 
HETATM   16  C   UNL     1       5.523  32.202  48.466  1.00  0.00     0.034 A 
HETATM   17 CL   UNL     1       6.156  33.515  49.379  1.00  0.00    -0.084 Cl
HETATM   18  C   UNL     1       5.097  32.413  47.157  1.00  0.00     0.024 A 
HETATM   19  C   UNL     1       4.583  31.348  46.418  1.00  0.00     0.002 A 
HETATM   20  C   UNL     1       4.499  30.077  46.989  1.00  0.00     0.008 A 
ENDBRANCH  13  14
ENDBRANCH  12  13
ENDBRANCH   7  12
BRANCH   2  21
HETATM   21  C   UNL     1       6.943  26.174  53.575  1.00  0.00    -0.028 A 
HETATM   22  C   UNL     1       7.886  25.754  52.618  1.00  0.00     0.011 A 
HETATM   23  C   UNL     1       8.146  24.395  52.429  1.00  0.00     0.024 A 
HETATM   24  C   UNL     1       7.467  23.445  53.189  1.00  0.00     0.034 A 
HETATM   25 CL   UNL     1       7.790  21.772  52.953  1.00  0.00    -0.084 Cl
HETATM   26  C   UNL     1       6.528  23.841  54.136  1.00  0.00     0.024 A 
HETATM   27  C   UNL     1       6.265  25.200  54.328  1.00  0.00     0.011 A 
ENDBRANCH   2  21
BRANCH   1  28
HETATM   28  C   UNL     1       7.727  27.713  56.061  1.00  0.00     0.293 C 
HETATM   29  O   UNL     1       7.817  26.764  56.823  1.00  0.00    -0.259 OA
BRANCH  28  30
HETATM   30  O   UNL     1       8.645  28.692  55.874  1.00  0.00    -0.318 OA
BRANCH  30  31
HETATM   31  C   UNL     1       9.462  29.003  57.013  1.00  0.00     0.174 C 
HETATM   32  C   UNL     1      10.637  29.874  56.609  1.00  0.00     0.034 C 
ENDBRANCH  30  31
ENDBRANCH  28  30
ENDBRANCH   1  28
TORSDOF 7
ENDMDL
MODEL 10
REMARK VINA RESULT:      -8.1      4.184      8.337
REMARK  7 active torsions:
REMARK  status: ('A' for Active; 'I' for Inactive)
REMARK    1  A    between atoms: C_2  and  O_3 
REMARK    2  A    between atoms: O_3  and  C_4 
REMARK    3  A    between atoms: C_4  and  C_5 
REMARK    4  A    between atoms: C_6  and  C_7 
REMARK    5  A    between atoms: C_18  and  S_19 
REMARK    6  A    between atoms: S_19  and  C_20 
REMARK    7  A    between atoms: C_20  and  C_21 
ROOT
HETATM    1  C   UNL     1       5.776  26.633  55.086  1.00  0.00     0.070 A 
HETATM    2  C   UNL     1       5.987  28.086  54.683  1.00  0.00     0.203 A 
HETATM    3  N   UNL     1       5.692  28.995  55.796  1.00  0.00    -0.082 N 
HETATM    4  C   UNL     1       5.222  28.593  57.016  1.00  0.00     0.726 A 
HETATM    5  N   UNL     1       5.023  27.281  57.245  1.00  0.00    -0.192 N 
HETATM    6  N   UNL     1       5.885  30.326  55.760  1.00  0.00    -0.128 NA
HETATM    7  C   UNL     1       5.448  30.678  56.974  1.00  0.00     0.226 A 
HETATM    8  N   UNL     1       5.052  29.639  57.783  1.00  0.00    -0.035 NA
HETATM    9  C   UNL     1       5.325  26.287  56.317  1.00  0.00     0.037 A 
HETATM   10  C   UNL     1       5.167  24.868  56.803  1.00  0.00     0.070 C 
HETATM   11  H   UNL     1       4.706  26.985  58.165  1.00  0.00     0.184 HD
ENDROOT
BRANCH   7  12
HETATM   12  S   UNL     1       5.383  32.352  57.437  1.00  0.00    -0.083 SA
BRANCH  12  13
HETATM   13  C   UNL     1       5.208  32.185  59.232  1.00  0.00     0.121 C 
BRANCH  13  14
HETATM   14  C   UNL     1       6.558  32.154  59.910  1.00  0.00    -0.047 A 
HETATM   15  C   UNL     1       6.668  32.399  61.288  1.00  0.00     0.031 A 
HETATM   16  C   UNL     1       7.921  32.396  61.903  1.00  0.00     0.034 A 
HETATM   17 CL   UNL     1       8.041  32.692  63.594  1.00  0.00    -0.084 Cl
HETATM   18  C   UNL     1       9.075  32.158  61.159  1.00  0.00     0.024 A 
HETATM   19  C   UNL     1       8.976  31.919  59.789  1.00  0.00     0.002 A 
HETATM   20  C   UNL     1       7.726  31.916  59.169  1.00  0.00     0.008 A 
ENDBRANCH  13  14
ENDBRANCH  12  13
ENDBRANCH   7  12
BRANCH   2  21
HETATM   21  C   UNL     1       5.164  28.484  53.457  1.00  0.00    -0.028 A 
HETATM   22  C   UNL     1       5.776  28.851  52.244  1.00  0.00     0.011 A 
HETATM   23  C   UNL     1       4.999  29.208  51.139  1.00  0.00     0.024 A 
HETATM   24  C   UNL     1       3.610  29.203  51.236  1.00  0.00     0.034 A 
HETATM   25 CL   UNL     1       2.657  29.642  49.872  1.00  0.00    -0.084 Cl
HETATM   26  C   UNL     1       2.987  28.848  52.429  1.00  0.00     0.024 A 
HETATM   27  C   UNL     1       3.761  28.492  53.536  1.00  0.00     0.011 A 
ENDBRANCH   2  21
BRANCH   1  28
HETATM   28  C   UNL     1       6.145  25.677  54.024  1.00  0.00     0.293 C 
HETATM   29  O   UNL     1       5.319  25.116  53.322  1.00  0.00    -0.259 OA
BRANCH  28  30
HETATM   30  O   UNL     1       7.483  25.459  54.033  1.00  0.00    -0.318 OA
BRANCH  30  31
HETATM   31  C   UNL     1       7.971  24.553  53.032  1.00  0.00     0.174 C 
HETATM   32  C   UNL     1       8.256  23.190  53.633  1.00  0.00     0.034 C 
ENDBRANCH  30  31
ENDBRANCH  28  30
ENDBRANCH   1  28
TORSDOF 7
ENDMDL
