MODEL 1
REMARK VINA RESULT:      -9.0      0.000      0.000
REMARK  3 active torsions:
REMARK  status: ('A' for Active; 'I' for Inactive)
REMARK    1  A    between atoms: C_7  and  C_8 
REMARK       I    between atoms: C_8  and  N_9 
REMARK    2  A    between atoms: N_9  and  C_10 
REMARK    3  A    between atoms: C_13  and  C_14 
REMARK       I    between atoms: C_14  and  N_15 
ROOT
HETATM    1  C   UNL     1       8.119  25.556  56.743  1.00  0.00     0.257 C 
HETATM    2  N   UNL     1       8.039  26.856  56.277  1.00  0.00    -0.323 N 
HETATM    3  O   UNL     1       8.345  25.225  57.900  1.00  0.00    -0.267 OA
HETATM    4  H   UNL     1       7.748  26.968  55.314  1.00  0.00     0.169 HD
ENDROOT
BRANCH   2   5
HETATM    5  C   UNL     1       8.235  28.048  57.002  1.00  0.00     0.035 A 
HETATM    6  C   UNL     1       7.247  28.677  57.761  1.00  0.00     0.030 A 
HETATM    7  C   UNL     1       7.516  29.874  58.441  1.00  0.00     0.019 A 
HETATM    8  C   UNL     1       8.788  30.451  58.383  1.00  0.00     0.032 A 
HETATM    9  C   UNL     1       9.781  29.819  57.625  1.00  0.00     0.019 A 
HETATM   10  C   UNL     1       9.506  28.631  56.938  1.00  0.00     0.030 A 
BRANCH   8  11
HETATM   11  C   UNL     1       9.144  31.723  59.075  1.00  0.00     0.249 C 
HETATM   12  N   UNL     1       8.312  32.194  60.051  1.00  0.00    -0.366 N 
HETATM   13  H   UNL     1       7.509  31.705  60.414  1.00  0.00     0.159 HD
HETATM   14  H   UNL     1       8.603  33.039  60.525  1.00  0.00     0.159 HD
HETATM   15  O   UNL     1      10.165  32.340  58.791  1.00  0.00    -0.268 OA
ENDBRANCH   8  11
ENDBRANCH   2   5
BRANCH   1  16
HETATM   16  C   UNL     1       7.830  24.541  55.721  1.00  0.00     0.050 A 
HETATM   17  C   UNL     1       7.992  23.097  55.798  1.00  0.00    -0.003 A 
HETATM   18  C   UNL     1       8.390  22.245  56.865  1.00  0.00     0.014 A 
HETATM   19  C   UNL     1       7.671  22.483  54.581  1.00  0.00     0.016 A 
HETATM   20  C   UNL     1       8.507  20.862  56.681  1.00  0.00     0.001 A 
HETATM   21  C   UNL     1       8.218  20.294  55.451  1.00  0.00     0.001 A 
HETATM   22  C   UNL     1       7.789  21.091  54.391  1.00  0.00     0.019 A 
HETATM   23  S   UNL     1       7.123  23.623  53.417  1.00  0.00    -0.100 SA
HETATM   24  C   UNL     1       7.308  24.920  54.498  1.00  0.00     0.068 A 
ENDBRANCH   1  16
TORSDOF 3
ENDMDL
MODEL 2
REMARK VINA RESULT:      -8.8      5.578      8.650
REMARK  3 active torsions:
REMARK  status: ('A' for Active; 'I' for Inactive)
REMARK    1  A    between atoms: C_7  and  C_8 
REMARK       I    between atoms: C_8  and  N_9 
REMARK    2  A    between atoms: N_9  and  C_10 
REMARK    3  A    between atoms: C_13  and  C_14 
REMARK       I    between atoms: C_14  and  N_15 
ROOT
HETATM    1  C   UNL     1       5.486  25.357  52.035  1.00  0.00     0.257 C 
HETATM    2  N   UNL     1       6.727  25.188  52.623  1.00  0.00    -0.323 N 
HETATM    3  O   UNL     1       4.557  24.562  52.091  1.00  0.00    -0.267 OA
HETATM    4  H   UNL     1       7.358  25.978  52.569  1.00  0.00     0.169 HD
ENDROOT
BRANCH   2   5
HETATM    5  C   UNL     1       7.193  24.078  53.356  1.00  0.00     0.035 A 
HETATM    6  C   UNL     1       7.864  22.991  52.792  1.00  0.00     0.030 A 
HETATM    7  C   UNL     1       8.281  21.914  53.587  1.00  0.00     0.019 A 
HETATM    8  C   UNL     1       8.046  21.918  54.966  1.00  0.00     0.032 A 
HETATM    9  C   UNL     1       7.377  23.010  55.532  1.00  0.00     0.019 A 
HETATM   10  C   UNL     1       6.952  24.078  54.734  1.00  0.00     0.030 A 
BRANCH   8  11
HETATM   11  C   UNL     1       8.456  20.806  55.871  1.00  0.00     0.249 C 
HETATM   12  N   UNL     1       8.936  19.653  55.317  1.00  0.00    -0.366 N 
HETATM   13  H   UNL     1       9.124  19.515  54.337  1.00  0.00     0.159 HD
HETATM   14  H   UNL     1       9.239  18.934  55.962  1.00  0.00     0.159 HD
HETATM   15  O   UNL     1       8.379  20.915  57.090  1.00  0.00    -0.268 OA
ENDBRANCH   8  11
ENDBRANCH   2   5
BRANCH   1  16
HETATM   16  C   UNL     1       5.320  26.652  51.363  1.00  0.00     0.050 A 
HETATM   17  C   UNL     1       4.836  26.927  50.019  1.00  0.00    -0.003 A 
HETATM   18  C   UNL     1       4.322  26.072  49.005  1.00  0.00     0.014 A 
HETATM   19  C   UNL     1       4.894  28.296  49.727  1.00  0.00     0.016 A 
HETATM   20  C   UNL     1       3.947  26.578  47.754  1.00  0.00     0.001 A 
HETATM   21  C   UNL     1       4.054  27.933  47.488  1.00  0.00     0.001 A 
HETATM   22  C   UNL     1       4.518  28.808  48.468  1.00  0.00     0.019 A 
HETATM   23  S   UNL     1       5.448  29.212  51.071  1.00  0.00    -0.100 SA
HETATM   24  C   UNL     1       5.618  27.824  52.035  1.00  0.00     0.068 A 
ENDBRANCH   1  16
TORSDOF 3
ENDMDL
MODEL 3
REMARK VINA RESULT:      -8.7      3.444      8.129
REMARK  3 active torsions:
REMARK  status: ('A' for Active; 'I' for Inactive)
REMARK    1  A    between atoms: C_7  and  C_8 
REMARK       I    between atoms: C_8  and  N_9 
REMARK    2  A    between atoms: N_9  and  C_10 
REMARK    3  A    between atoms: C_13  and  C_14 
REMARK       I    between atoms: C_14  and  N_15 
ROOT
HETATM    1  C   UNL     1       5.685  26.013  56.194  1.00  0.00     0.257 C 
HETATM    2  N   UNL     1       6.675  25.713  55.277  1.00  0.00    -0.323 N 
HETATM    3  O   UNL     1       5.042  25.197  56.843  1.00  0.00    -0.267 OA
HETATM    4  H   UNL     1       7.183  26.500  54.893  1.00  0.00     0.169 HD
ENDROOT
BRANCH   2   5
HETATM    5  C   UNL     1       7.118  24.439  54.868  1.00  0.00     0.035 A 
HETATM    6  C   UNL     1       7.035  23.962  53.558  1.00  0.00     0.030 A 
HETATM    7  C   UNL     1       7.481  22.673  53.234  1.00  0.00     0.019 A 
HETATM    8  C   UNL     1       8.035  21.846  54.217  1.00  0.00     0.032 A 
HETATM    9  C   UNL     1       8.123  22.326  55.529  1.00  0.00     0.019 A 
HETATM   10  C   UNL     1       7.665  23.608  55.852  1.00  0.00     0.030 A 
BRANCH   8  11
HETATM   11  C   UNL     1       8.525  20.464  53.945  1.00  0.00     0.249 C 
HETATM   12  N   UNL     1       9.001  19.721  54.988  1.00  0.00    -0.366 N 
HETATM   13  H   UNL     1       8.970  19.994  55.957  1.00  0.00     0.159 HD
HETATM   14  H   UNL     1       9.290  18.775  54.774  1.00  0.00     0.159 HD
HETATM   15  O   UNL     1       8.497  19.988  52.816  1.00  0.00    -0.268 OA
ENDBRANCH   8  11
ENDBRANCH   2   5
BRANCH   1  16
HETATM   16  C   UNL     1       5.491  27.454  56.407  1.00  0.00     0.050 A 
HETATM   17  C   UNL     1       6.338  28.392  57.127  1.00  0.00    -0.003 A 
HETATM   18  C   UNL     1       7.602  28.232  57.760  1.00  0.00     0.014 A 
HETATM   19  C   UNL     1       5.767  29.670  57.163  1.00  0.00     0.016 A 
HETATM   20  C   UNL     1       8.213  29.297  58.434  1.00  0.00     0.001 A 
HETATM   21  C   UNL     1       7.600  30.538  58.480  1.00  0.00     0.001 A 
HETATM   22  C   UNL     1       6.378  30.744  57.841  1.00  0.00     0.019 A 
HETATM   23  S   UNL     1       4.291  29.733  56.284  1.00  0.00    -0.100 SA
HETATM   24  C   UNL     1       4.392  28.092  55.860  1.00  0.00     0.068 A 
ENDBRANCH   1  16
TORSDOF 3
ENDMDL
MODEL 4
REMARK VINA RESULT:      -8.6      5.366      7.676
REMARK  3 active torsions:
REMARK  status: ('A' for Active; 'I' for Inactive)
REMARK    1  A    between atoms: C_7  and  C_8 
REMARK       I    between atoms: C_8  and  N_9 
REMARK    2  A    between atoms: N_9  and  C_10 
REMARK    3  A    between atoms: C_13  and  C_14 
REMARK       I    between atoms: C_14  and  N_15 
ROOT
HETATM    1  C   UNL     1       6.837  31.786  59.568  1.00  0.00     0.257 C 
HETATM    2  N   UNL     1       7.134  31.301  60.829  1.00  0.00    -0.323 N 
HETATM    3  O   UNL     1       6.393  32.900  59.318  1.00  0.00    -0.267 OA
HETATM    4  H   UNL     1       7.586  30.396  60.865  1.00  0.00     0.169 HD
ENDROOT
BRANCH   2   5
HETATM    5  C   UNL     1       6.957  31.949  62.069  1.00  0.00     0.035 A 
HETATM    6  C   UNL     1       7.999  32.465  62.841  1.00  0.00     0.030 A 
HETATM    7  C   UNL     1       7.742  33.079  64.075  1.00  0.00     0.019 A 
HETATM    8  C   UNL     1       6.431  33.202  64.547  1.00  0.00     0.032 A 
HETATM    9  C   UNL     1       5.386  32.688  63.770  1.00  0.00     0.019 A 
HETATM   10  C   UNL     1       5.646  32.064  62.545  1.00  0.00     0.030 A 
BRANCH   8  11
HETATM   11  C   UNL     1       6.085  33.838  65.850  1.00  0.00     0.249 C 
HETATM   12  N   UNL     1       7.092  34.350  66.619  1.00  0.00    -0.366 N 
HETATM   13  H   UNL     1       8.058  34.415  66.340  1.00  0.00     0.159 HD
HETATM   14  H   UNL     1       6.817  34.807  67.478  1.00  0.00     0.159 HD
HETATM   15  O   UNL     1       4.922  33.918  66.232  1.00  0.00    -0.268 OA
ENDBRANCH   8  11
ENDBRANCH   2   5
BRANCH   1  16
HETATM   16  C   UNL     1       7.172  30.856  58.482  1.00  0.00     0.050 A 
HETATM   17  C   UNL     1       8.482  30.509  57.950  1.00  0.00    -0.003 A 
HETATM   18  C   UNL     1       9.795  30.885  58.346  1.00  0.00     0.014 A 
HETATM   19  C   UNL     1       8.373  29.633  56.863  1.00  0.00     0.016 A 
HETATM   20  C   UNL     1      10.919  30.440  57.640  1.00  0.00     0.001 A 
HETATM   21  C   UNL     1      10.771  29.605  56.546  1.00  0.00     0.001 A 
HETATM   22  C   UNL     1       9.502  29.183  56.148  1.00  0.00     0.019 A 
HETATM   23  S   UNL     1       6.739  29.196  56.556  1.00  0.00    -0.100 SA
HETATM   24  C   UNL     1       6.170  30.153  57.839  1.00  0.00     0.068 A 
ENDBRANCH   1  16
TORSDOF 3
ENDMDL
MODEL 5
REMARK VINA RESULT:      -8.4      4.684      7.168
REMARK  3 active torsions:
REMARK  status: ('A' for Active; 'I' for Inactive)
REMARK    1  A    between atoms: C_7  and  C_8 
REMARK       I    between atoms: C_8  and  N_9 
REMARK    2  A    between atoms: N_9  and  C_10 
REMARK    3  A    between atoms: C_13  and  C_14 
REMARK       I    between atoms: C_14  and  N_15 
ROOT
HETATM    1  C   UNL     1       8.602  31.752  59.637  1.00  0.00     0.257 C 
HETATM    2  N   UNL     1       7.779  31.194  60.598  1.00  0.00    -0.323 N 
HETATM    3  O   UNL     1       9.081  32.879  59.673  1.00  0.00    -0.267 OA
HETATM    4  H   UNL     1       7.543  30.218  60.473  1.00  0.00     0.169 HD
ENDROOT
BRANCH   2   5
HETATM    5  C   UNL     1       7.291  31.798  61.775  1.00  0.00     0.035 A 
HETATM    6  C   UNL     1       5.938  32.024  62.037  1.00  0.00     0.030 A 
HETATM    7  C   UNL     1       5.532  32.650  63.226  1.00  0.00     0.019 A 
HETATM    8  C   UNL     1       6.477  33.042  64.179  1.00  0.00     0.032 A 
HETATM    9  C   UNL     1       7.833  32.812  63.917  1.00  0.00     0.019 A 
HETATM   10  C   UNL     1       8.236  32.199  62.725  1.00  0.00     0.030 A 
BRANCH   8  11
HETATM   11  C   UNL     1       6.119  33.715  65.460  1.00  0.00     0.249 C 
HETATM   12  N   UNL     1       7.122  34.224  66.236  1.00  0.00    -0.366 N 
HETATM   13  H   UNL     1       8.094  34.264  65.975  1.00  0.00     0.159 HD
HETATM   14  H   UNL     1       6.840  34.707  67.080  1.00  0.00     0.159 HD
HETATM   15  O   UNL     1       4.951  33.827  65.817  1.00  0.00    -0.268 OA
ENDBRANCH   8  11
ENDBRANCH   2   5
BRANCH   1  16
HETATM   16  C   UNL     1       8.943  30.832  58.543  1.00  0.00     0.050 A 
HETATM   17  C   UNL     1       8.074  29.918  57.816  1.00  0.00    -0.003 A 
HETATM   18  C   UNL     1       6.672  29.692  57.881  1.00  0.00     0.014 A 
HETATM   19  C   UNL     1       8.798  29.158  56.889  1.00  0.00     0.016 A 
HETATM   20  C   UNL     1       6.060  28.713  57.089  1.00  0.00     0.001 A 
HETATM   21  C   UNL     1       6.814  27.953  56.211  1.00  0.00     0.001 A 
HETATM   22  C   UNL     1       8.186  28.170  56.091  1.00  0.00     0.019 A 
HETATM   23  S   UNL     1      10.459  29.600  56.859  1.00  0.00    -0.100 SA
HETATM   24  C   UNL     1      10.237  30.781  58.059  1.00  0.00     0.068 A 
ENDBRANCH   1  16
TORSDOF 3
ENDMDL
MODEL 6
REMARK VINA RESULT:      -8.4      4.867      8.374
REMARK  3 active torsions:
REMARK  status: ('A' for Active; 'I' for Inactive)
REMARK    1  A    between atoms: C_7  and  C_8 
REMARK       I    between atoms: C_8  and  N_9 
REMARK    2  A    between atoms: N_9  and  C_10 
REMARK    3  A    between atoms: C_13  and  C_14 
REMARK       I    between atoms: C_14  and  N_15 
ROOT
HETATM    1  C   UNL     1       5.084  25.670  53.225  1.00  0.00     0.257 C 
HETATM    2  N   UNL     1       6.341  25.421  53.747  1.00  0.00    -0.323 N 
HETATM    3  O   UNL     1       4.240  24.823  52.961  1.00  0.00    -0.267 OA
HETATM    4  H   UNL     1       6.888  26.234  54.002  1.00  0.00     0.169 HD
ENDROOT
BRANCH   2   5
HETATM    5  C   UNL     1       6.923  24.172  54.042  1.00  0.00     0.035 A 
HETATM    6  C   UNL     1       7.040  23.645  55.329  1.00  0.00     0.030 A 
HETATM    7  C   UNL     1       7.651  22.400  55.543  1.00  0.00     0.019 A 
HETATM    8  C   UNL     1       8.138  21.655  54.464  1.00  0.00     0.032 A 
HETATM    9  C   UNL     1       8.016  22.181  53.173  1.00  0.00     0.019 A 
HETATM   10  C   UNL     1       7.418  23.430  52.964  1.00  0.00     0.030 A 
BRANCH   8  11
HETATM   11  C   UNL     1       8.801  20.329  54.617  1.00  0.00     0.249 C 
HETATM   12  N   UNL     1       9.222  19.945  55.859  1.00  0.00    -0.366 N 
HETATM   13  H   UNL     1       9.044  20.449  56.713  1.00  0.00     0.159 HD
HETATM   14  H   UNL     1       9.634  19.024  55.932  1.00  0.00     0.159 HD
HETATM   15  O   UNL     1       8.962  19.582  53.658  1.00  0.00    -0.268 OA
ENDBRANCH   8  11
ENDBRANCH   2   5
BRANCH   1  16
HETATM   16  C   UNL     1       4.782  27.099  53.064  1.00  0.00     0.050 A 
HETATM   17  C   UNL     1       4.530  28.099  54.090  1.00  0.00    -0.003 A 
HETATM   18  C   UNL     1       4.568  28.029  55.510  1.00  0.00     0.014 A 
HETATM   19  C   UNL     1       4.209  29.339  53.523  1.00  0.00     0.016 A 
HETATM   20  C   UNL     1       4.243  29.140  56.298  1.00  0.00     0.001 A 
HETATM   21  C   UNL     1       3.894  30.341  55.702  1.00  0.00     0.001 A 
HETATM   22  C   UNL     1       3.880  30.460  54.313  1.00  0.00     0.019 A 
HETATM   23  S   UNL     1       4.289  29.296  51.807  1.00  0.00    -0.100 SA
HETATM   24  C   UNL     1       4.738  27.658  51.800  1.00  0.00     0.068 A 
ENDBRANCH   1  16
TORSDOF 3
ENDMDL
MODEL 7
REMARK VINA RESULT:      -8.3      3.218      8.389
REMARK  3 active torsions:
REMARK  status: ('A' for Active; 'I' for Inactive)
REMARK    1  A    between atoms: C_7  and  C_8 
REMARK       I    between atoms: C_8  and  N_9 
REMARK    2  A    between atoms: N_9  and  C_10 
REMARK    3  A    between atoms: C_13  and  C_14 
REMARK       I    between atoms: C_14  and  N_15 
ROOT
HETATM    1  C   UNL     1       8.236  28.991  57.850  1.00  0.00     0.257 C 
HETATM    2  N   UNL     1       7.344  27.950  57.663  1.00  0.00    -0.323 N 
HETATM    3  O   UNL     1       9.391  29.022  57.444  1.00  0.00    -0.267 OA
HETATM    4  H   UNL     1       6.395  28.114  57.974  1.00  0.00     0.169 HD
ENDROOT
BRANCH   2   5
HETATM    5  C   UNL     1       7.576  26.717  57.021  1.00  0.00     0.035 A 
HETATM    6  C   UNL     1       8.155  25.607  57.639  1.00  0.00     0.030 A 
HETATM    7  C   UNL     1       8.371  24.419  56.926  1.00  0.00     0.019 A 
HETATM    8  C   UNL     1       7.991  24.320  55.583  1.00  0.00     0.032 A 
HETATM    9  C   UNL     1       7.406  25.431  54.965  1.00  0.00     0.019 A 
HETATM   10  C   UNL     1       7.204  26.620  55.676  1.00  0.00     0.030 A 
BRANCH   8  11
HETATM   11  C   UNL     1       8.194  23.091  54.763  1.00  0.00     0.249 C 
HETATM   12  N   UNL     1       9.267  22.291  55.035  1.00  0.00    -0.366 N 
HETATM   13  H   UNL     1       9.898  22.410  55.811  1.00  0.00     0.159 HD
HETATM   14  H   UNL     1       9.352  21.446  54.483  1.00  0.00     0.159 HD
HETATM   15  O   UNL     1       7.415  22.788  53.866  1.00  0.00    -0.268 OA
ENDBRANCH   8  11
ENDBRANCH   2   5
BRANCH   1  16
HETATM   16  C   UNL     1       7.657  30.150  58.543  1.00  0.00     0.050 A 
HETATM   17  C   UNL     1       8.081  30.773  59.788  1.00  0.00    -0.003 A 
HETATM   18  C   UNL     1       9.183  30.515  60.648  1.00  0.00     0.014 A 
HETATM   19  C   UNL     1       7.221  31.817  60.152  1.00  0.00     0.016 A 
HETATM   20  C   UNL     1       9.361  31.241  61.832  1.00  0.00     0.001 A 
HETATM   21  C   UNL     1       8.469  32.242  62.179  1.00  0.00     0.001 A 
HETATM   22  C   UNL     1       7.396  32.550  61.344  1.00  0.00     0.019 A 
HETATM   23  S   UNL     1       5.992  32.071  58.977  1.00  0.00    -0.100 SA
HETATM   24  C   UNL     1       6.576  30.815  57.994  1.00  0.00     0.068 A 
ENDBRANCH   1  16
TORSDOF 3
ENDMDL
MODEL 8
REMARK VINA RESULT:      -8.0      4.881      6.450
REMARK  3 active torsions:
REMARK  status: ('A' for Active; 'I' for Inactive)
REMARK    1  A    between atoms: C_7  and  C_8 
REMARK       I    between atoms: C_8  and  N_9 
REMARK    2  A    between atoms: N_9  and  C_10 
REMARK    3  A    between atoms: C_13  and  C_14 
REMARK       I    between atoms: C_14  and  N_15 
ROOT
HETATM    1  C   UNL     1       6.116  24.935  54.143  1.00  0.00     0.257 C 
HETATM    2  N   UNL     1       6.728  25.618  53.108  1.00  0.00    -0.323 N 
HETATM    3  O   UNL     1       4.929  24.996  54.435  1.00  0.00    -0.267 OA
HETATM    4  H   UNL     1       7.698  25.388  52.932  1.00  0.00     0.169 HD
ENDROOT
BRANCH   2   5
HETATM    5  C   UNL     1       6.144  26.540  52.216  1.00  0.00     0.035 A 
HETATM    6  C   UNL     1       6.100  27.919  52.430  1.00  0.00     0.030 A 
HETATM    7  C   UNL     1       5.482  28.770  51.501  1.00  0.00     0.019 A 
HETATM    8  C   UNL     1       4.914  28.252  50.333  1.00  0.00     0.032 A 
HETATM    9  C   UNL     1       4.963  26.869  50.116  1.00  0.00     0.019 A 
HETATM   10  C   UNL     1       5.569  26.021  51.051  1.00  0.00     0.030 A 
BRANCH   8  11
HETATM   11  C   UNL     1       4.239  29.095  49.306  1.00  0.00     0.249 C 
HETATM   12  N   UNL     1       3.380  28.496  48.427  1.00  0.00    -0.366 N 
HETATM   13  H   UNL     1       3.089  27.533  48.466  1.00  0.00     0.159 HD
HETATM   14  H   UNL     1       2.911  29.105  47.769  1.00  0.00     0.159 HD
HETATM   15  O   UNL     1       4.432  30.305  49.246  1.00  0.00    -0.268 OA
ENDBRANCH   8  11
ENDBRANCH   2   5
BRANCH   1  16
HETATM   16  C   UNL     1       7.016  24.027  54.867  1.00  0.00     0.050 A 
HETATM   17  C   UNL     1       7.594  22.768  54.420  1.00  0.00    -0.003 A 
HETATM   18  C   UNL     1       7.532  22.088  53.172  1.00  0.00     0.014 A 
HETATM   19  C   UNL     1       8.347  22.165  55.435  1.00  0.00     0.016 A 
HETATM   20  C   UNL     1       8.153  20.846  52.994  1.00  0.00     0.001 A 
HETATM   21  C   UNL     1       8.858  20.262  54.033  1.00  0.00     0.001 A 
HETATM   22  C   UNL     1       8.972  20.913  55.260  1.00  0.00     0.019 A 
HETATM   23  S   UNL     1       8.405  23.139  56.851  1.00  0.00    -0.100 SA
HETATM   24  C   UNL     1       7.443  24.346  56.142  1.00  0.00     0.068 A 
ENDBRANCH   1  16
TORSDOF 3
ENDMDL
MODEL 9
REMARK VINA RESULT:      -7.9      5.916      8.706
REMARK  3 active torsions:
REMARK  status: ('A' for Active; 'I' for Inactive)
REMARK    1  A    between atoms: C_7  and  C_8 
REMARK       I    between atoms: C_8  and  N_9 
REMARK    2  A    between atoms: N_9  and  C_10 
REMARK    3  A    between atoms: C_13  and  C_14 
REMARK       I    between atoms: C_14  and  N_15 
ROOT
HETATM    1  C   UNL     1       5.032  27.471  51.317  1.00  0.00     0.257 C 
HETATM    2  N   UNL     1       5.001  26.111  51.570  1.00  0.00    -0.323 N 
HETATM    3  O   UNL     1       5.846  28.263  51.773  1.00  0.00    -0.267 OA
HETATM    4  H   UNL     1       4.325  25.574  51.042  1.00  0.00     0.169 HD
ENDROOT
BRANCH   2   5
HETATM    5  C   UNL     1       5.849  25.370  52.416  1.00  0.00     0.035 A 
HETATM    6  C   UNL     1       5.533  25.015  53.729  1.00  0.00     0.030 A 
HETATM    7  C   UNL     1       6.441  24.290  54.515  1.00  0.00     0.019 A 
HETATM    8  C   UNL     1       7.675  23.894  53.990  1.00  0.00     0.032 A 
HETATM    9  C   UNL     1       7.990  24.246  52.672  1.00  0.00     0.019 A 
HETATM   10  C   UNL     1       7.087  24.980  51.894  1.00  0.00     0.030 A 
BRANCH   8  11
HETATM   11  C   UNL     1       8.689  23.127  54.769  1.00  0.00     0.249 C 
HETATM   12  N   UNL     1       9.213  21.990  54.222  1.00  0.00    -0.366 N 
HETATM   13  H   UNL     1       9.038  21.662  53.285  1.00  0.00     0.159 HD
HETATM   14  H   UNL     1       9.926  21.516  54.761  1.00  0.00     0.159 HD
HETATM   15  O   UNL     1       9.064  23.504  55.874  1.00  0.00    -0.268 OA
ENDBRANCH   8  11
ENDBRANCH   2   5
BRANCH   1  16
HETATM   16  C   UNL     1       4.012  27.918  50.358  1.00  0.00     0.050 A 
HETATM   17  C   UNL     1       3.494  27.225  49.188  1.00  0.00    -0.003 A 
HETATM   18  C   UNL     1       3.745  25.925  48.670  1.00  0.00     0.014 A 
HETATM   19  C   UNL     1       2.578  28.021  48.490  1.00  0.00     0.016 A 
HETATM   20  C   UNL     1       3.141  25.490  47.484  1.00  0.00     0.001 A 
HETATM   21  C   UNL     1       2.268  26.319  46.800  1.00  0.00     0.001 A 
HETATM   22  C   UNL     1       1.968  27.588  47.295  1.00  0.00     0.019 A 
HETATM   23  S   UNL     1       2.308  29.525  49.279  1.00  0.00    -0.100 SA
HETATM   24  C   UNL     1       3.390  29.141  50.530  1.00  0.00     0.068 A 
ENDBRANCH   1  16
TORSDOF 3
ENDMDL
MODEL 10
REMARK VINA RESULT:      -7.7     10.628     14.852
REMARK  3 active torsions:
REMARK  status: ('A' for Active; 'I' for Inactive)
REMARK    1  A    between atoms: C_7  and  C_8 
REMARK       I    between atoms: C_8  and  N_9 
REMARK    2  A    between atoms: N_9  and  C_10 
REMARK    3  A    between atoms: C_13  and  C_14 
REMARK       I    between atoms: C_14  and  N_15 
ROOT
HETATM    1  C   UNL     1       6.035  34.219  68.351  1.00  0.00     0.257 C 
HETATM    2  N   UNL     1       6.772  34.209  67.180  1.00  0.00    -0.323 N 
HETATM    3  O   UNL     1       4.865  33.876  68.461  1.00  0.00    -0.267 OA
HETATM    4  H   UNL     1       7.756  34.429  67.269  1.00  0.00     0.169 HD
ENDROOT
BRANCH   2   5
HETATM    5  C   UNL     1       6.337  33.853  65.888  1.00  0.00     0.035 A 
HETATM    6  C   UNL     1       5.005  33.892  65.470  1.00  0.00     0.030 A 
HETATM    7  C   UNL     1       4.649  33.503  64.170  1.00  0.00     0.019 A 
HETATM    8  C   UNL     1       5.626  33.084  63.263  1.00  0.00     0.032 A 
HETATM    9  C   UNL     1       6.962  33.048  63.680  1.00  0.00     0.019 A 
HETATM   10  C   UNL     1       7.313  33.425  64.982  1.00  0.00     0.030 A 
BRANCH   8  11
HETATM   11  C   UNL     1       5.320  32.652  61.869  1.00  0.00     0.249 C 
HETATM   12  N   UNL     1       4.328  31.733  61.670  1.00  0.00    -0.366 N 
HETATM   13  H   UNL     1       3.714  31.379  62.386  1.00  0.00     0.159 HD
HETATM   14  H   UNL     1       4.122  31.491  60.709  1.00  0.00     0.159 HD
HETATM   15  O   UNL     1       5.930  33.112  60.910  1.00  0.00    -0.268 OA
ENDBRANCH   8  11
ENDBRANCH   2   5
BRANCH   1  16
HETATM   16  C   UNL     1       6.808  34.622  69.534  1.00  0.00     0.050 A 
HETATM   17  C   UNL     1       7.225  33.814  70.670  1.00  0.00    -0.003 A 
HETATM   18  C   UNL     1       7.086  32.426  70.946  1.00  0.00     0.014 A 
HETATM   19  C   UNL     1       7.889  34.588  71.629  1.00  0.00     0.016 A 
HETATM   20  C   UNL     1       7.546  31.878  72.149  1.00  0.00     0.001 A 
HETATM   21  C   UNL     1       8.164  32.682  73.092  1.00  0.00     0.001 A 
HETATM   22  C   UNL     1       8.352  34.041  72.843  1.00  0.00     0.019 A 
HETATM   23  S   UNL     1       8.061  36.222  71.122  1.00  0.00    -0.100 SA
HETATM   24  C   UNL     1       7.265  35.922  69.652  1.00  0.00     0.068 A 
ENDBRANCH   1  16
TORSDOF 3
ENDMDL
