MODEL 1
REMARK VINA RESULT:      -8.8      0.000      0.000
REMARK  3 active torsions:
REMARK  status: ('A' for Active; 'I' for Inactive)
REMARK    1  A    between atoms: C_2  and  N_3 
REMARK       I    between atoms: N_3  and  C_4 
REMARK    2  A    between atoms: C_4  and  C_5 
REMARK    3  A    between atoms: C_5  and  C_6 
ROOT
HETATM    1  C   UNL     1       7.720  25.556  55.606  1.00  0.00     0.286 C 
HETATM    2  N   UNL     1       7.926  24.428  54.587  1.00  0.00    -0.056 N 
HETATM    3  H   UNL     1       7.272  24.574  53.794  1.00  0.00     0.278 HD
HETATM    4  H   UNL     1       8.874  24.498  54.198  1.00  0.00     0.278 HD
HETATM    5  C   UNL     1       7.683  23.039  55.118  1.00  0.00     0.209 C 
HETATM    6  C   UNL     1       8.470  22.847  56.427  1.00  0.00     0.115 C 
HETATM    7  N   UNL     1       8.120  23.865  57.403  1.00  0.00    -0.353 N 
HETATM    8  C   UNL     1       7.974  25.188  57.078  1.00  0.00     0.249 C 
HETATM    9  O   UNL     1       8.016  26.042  57.958  1.00  0.00    -0.271 OA
HETATM   10  C   UNL     1       8.091  22.011  54.068  1.00  0.00     0.035 C 
HETATM   11  C   UNL     1       7.879  20.595  54.604  1.00  0.00     0.002 C 
HETATM   12  C   UNL     1       8.587  20.373  55.942  1.00  0.00     0.002 C 
HETATM   13  C   UNL     1       8.228  21.440  56.977  1.00  0.00     0.027 C 
HETATM   14  H   UNL     1       8.364  23.717  58.381  1.00  0.00     0.163 HD
ENDROOT
BRANCH   1  15
HETATM   15  C   UNL     1       6.381  26.281  55.429  1.00  0.00     0.146 C 
BRANCH  15  16
HETATM   16  C   UNL     1       6.526  27.516  54.594  1.00  0.00     0.224 C 
HETATM   17  N   UNL     1       7.124  28.668  54.965  1.00  0.00    -0.327 N 
HETATM   18  H   UNL     1       7.094  29.331  54.193  1.00  0.00     0.169 HD
HETATM   19  O   UNL     1       5.943  27.504  53.497  1.00  0.00    -0.273 OA
BRANCH  17  20
HETATM   20  C   UNL     1       7.758  29.169  56.117  1.00  0.00     0.034 A 
HETATM   21  C   UNL     1       9.128  29.230  56.355  1.00  0.00     0.031 A 
HETATM   22  C   UNL     1       9.626  29.729  57.570  1.00  0.00     0.026 A 
HETATM   23  C   UNL     1       8.756  30.178  58.556  1.00  0.00     0.034 A 
HETATM   24  C   UNL     1       7.386  30.135  58.337  1.00  0.00     0.026 A 
HETATM   25 CL   UNL     1       9.375  30.779  60.040  1.00  0.00    -0.084 Cl
HETATM   26  C   UNL     1       6.894  29.636  57.126  1.00  0.00     0.031 A 
ENDBRANCH  17  20
ENDBRANCH  15  16
ENDBRANCH   1  15
TORSDOF 3
ENDMDL
MODEL 2
REMARK VINA RESULT:      -8.7      3.110      7.216
REMARK  3 active torsions:
REMARK  status: ('A' for Active; 'I' for Inactive)
REMARK    1  A    between atoms: C_2  and  N_3 
REMARK       I    between atoms: N_3  and  C_4 
REMARK    2  A    between atoms: C_4  and  C_5 
REMARK    3  A    between atoms: C_5  and  C_6 
ROOT
HETATM    1  C   UNL     1       6.615  28.011  56.156  1.00  0.00     0.286 C 
HETATM    2  N   UNL     1       8.042  28.369  55.724  1.00  0.00    -0.056 N 
HETATM    3  H   UNL     1       8.508  27.512  55.370  1.00  0.00     0.278 HD
HETATM    4  H   UNL     1       7.998  29.023  54.932  1.00  0.00     0.278 HD
HETATM    5  C   UNL     1       8.914  28.934  56.816  1.00  0.00     0.209 C 
HETATM    6  C   UNL     1       8.170  30.083  57.522  1.00  0.00     0.115 C 
HETATM    7  N   UNL     1       6.886  29.636  58.035  1.00  0.00    -0.353 N 
HETATM    8  C   UNL     1       6.037  28.835  57.319  1.00  0.00     0.249 C 
HETATM    9  O   UNL     1       4.853  28.763  57.633  1.00  0.00    -0.271 OA
HETATM   10  C   UNL     1      10.235  29.411  56.221  1.00  0.00     0.035 C 
HETATM   11  C   UNL     1      11.119  30.016  57.312  1.00  0.00     0.002 C 
HETATM   12  C   UNL     1      10.400  31.119  58.091  1.00  0.00     0.002 C 
HETATM   13  C   UNL     1       9.046  30.661  58.635  1.00  0.00     0.027 C 
HETATM   14  H   UNL     1       6.408  30.205  58.732  1.00  0.00     0.163 HD
ENDROOT
BRANCH   1  15
HETATM   15  C   UNL     1       6.421  26.507  56.378  1.00  0.00     0.146 C 
BRANCH  15  16
HETATM   16  C   UNL     1       7.560  25.907  57.143  1.00  0.00     0.224 C 
HETATM   17  N   UNL     1       8.251  24.796  56.811  1.00  0.00    -0.327 N 
HETATM   18  H   UNL     1       8.982  24.632  57.501  1.00  0.00     0.169 HD
HETATM   19  O   UNL     1       7.814  26.430  58.242  1.00  0.00    -0.273 OA
BRANCH  17  20
HETATM   20  C   UNL     1       8.214  23.834  55.785  1.00  0.00     0.034 A 
HETATM   21  C   UNL     1       8.170  24.080  54.415  1.00  0.00     0.031 A 
HETATM   22  C   UNL     1       8.104  23.020  53.496  1.00  0.00     0.026 A 
HETATM   23  C   UNL     1       8.087  21.703  53.941  1.00  0.00     0.034 A 
HETATM   24  C   UNL     1       8.139  21.435  55.301  1.00  0.00     0.026 A 
HETATM   25 CL   UNL     1       7.998  20.414  52.810  1.00  0.00    -0.084 Cl
HETATM   26  C   UNL     1       8.204  22.494  56.213  1.00  0.00     0.031 A 
ENDBRANCH  17  20
ENDBRANCH  15  16
ENDBRANCH   1  15
TORSDOF 3
ENDMDL
MODEL 3
REMARK VINA RESULT:      -8.7      3.616      4.782
REMARK  3 active torsions:
REMARK  status: ('A' for Active; 'I' for Inactive)
REMARK    1  A    between atoms: C_2  and  N_3 
REMARK       I    between atoms: N_3  and  C_4 
REMARK    2  A    between atoms: C_4  and  C_5 
REMARK    3  A    between atoms: C_5  and  C_6 
ROOT
HETATM    1  C   UNL     1       8.054  25.446  55.931  1.00  0.00     0.286 C 
HETATM    2  N   UNL     1       8.137  24.608  54.649  1.00  0.00    -0.056 N 
HETATM    3  H   UNL     1       7.501  25.021  53.940  1.00  0.00     0.278 HD
HETATM    4  H   UNL     1       9.087  24.679  54.263  1.00  0.00     0.278 HD
HETATM    5  C   UNL     1       7.748  23.161  54.810  1.00  0.00     0.209 C 
HETATM    6  C   UNL     1       8.513  22.555  56.001  1.00  0.00     0.115 C 
HETATM    7  N   UNL     1       8.275  23.315  57.216  1.00  0.00    -0.353 N 
HETATM    8  C   UNL     1       8.270  24.684  57.249  1.00  0.00     0.249 C 
HETATM    9  O   UNL     1       8.405  25.271  58.318  1.00  0.00    -0.271 OA
HETATM   10  C   UNL     1       8.043  22.406  53.518  1.00  0.00     0.035 C 
HETATM   11  C   UNL     1       7.683  20.928  53.676  1.00  0.00     0.002 C 
HETATM   12  C   UNL     1       8.366  20.294  54.889  1.00  0.00     0.002 C 
HETATM   13  C   UNL     1       8.124  21.086  56.175  1.00  0.00     0.027 C 
HETATM   14  H   UNL     1       8.504  22.893  58.115  1.00  0.00     0.163 HD
ENDROOT
BRANCH   1  15
HETATM   15  C   UNL     1       6.800  26.326  55.987  1.00  0.00     0.146 C 
BRANCH  15  16
HETATM   16  C   UNL     1       5.551  25.523  55.795  1.00  0.00     0.224 C 
HETATM   17  N   UNL     1       4.849  25.394  54.649  1.00  0.00    -0.327 N 
HETATM   18  H   UNL     1       4.055  24.775  54.803  1.00  0.00     0.169 HD
HETATM   19  O   UNL     1       5.063  25.018  56.821  1.00  0.00    -0.273 OA
BRANCH  17  20
HETATM   20  C   UNL     1       4.933  25.889  53.334  1.00  0.00     0.034 A 
HETATM   21  C   UNL     1       5.409  25.209  52.217  1.00  0.00     0.031 A 
HETATM   22  C   UNL     1       5.468  25.838  50.962  1.00  0.00     0.026 A 
HETATM   23  C   UNL     1       5.044  27.153  50.814  1.00  0.00     0.034 A 
HETATM   24  C   UNL     1       4.557  27.848  51.912  1.00  0.00     0.026 A 
HETATM   25 CL   UNL     1       5.126  27.915  49.278  1.00  0.00    -0.084 Cl
HETATM   26  C   UNL     1       4.502  27.218  53.161  1.00  0.00     0.031 A 
ENDBRANCH  17  20
ENDBRANCH  15  16
ENDBRANCH   1  15
TORSDOF 3
ENDMDL
MODEL 4
REMARK VINA RESULT:      -8.1      3.049      6.787
REMARK  3 active torsions:
REMARK  status: ('A' for Active; 'I' for Inactive)
REMARK    1  A    between atoms: C_2  and  N_3 
REMARK       I    between atoms: N_3  and  C_4 
REMARK    2  A    between atoms: C_4  and  C_5 
REMARK    3  A    between atoms: C_5  and  C_6 
ROOT
HETATM    1  C   UNL     1       7.134  27.449  53.670  1.00  0.00     0.286 C 
HETATM    2  N   UNL     1       8.125  28.512  54.161  1.00  0.00    -0.056 N 
HETATM    3  H   UNL     1       9.016  28.402  53.640  1.00  0.00     0.278 HD
HETATM    4  H   UNL     1       7.762  29.444  53.922  1.00  0.00     0.278 HD
HETATM    5  C   UNL     1       8.454  28.444  55.630  1.00  0.00     0.209 C 
HETATM    6  C   UNL     1       7.148  28.386  56.444  1.00  0.00     0.115 C 
HETATM    7  N   UNL     1       6.320  27.268  56.026  1.00  0.00    -0.353 N 
HETATM    8  C   UNL     1       6.122  26.940  54.711  1.00  0.00     0.249 C 
HETATM    9  O   UNL     1       5.174  26.228  54.393  1.00  0.00    -0.271 OA
HETATM   10  C   UNL     1       9.300  29.651  56.021  1.00  0.00     0.035 C 
HETATM   11  C   UNL     1       9.615  29.613  57.517  1.00  0.00     0.002 C 
HETATM   12  C   UNL     1       8.352  29.486  58.370  1.00  0.00     0.002 C 
HETATM   13  C   UNL     1       7.471  28.313  57.937  1.00  0.00     0.027 C 
HETATM   14  H   UNL     1       5.563  26.959  56.634  1.00  0.00     0.163 HD
ENDROOT
BRANCH   1  15
HETATM   15  C   UNL     1       7.819  26.292  52.934  1.00  0.00     0.146 C 
BRANCH  15  16
HETATM   16  C   UNL     1       6.823  25.384  52.281  1.00  0.00     0.224 C 
HETATM   17  N   UNL     1       6.654  24.068  52.530  1.00  0.00    -0.327 N 
HETATM   18  H   UNL     1       5.894  23.708  51.956  1.00  0.00     0.169 HD
HETATM   19  O   UNL     1       6.168  25.876  51.345  1.00  0.00    -0.273 OA
BRANCH  17  20
HETATM   20  C   UNL     1       7.248  23.097  53.357  1.00  0.00     0.034 A 
HETATM   21  C   UNL     1       7.899  21.938  52.946  1.00  0.00     0.031 A 
HETATM   22  C   UNL     1       8.422  21.034  53.885  1.00  0.00     0.026 A 
HETATM   23  C   UNL     1       8.303  21.287  55.247  1.00  0.00     0.034 A 
HETATM   24  C   UNL     1       7.667  22.442  55.680  1.00  0.00     0.026 A 
HETATM   25 CL   UNL     1       8.940  20.173  56.387  1.00  0.00    -0.084 Cl
HETATM   26  C   UNL     1       7.146  23.338  54.740  1.00  0.00     0.031 A 
ENDBRANCH  17  20
ENDBRANCH  15  16
ENDBRANCH   1  15
TORSDOF 3
ENDMDL
MODEL 5
REMARK VINA RESULT:      -8.0      1.869      2.310
REMARK  3 active torsions:
REMARK  status: ('A' for Active; 'I' for Inactive)
REMARK    1  A    between atoms: C_2  and  N_3 
REMARK       I    between atoms: N_3  and  C_4 
REMARK    2  A    between atoms: C_4  and  C_5 
REMARK    3  A    between atoms: C_5  and  C_6 
ROOT
HETATM    1  C   UNL     1       7.746  25.343  55.769  1.00  0.00     0.286 C 
HETATM    2  N   UNL     1       7.894  24.337  54.621  1.00  0.00    -0.056 N 
HETATM    3  H   UNL     1       7.193  24.562  53.889  1.00  0.00     0.278 HD
HETATM    4  H   UNL     1       8.817  24.458  54.186  1.00  0.00     0.278 HD
HETATM    5  C   UNL     1       7.687  22.895  55.010  1.00  0.00     0.209 C 
HETATM    6  C   UNL     1       8.553  22.569  56.241  1.00  0.00     0.115 C 
HETATM    7  N   UNL     1       8.259  23.470  57.341  1.00  0.00    -0.353 N 
HETATM    8  C   UNL     1       8.090  24.819  57.173  1.00  0.00     0.249 C 
HETATM    9  O   UNL     1       8.182  25.572  58.138  1.00  0.00    -0.271 OA
HETATM   10  C   UNL     1       8.034  21.993  53.831  1.00  0.00     0.035 C 
HETATM   11  C   UNL     1       7.860  20.524  54.219  1.00  0.00     0.002 C 
HETATM   12  C   UNL     1       8.648  20.164  55.479  1.00  0.00     0.002 C 
HETATM   13  C   UNL     1       8.348  21.108  56.645  1.00  0.00     0.027 C 
HETATM   14  H   UNL     1       8.562  23.218  58.281  1.00  0.00     0.163 HD
ENDROOT
BRANCH   1  15
HETATM   15  C   UNL     1       6.397  26.071  55.753  1.00  0.00     0.146 C 
BRANCH  15  16
HETATM   16  C   UNL     1       6.327  27.085  54.653  1.00  0.00     0.224 C 
HETATM   17  N   UNL     1       5.950  28.375  54.776  1.00  0.00    -0.327 N 
HETATM   18  H   UNL     1       6.015  28.836  53.871  1.00  0.00     0.169 HD
HETATM   19  O   UNL     1       6.536  26.659  53.504  1.00  0.00    -0.273 OA
BRANCH  17  20
HETATM   20  C   UNL     1       5.498  29.217  55.809  1.00  0.00     0.034 A 
HETATM   21  C   UNL     1       6.278  29.825  56.789  1.00  0.00     0.031 A 
HETATM   22  C   UNL     1       5.690  30.620  57.786  1.00  0.00     0.026 A 
HETATM   23  C   UNL     1       4.315  30.820  57.807  1.00  0.00     0.034 A 
HETATM   24  C   UNL     1       3.519  30.232  56.834  1.00  0.00     0.026 A 
HETATM   25 CL   UNL     1       3.605  31.788  59.034  1.00  0.00    -0.084 Cl
HETATM   26  C   UNL     1       4.109  29.439  55.844  1.00  0.00     0.031 A 
ENDBRANCH  17  20
ENDBRANCH  15  16
ENDBRANCH   1  15
TORSDOF 3
ENDMDL
MODEL 6
REMARK VINA RESULT:      -7.9      3.599      4.325
REMARK  3 active torsions:
REMARK  status: ('A' for Active; 'I' for Inactive)
REMARK    1  A    between atoms: C_2  and  N_3 
REMARK       I    between atoms: N_3  and  C_4 
REMARK    2  A    between atoms: C_4  and  C_5 
REMARK    3  A    between atoms: C_5  and  C_6 
ROOT
HETATM    1  C   UNL     1       7.500  25.592  52.794  1.00  0.00     0.286 C 
HETATM    2  N   UNL     1       7.953  24.193  52.358  1.00  0.00    -0.056 N 
HETATM    3  H   UNL     1       7.543  23.986  51.427  1.00  0.00     0.278 HD
HETATM    4  H   UNL     1       8.973  24.195  52.232  1.00  0.00     0.278 HD
HETATM    5  C   UNL     1       7.546  23.076  53.284  1.00  0.00     0.209 C 
HETATM    6  C   UNL     1       7.943  23.438  54.727  1.00  0.00     0.115 C 
HETATM    7  N   UNL     1       7.360  24.707  55.127  1.00  0.00    -0.353 N 
HETATM    8  C   UNL     1       7.336  25.805  54.308  1.00  0.00     0.249 C 
HETATM    9  O   UNL     1       7.154  26.921  54.785  1.00  0.00    -0.271 OA
HETATM   10  C   UNL     1       8.203  21.775  52.836  1.00  0.00     0.035 C 
HETATM   11  C   UNL     1       7.825  20.637  53.785  1.00  0.00     0.002 C 
HETATM   12  C   UNL     1       8.137  20.975  55.244  1.00  0.00     0.002 C 
HETATM   13  C   UNL     1       7.531  22.311  55.676  1.00  0.00     0.027 C 
HETATM   14  H   UNL     1       7.326  24.945  56.117  1.00  0.00     0.163 HD
ENDROOT
BRANCH   1  15
HETATM   15  C   UNL     1       6.276  26.090  52.018  1.00  0.00     0.146 C 
BRANCH  15  16
HETATM   16  C   UNL     1       4.996  25.702  52.692  1.00  0.00     0.224 C 
HETATM   17  N   UNL     1       4.094  26.542  53.244  1.00  0.00    -0.327 N 
HETATM   18  H   UNL     1       3.312  26.006  53.614  1.00  0.00     0.169 HD
HETATM   19  O   UNL     1       4.809  24.483  52.847  1.00  0.00    -0.273 OA
BRANCH  17  20
HETATM   20  C   UNL     1       3.970  27.930  53.434  1.00  0.00     0.034 A 
HETATM   21  C   UNL     1       4.208  28.634  54.611  1.00  0.00     0.031 A 
HETATM   22  C   UNL     1       4.014  30.024  54.670  1.00  0.00     0.026 A 
HETATM   23  C   UNL     1       3.584  30.723  53.548  1.00  0.00     0.034 A 
HETATM   24  C   UNL     1       3.349  30.043  52.361  1.00  0.00     0.026 A 
HETATM   25 CL   UNL     1       3.342  32.420  53.633  1.00  0.00    -0.084 Cl
HETATM   26  C   UNL     1       3.543  28.658  52.308  1.00  0.00     0.031 A 
ENDBRANCH  17  20
ENDBRANCH  15  16
ENDBRANCH   1  15
TORSDOF 3
ENDMDL
MODEL 7
REMARK VINA RESULT:      -7.8      4.571      5.997
REMARK  3 active torsions:
REMARK  status: ('A' for Active; 'I' for Inactive)
REMARK    1  A    between atoms: C_2  and  N_3 
REMARK       I    between atoms: N_3  and  C_4 
REMARK    2  A    between atoms: C_4  and  C_5 
REMARK    3  A    between atoms: C_5  and  C_6 
ROOT
HETATM    1  C   UNL     1       7.363  25.881  53.819  1.00  0.00     0.286 C 
HETATM    2  N   UNL     1       7.722  24.646  52.984  1.00  0.00    -0.056 N 
HETATM    3  H   UNL     1       7.165  24.664  52.108  1.00  0.00     0.278 HD
HETATM    4  H   UNL     1       8.709  24.707  52.702  1.00  0.00     0.278 HD
HETATM    5  C   UNL     1       7.455  23.324  53.657  1.00  0.00     0.209 C 
HETATM    6  C   UNL     1       8.083  23.330  55.063  1.00  0.00     0.115 C 
HETATM    7  N   UNL     1       7.589  24.445  55.852  1.00  0.00    -0.353 N 
HETATM    8  C   UNL     1       7.447  25.710  55.345  1.00  0.00     0.249 C 
HETATM    9  O   UNL     1       7.359  26.668  56.107  1.00  0.00    -0.271 OA
HETATM   10  C   UNL     1       8.015  22.193  52.802  1.00  0.00     0.035 C 
HETATM   11  C   UNL     1       7.780  20.846  53.487  1.00  0.00     0.002 C 
HETATM   12  C   UNL     1       8.327  20.822  54.915  1.00  0.00     0.002 C 
HETATM   13  C   UNL     1       7.815  21.993  55.756  1.00  0.00     0.027 C 
HETATM   14  H   UNL     1       7.717  24.431  56.862  1.00  0.00     0.163 HD
ENDROOT
BRANCH   1  15
HETATM   15  C   UNL     1       6.036  26.521  53.395  1.00  0.00     0.146 C 
BRANCH  15  16
HETATM   16  C   UNL     1       5.178  25.563  52.629  1.00  0.00     0.224 C 
HETATM   17  N   UNL     1       4.743  25.714  51.360  1.00  0.00    -0.327 N 
HETATM   18  H   UNL     1       4.194  24.901  51.089  1.00  0.00     0.169 HD
HETATM   19  O   UNL     1       4.742  24.590  53.268  1.00  0.00    -0.273 OA
BRANCH  17  20
HETATM   20  C   UNL     1       4.852  26.687  50.349  1.00  0.00     0.034 A 
HETATM   21  C   UNL     1       5.376  27.970  50.480  1.00  0.00     0.031 A 
HETATM   22  C   UNL     1       5.396  28.855  49.389  1.00  0.00     0.026 A 
HETATM   23  C   UNL     1       4.896  28.460  48.154  1.00  0.00     0.034 A 
HETATM   24  C   UNL     1       4.377  27.182  47.998  1.00  0.00     0.026 A 
HETATM   25 CL   UNL     1       4.918  29.551  46.829  1.00  0.00    -0.084 Cl
HETATM   26  C   UNL     1       4.359  26.305  49.088  1.00  0.00     0.031 A 
ENDBRANCH  17  20
ENDBRANCH  15  16
ENDBRANCH   1  15
TORSDOF 3
ENDMDL
MODEL 8
REMARK VINA RESULT:      -7.8      4.337      7.466
REMARK  3 active torsions:
REMARK  status: ('A' for Active; 'I' for Inactive)
REMARK    1  A    between atoms: C_2  and  N_3 
REMARK       I    between atoms: N_3  and  C_4 
REMARK    2  A    between atoms: C_4  and  C_5 
REMARK    3  A    between atoms: C_5  and  C_6 
ROOT
HETATM    1  C   UNL     1       5.444  27.541  53.437  1.00  0.00     0.286 C 
HETATM    2  N   UNL     1       5.242  26.587  52.253  1.00  0.00    -0.056 N 
HETATM    3  H   UNL     1       6.054  25.942  52.204  1.00  0.00     0.278 HD
HETATM    4  H   UNL     1       4.416  26.002  52.431  1.00  0.00     0.278 HD
HETATM    5  C   UNL     1       5.123  27.260  50.909  1.00  0.00     0.209 C 
HETATM    6  C   UNL     1       4.073  28.383  50.991  1.00  0.00     0.115 C 
HETATM    7  N   UNL     1       4.403  29.332  52.040  1.00  0.00    -0.353 N 
HETATM    8  C   UNL     1       4.844  28.948  53.279  1.00  0.00     0.249 C 
HETATM    9  O   UNL     1       4.785  29.733  54.220  1.00  0.00    -0.271 OA
HETATM   10  C   UNL     1       4.751  26.226  49.852  1.00  0.00     0.035 C 
HETATM   11  C   UNL     1       4.595  26.899  48.487  1.00  0.00     0.002 C 
HETATM   12  C   UNL     1       3.611  28.068  48.530  1.00  0.00     0.002 C 
HETATM   13  C   UNL     1       3.946  29.074  49.632  1.00  0.00     0.027 C 
HETATM   14  H   UNL     1       3.949  30.244  52.041  1.00  0.00     0.163 HD
ENDROOT
BRANCH   1  15
HETATM   15  C   UNL     1       6.899  27.598  53.915  1.00  0.00     0.146 C 
BRANCH  15  16
HETATM   16  C   UNL     1       7.063  26.978  55.268  1.00  0.00     0.224 C 
HETATM   17  N   UNL     1       7.362  25.687  55.527  1.00  0.00    -0.327 N 
HETATM   18  H   UNL     1       7.430  25.549  56.534  1.00  0.00     0.169 HD
HETATM   19  O   UNL     1       6.792  27.706  56.238  1.00  0.00    -0.273 OA
BRANCH  17  20
HETATM   20  C   UNL     1       7.591  24.518  54.778  1.00  0.00     0.034 A 
HETATM   21  C   UNL     1       7.792  24.436  53.403  1.00  0.00     0.031 A 
HETATM   22  C   UNL     1       7.979  23.193  52.776  1.00  0.00     0.026 A 
HETATM   23  C   UNL     1       7.975  22.020  53.523  1.00  0.00     0.034 A 
HETATM   24  C   UNL     1       7.787  22.079  54.896  1.00  0.00     0.026 A 
HETATM   25 CL   UNL     1       8.198  20.506  52.746  1.00  0.00    -0.084 Cl
HETATM   26  C   UNL     1       7.598  23.320  55.516  1.00  0.00     0.031 A 
ENDBRANCH  17  20
ENDBRANCH  15  16
ENDBRANCH   1  15
TORSDOF 3
ENDMDL
MODEL 9
REMARK VINA RESULT:      -7.8      1.714      2.770
REMARK  3 active torsions:
REMARK  status: ('A' for Active; 'I' for Inactive)
REMARK    1  A    between atoms: C_2  and  N_3 
REMARK       I    between atoms: N_3  and  C_4 
REMARK    2  A    between atoms: C_4  and  C_5 
REMARK    3  A    between atoms: C_5  and  C_6 
ROOT
HETATM    1  C   UNL     1       5.711  25.980  55.221  1.00  0.00     0.286 C 
HETATM    2  N   UNL     1       6.676  25.025  55.935  1.00  0.00    -0.056 N 
HETATM    3  H   UNL     1       7.244  25.571  56.611  1.00  0.00     0.278 HD
HETATM    4  H   UNL     1       6.132  24.352  56.489  1.00  0.00     0.278 HD
HETATM    5  C   UNL     1       7.635  24.298  55.028  1.00  0.00     0.209 C 
HETATM    6  C   UNL     1       6.853  23.645  53.874  1.00  0.00     0.115 C 
HETATM    7  N   UNL     1       6.071  24.632  53.149  1.00  0.00    -0.353 N 
HETATM    8  C   UNL     1       5.347  25.612  53.773  1.00  0.00     0.249 C 
HETATM    9  O   UNL     1       4.453  26.194  53.165  1.00  0.00    -0.271 OA
HETATM   10  C   UNL     1       8.410  23.258  55.832  1.00  0.00     0.035 C 
HETATM   11  C   UNL     1       9.365  22.489  54.920  1.00  0.00     0.002 C 
HETATM   12  C   UNL     1       8.647  21.877  53.717  1.00  0.00     0.002 C 
HETATM   13  C   UNL     1       7.819  22.906  52.946  1.00  0.00     0.027 C 
HETATM   14  H   UNL     1       5.713  24.396  52.224  1.00  0.00     0.163 HD
ENDROOT
BRANCH   1  15
HETATM   15  C   UNL     1       6.130  27.450  55.342  1.00  0.00     0.146 C 
BRANCH  15  16
HETATM   16  C   UNL     1       7.470  27.697  54.722  1.00  0.00     0.224 C 
HETATM   17  N   UNL     1       8.460  28.461  55.231  1.00  0.00    -0.327 N 
HETATM   18  H   UNL     1       9.265  28.435  54.608  1.00  0.00     0.169 HD
HETATM   19  O   UNL     1       7.637  27.235  53.580  1.00  0.00    -0.273 OA
BRANCH  17  20
HETATM   20  C   UNL     1       8.651  29.265  56.370  1.00  0.00     0.034 A 
HETATM   21  C   UNL     1       7.671  29.696  57.259  1.00  0.00     0.031 A 
HETATM   22  C   UNL     1       7.998  30.526  58.344  1.00  0.00     0.026 A 
HETATM   23  C   UNL     1       9.312  30.927  58.552  1.00  0.00     0.034 A 
HETATM   24  C   UNL     1      10.308  30.501  57.684  1.00  0.00     0.026 A 
HETATM   25 CL   UNL     1       9.701  31.947  59.877  1.00  0.00    -0.084 Cl
HETATM   26  C   UNL     1       9.977  29.675  56.604  1.00  0.00     0.031 A 
ENDBRANCH  17  20
ENDBRANCH  15  16
ENDBRANCH   1  15
TORSDOF 3
ENDMDL
MODEL 10
REMARK VINA RESULT:      -7.8      3.314      7.370
REMARK  3 active torsions:
REMARK  status: ('A' for Active; 'I' for Inactive)
REMARK    1  A    between atoms: C_2  and  N_3 
REMARK       I    between atoms: N_3  and  C_4 
REMARK    2  A    between atoms: C_4  and  C_5 
REMARK    3  A    between atoms: C_5  and  C_6 
ROOT
HETATM    1  C   UNL     1       6.380  27.351  56.115  1.00  0.00     0.286 C 
HETATM    2  N   UNL     1       5.156  28.062  55.525  1.00  0.00    -0.056 N 
HETATM    3  H   UNL     1       5.209  28.012  54.490  1.00  0.00     0.278 HD
HETATM    4  H   UNL     1       4.307  27.549  55.797  1.00  0.00     0.278 HD
HETATM    5  C   UNL     1       5.025  29.516  55.897  1.00  0.00     0.209 C 
HETATM    6  C   UNL     1       5.158  29.668  57.424  1.00  0.00     0.115 C 
HETATM    7  N   UNL     1       6.408  29.101  57.899  1.00  0.00    -0.353 N 
HETATM    8  C   UNL     1       6.897  27.900  57.455  1.00  0.00     0.249 C 
HETATM    9  O   UNL     1       7.751  27.308  58.108  1.00  0.00    -0.271 OA
HETATM   10  C   UNL     1       3.688  30.054  55.400  1.00  0.00     0.035 C 
HETATM   11  C   UNL     1       3.527  31.521  55.797  1.00  0.00     0.002 C 
HETATM   12  C   UNL     1       3.717  31.736  57.299  1.00  0.00     0.002 C 
HETATM   13  C   UNL     1       5.030  31.142  57.812  1.00  0.00     0.027 C 
HETATM   14  H   UNL     1       6.742  29.351  58.828  1.00  0.00     0.163 HD
ENDROOT
BRANCH   1  15
HETATM   15  C   UNL     1       7.515  27.178  55.100  1.00  0.00     0.146 C 
BRANCH  15  16
HETATM   16  C   UNL     1       7.000  26.748  53.761  1.00  0.00     0.224 C 
HETATM   17  N   UNL     1       6.928  25.481  53.300  1.00  0.00    -0.327 N 
HETATM   18  H   UNL     1       6.521  25.482  52.367  1.00  0.00     0.169 HD
HETATM   19  O   UNL     1       6.715  27.661  52.967  1.00  0.00    -0.273 OA
BRANCH  17  20
HETATM   20  C   UNL     1       7.268  24.199  53.769  1.00  0.00     0.034 A 
HETATM   21  C   UNL     1       7.111  23.718  55.065  1.00  0.00     0.031 A 
HETATM   22  C   UNL     1       7.525  22.419  55.406  1.00  0.00     0.026 A 
HETATM   23  C   UNL     1       8.094  21.588  54.449  1.00  0.00     0.034 A 
HETATM   24  C   UNL     1       8.252  22.043  53.147  1.00  0.00     0.026 A 
HETATM   25 CL   UNL     1       8.602  20.005  54.877  1.00  0.00    -0.084 Cl
HETATM   26  C   UNL     1       7.839  23.338  52.813  1.00  0.00     0.031 A 
ENDBRANCH  17  20
ENDBRANCH  15  16
ENDBRANCH   1  15
TORSDOF 3
ENDMDL
