MODEL 1
REMARK VINA RESULT:      -9.8      0.000      0.000
REMARK  4 active torsions:
REMARK  status: ('A' for Active; 'I' for Inactive)
REMARK    1  A    between atoms: C_6  and  C_7 
REMARK    2  A    between atoms: C_7  and  C_8 
REMARK       I    between atoms: C_8  and  N_9 
REMARK    3  A    between atoms: N_9  and  C_10 
REMARK    4  A    between atoms: C_17  and  C_18 
REMARK       I    between atoms: C_18  and  N_19 
ROOT
HETATM    1  C   UNL     1       5.701  26.667  55.559  1.00  0.00     0.035 A 
HETATM    2  C   UNL     1       5.543  28.044  55.703  1.00  0.00     0.046 A 
HETATM    3  C   UNL     1       6.199  28.725  56.753  1.00  0.00     0.030 A 
HETATM    4  C   UNL     1       7.029  28.008  57.603  1.00  0.00     0.063 A 
HETATM    5  N   UNL     1       7.513  28.924  58.496  1.00  0.00    -0.277 N 
HETATM    6  H   UNL     1       8.151  28.754  59.265  1.00  0.00     0.189 HD
HETATM    7  N   UNL     1       7.067  30.177  58.301  1.00  0.00    -0.168 NA
HETATM    8  C   UNL     1       6.251  30.068  57.230  1.00  0.00     0.156 A 
HETATM    9  C   UNL     1       7.248  26.638  57.469  1.00  0.00     0.034 A 
HETATM   10  C   UNL     1       6.568  25.988  56.429  1.00  0.00     0.032 A 
ENDROOT
BRANCH   1  11
HETATM   11  N   UNL     1       5.068  25.886  54.581  1.00  0.00    -0.326 N 
HETATM   12  C   UNL     1       5.479  24.958  53.655  1.00  0.00     0.235 C 
HETATM   13  O   UNL     1       4.604  24.411  52.979  1.00  0.00    -0.272 OA
HETATM   14  H   UNL     1       4.070  26.029  54.482  1.00  0.00     0.169 HD
BRANCH  12  15
HETATM   15  C   UNL     1       6.925  24.634  53.357  1.00  0.00     0.068 A 
HETATM   16  C   UNL     1       7.938  25.745  53.084  1.00  0.00     0.026 A 
HETATM   17  C   UNL     1       7.364  25.015  51.923  1.00  0.00     0.026 A 
BRANCH  15  18
HETATM   18  C   UNL     1       7.399  23.229  53.779  1.00  0.00    -0.039 A 
HETATM   19  C   UNL     1       7.613  22.860  55.119  1.00  0.00     0.032 A 
HETATM   20  C   UNL     1       8.054  21.575  55.455  1.00  0.00     0.034 A 
HETATM   21  C   UNL     1       8.302  20.627  54.468  1.00  0.00     0.024 A 
HETATM   22 CL   UNL     1       8.294  21.160  57.109  1.00  0.00    -0.084 Cl
HETATM   23  C   UNL     1       8.107  20.966  53.133  1.00  0.00     0.002 A 
HETATM   24  C   UNL     1       7.661  22.247  52.801  1.00  0.00     0.008 A 
ENDBRANCH  15  18
ENDBRANCH  12  15
ENDBRANCH   1  11
BRANCH   8  25
HETATM   25  C   UNL     1       5.530  31.229  56.690  1.00  0.00     0.270 C 
HETATM   26  N   UNL     1       5.358  31.202  55.334  1.00  0.00    -0.365 N 
HETATM   27  H   UNL     1       5.728  30.417  54.811  1.00  0.00     0.159 HD
HETATM   28  H   UNL     1       4.875  31.959  54.875  1.00  0.00     0.159 HD
HETATM   29  O   UNL     1       5.115  32.160  57.371  1.00  0.00    -0.266 OA
ENDBRANCH   8  25
TORSDOF 4
ENDMDL
MODEL 2
REMARK VINA RESULT:      -9.7      3.203      4.847
REMARK  4 active torsions:
REMARK  status: ('A' for Active; 'I' for Inactive)
REMARK    1  A    between atoms: C_6  and  C_7 
REMARK    2  A    between atoms: C_7  and  C_8 
REMARK       I    between atoms: C_8  and  N_9 
REMARK    3  A    between atoms: N_9  and  C_10 
REMARK    4  A    between atoms: C_17  and  C_18 
REMARK       I    between atoms: C_18  and  N_19 
ROOT
HETATM    1  C   UNL     1       4.831  26.430  53.475  1.00  0.00     0.035 A 
HETATM    2  C   UNL     1       4.964  27.643  52.801  1.00  0.00     0.046 A 
HETATM    3  C   UNL     1       5.138  27.658  51.400  1.00  0.00     0.030 A 
HETATM    4  C   UNL     1       5.133  26.454  50.710  1.00  0.00     0.063 A 
HETATM    5  N   UNL     1       5.317  26.787  49.396  1.00  0.00    -0.277 N 
HETATM    6  H   UNL     1       5.367  26.157  48.604  1.00  0.00     0.189 HD
HETATM    7  N   UNL     1       5.444  28.107  49.172  1.00  0.00    -0.168 NA
HETATM    8  C   UNL     1       5.339  28.656  50.402  1.00  0.00     0.156 A 
HETATM    9  C   UNL     1       4.962  25.222  51.339  1.00  0.00     0.034 A 
HETATM   10  C   UNL     1       4.809  25.240  52.732  1.00  0.00     0.032 A 
ENDROOT
BRANCH   1  11
HETATM   11  N   UNL     1       4.693  26.296  54.865  1.00  0.00    -0.326 N 
HETATM   12  C   UNL     1       5.556  26.118  55.919  1.00  0.00     0.235 C 
HETATM   13  O   UNL     1       5.066  26.103  57.051  1.00  0.00    -0.272 OA
HETATM   14  H   UNL     1       3.742  26.300  55.215  1.00  0.00     0.169 HD
BRANCH  12  15
HETATM   15  C   UNL     1       7.037  25.853  55.773  1.00  0.00     0.068 A 
HETATM   16  C   UNL     1       8.056  26.601  56.633  1.00  0.00     0.026 A 
HETATM   17  C   UNL     1       7.836  27.066  55.239  1.00  0.00     0.026 A 
BRANCH  15  18
HETATM   18  C   UNL     1       7.418  24.528  55.082  1.00  0.00    -0.039 A 
HETATM   19  C   UNL     1       7.344  23.278  55.722  1.00  0.00     0.032 A 
HETATM   20  C   UNL     1       7.710  22.102  55.058  1.00  0.00     0.034 A 
HETATM   21  C   UNL     1       8.167  22.139  53.745  1.00  0.00     0.024 A 
HETATM   22 CL   UNL     1       7.595  20.590  55.874  1.00  0.00    -0.084 Cl
HETATM   23  C   UNL     1       8.258  23.362  53.089  1.00  0.00     0.002 A 
HETATM   24  C   UNL     1       7.886  24.534  53.752  1.00  0.00     0.008 A 
ENDBRANCH  15  18
ENDBRANCH  12  15
ENDBRANCH   1  11
BRANCH   8  25
HETATM   25  C   UNL     1       5.446  30.107  50.608  1.00  0.00     0.270 C 
HETATM   26  N   UNL     1       4.380  30.660  51.261  1.00  0.00    -0.365 N 
HETATM   27  H   UNL     1       3.615  30.059  51.545  1.00  0.00     0.159 HD
HETATM   28  H   UNL     1       4.364  31.652  51.446  1.00  0.00     0.159 HD
HETATM   29  O   UNL     1       6.391  30.790  50.229  1.00  0.00    -0.266 OA
ENDBRANCH   8  25
TORSDOF 4
ENDMDL
MODEL 3
REMARK VINA RESULT:      -9.5      2.858      3.877
REMARK  4 active torsions:
REMARK  status: ('A' for Active; 'I' for Inactive)
REMARK    1  A    between atoms: C_6  and  C_7 
REMARK    2  A    between atoms: C_7  and  C_8 
REMARK       I    between atoms: C_8  and  N_9 
REMARK    3  A    between atoms: N_9  and  C_10 
REMARK    4  A    between atoms: C_17  and  C_18 
REMARK       I    between atoms: C_18  and  N_19 
ROOT
HETATM    1  C   UNL     1       7.383  28.049  56.987  1.00  0.00     0.035 A 
HETATM    2  C   UNL     1       7.781  28.862  58.046  1.00  0.00     0.046 A 
HETATM    3  C   UNL     1       8.858  29.761  57.881  1.00  0.00     0.030 A 
HETATM    4  C   UNL     1       9.478  29.845  56.642  1.00  0.00     0.063 A 
HETATM    5  N   UNL     1      10.462  30.784  56.791  1.00  0.00    -0.277 N 
HETATM    6  H   UNL     1      11.118  31.104  56.087  1.00  0.00     0.189 HD
HETATM    7  N   UNL     1      10.537  31.317  58.023  1.00  0.00    -0.168 NA
HETATM    8  C   UNL     1       9.554  30.691  58.708  1.00  0.00     0.156 A 
HETATM    9  C   UNL     1       9.085  29.081  55.545  1.00  0.00     0.034 A 
HETATM   10  C   UNL     1       8.024  28.186  55.747  1.00  0.00     0.032 A 
ENDROOT
BRANCH   1  11
HETATM   11  N   UNL     1       6.355  27.096  57.051  1.00  0.00    -0.326 N 
HETATM   12  C   UNL     1       6.289  25.725  56.989  1.00  0.00     0.235 C 
HETATM   13  O   UNL     1       5.181  25.207  57.149  1.00  0.00    -0.272 OA
HETATM   14  H   UNL     1       5.416  27.466  57.138  1.00  0.00     0.169 HD
BRANCH  12  15
HETATM   15  C   UNL     1       7.461  24.829  56.653  1.00  0.00     0.068 A 
HETATM   16  C   UNL     1       8.203  24.065  57.749  1.00  0.00     0.026 A 
HETATM   17  C   UNL     1       8.807  25.322  57.236  1.00  0.00     0.026 A 
BRANCH  15  18
HETATM   18  C   UNL     1       7.566  24.387  55.180  1.00  0.00    -0.039 A 
HETATM   19  C   UNL     1       7.723  23.045  54.789  1.00  0.00     0.032 A 
HETATM   20  C   UNL     1       7.825  22.691  53.440  1.00  0.00     0.034 A 
HETATM   21  C   UNL     1       7.783  23.662  52.444  1.00  0.00     0.024 A 
HETATM   22 CL   UNL     1       8.006  21.036  53.003  1.00  0.00    -0.084 Cl
HETATM   23  C   UNL     1       7.637  24.998  52.801  1.00  0.00     0.002 A 
HETATM   24  C   UNL     1       7.528  25.348  54.149  1.00  0.00     0.008 A 
ENDBRANCH  15  18
ENDBRANCH  12  15
ENDBRANCH   1  11
BRANCH   8  25
HETATM   25  C   UNL     1       9.305  30.974  60.128  1.00  0.00     0.270 C 
HETATM   26  N   UNL     1       9.155  32.302  60.417  1.00  0.00    -0.365 N 
HETATM   27  H   UNL     1       9.227  32.976  59.664  1.00  0.00     0.159 HD
HETATM   28  H   UNL     1       8.982  32.592  61.367  1.00  0.00     0.159 HD
HETATM   29  O   UNL     1       9.242  30.116  61.001  1.00  0.00    -0.266 OA
ENDBRANCH   8  25
TORSDOF 4
ENDMDL
MODEL 4
REMARK VINA RESULT:      -9.5      2.489      3.636
REMARK  4 active torsions:
REMARK  status: ('A' for Active; 'I' for Inactive)
REMARK    1  A    between atoms: C_6  and  C_7 
REMARK    2  A    between atoms: C_7  and  C_8 
REMARK       I    between atoms: C_8  and  N_9 
REMARK    3  A    between atoms: N_9  and  C_10 
REMARK    4  A    between atoms: C_17  and  C_18 
REMARK       I    between atoms: C_18  and  N_19 
ROOT
HETATM    1  C   UNL     1       7.666  28.201  57.641  1.00  0.00     0.035 A 
HETATM    2  C   UNL     1       7.560  29.392  58.357  1.00  0.00     0.046 A 
HETATM    3  C   UNL     1       8.628  30.316  58.354  1.00  0.00     0.030 A 
HETATM    4  C   UNL     1       9.758  30.034  57.599  1.00  0.00     0.063 A 
HETATM    5  N   UNL     1      10.599  31.095  57.793  1.00  0.00    -0.277 N 
HETATM    6  H   UNL     1      11.521  31.229  57.394  1.00  0.00     0.189 HD
HETATM    7  N   UNL     1      10.113  32.044  58.613  1.00  0.00    -0.168 NA
HETATM    8  C   UNL     1       8.898  31.573  58.970  1.00  0.00     0.156 A 
HETATM    9  C   UNL     1       9.888  28.874  56.836  1.00  0.00     0.034 A 
HETATM   10  C   UNL     1       8.818  27.970  56.874  1.00  0.00     0.032 A 
ENDROOT
BRANCH   1  11
HETATM   11  N   UNL     1       6.686  27.197  57.606  1.00  0.00    -0.326 N 
HETATM   12  C   UNL     1       6.035  26.503  56.616  1.00  0.00     0.235 C 
HETATM   13  O   UNL     1       5.251  25.619  56.970  1.00  0.00    -0.272 OA
HETATM   14  H   UNL     1       6.325  26.903  58.506  1.00  0.00     0.169 HD
BRANCH  12  15
HETATM   15  C   UNL     1       6.152  26.811  55.140  1.00  0.00     0.068 A 
HETATM   16  C   UNL     1       6.069  28.249  54.629  1.00  0.00     0.026 A 
HETATM   17  C   UNL     1       4.859  27.393  54.522  1.00  0.00     0.026 A 
BRANCH  15  18
HETATM   18  C   UNL     1       6.791  25.707  54.273  1.00  0.00    -0.039 A 
HETATM   19  C   UNL     1       6.923  24.374  54.700  1.00  0.00     0.032 A 
HETATM   20  C   UNL     1       7.520  23.408  53.882  1.00  0.00     0.034 A 
HETATM   21  C   UNL     1       8.009  23.743  52.625  1.00  0.00     0.024 A 
HETATM   22 CL   UNL     1       7.653  21.783  54.438  1.00  0.00    -0.084 Cl
HETATM   23  C   UNL     1       7.900  25.056  52.179  1.00  0.00     0.002 A 
HETATM   24  C   UNL     1       7.298  26.017  52.994  1.00  0.00     0.008 A 
ENDBRANCH  15  18
ENDBRANCH  12  15
ENDBRANCH   1  11
BRANCH   8  25
HETATM   25  C   UNL     1       8.028  32.314  59.894  1.00  0.00     0.270 C 
HETATM   26  N   UNL     1       8.559  32.497  61.139  1.00  0.00    -0.365 N 
HETATM   27  H   UNL     1       9.480  32.122  61.337  1.00  0.00     0.159 HD
HETATM   28  H   UNL     1       8.032  32.994  61.841  1.00  0.00     0.159 HD
HETATM   29  O   UNL     1       6.912  32.733  59.603  1.00  0.00    -0.266 OA
ENDBRANCH   8  25
TORSDOF 4
ENDMDL
MODEL 5
REMARK VINA RESULT:      -9.4      1.846      2.824
REMARK  4 active torsions:
REMARK  status: ('A' for Active; 'I' for Inactive)
REMARK    1  A    between atoms: C_6  and  C_7 
REMARK    2  A    between atoms: C_7  and  C_8 
REMARK       I    between atoms: C_8  and  N_9 
REMARK    3  A    between atoms: N_9  and  C_10 
REMARK    4  A    between atoms: C_17  and  C_18 
REMARK       I    between atoms: C_18  and  N_19 
ROOT
HETATM    1  C   UNL     1       4.777  27.321  54.064  1.00  0.00     0.035 A 
HETATM    2  C   UNL     1       5.733  27.374  55.076  1.00  0.00     0.046 A 
HETATM    3  C   UNL     1       6.009  28.598  55.724  1.00  0.00     0.030 A 
HETATM    4  C   UNL     1       5.287  29.726  55.364  1.00  0.00     0.063 A 
HETATM    5  N   UNL     1       5.769  30.734  56.153  1.00  0.00    -0.277 N 
HETATM    6  H   UNL     1       5.473  31.703  56.162  1.00  0.00     0.189 HD
HETATM    7  N   UNL     1       6.748  30.358  56.996  1.00  0.00    -0.168 NA
HETATM    8  C   UNL     1       6.909  29.041  56.738  1.00  0.00     0.156 A 
HETATM    9  C   UNL     1       4.293  29.709  54.387  1.00  0.00     0.034 A 
HETATM   10  C   UNL     1       4.055  28.483  53.750  1.00  0.00     0.032 A 
ENDROOT
BRANCH   1  11
HETATM   11  N   UNL     1       4.451  26.172  53.328  1.00  0.00    -0.326 N 
HETATM   12  C   UNL     1       5.143  25.076  52.871  1.00  0.00     0.235 C 
HETATM   13  O   UNL     1       4.494  24.203  52.289  1.00  0.00    -0.272 OA
HETATM   14  H   UNL     1       3.490  26.108  53.014  1.00  0.00     0.169 HD
BRANCH  12  15
HETATM   15  C   UNL     1       6.644  24.917  52.959  1.00  0.00     0.068 A 
HETATM   16  C   UNL     1       7.574  26.107  52.721  1.00  0.00     0.026 A 
HETATM   17  C   UNL     1       7.372  25.139  51.612  1.00  0.00     0.026 A 
BRANCH  15  18
HETATM   18  C   UNL     1       7.144  23.672  53.718  1.00  0.00    -0.039 A 
HETATM   19  C   UNL     1       7.611  22.514  53.072  1.00  0.00     0.032 A 
HETATM   20  C   UNL     1       8.046  21.403  53.802  1.00  0.00     0.034 A 
HETATM   21  C   UNL     1       8.017  21.409  55.193  1.00  0.00     0.024 A 
HETATM   22 CL   UNL     1       8.621  20.007  52.973  1.00  0.00    -0.084 Cl
HETATM   23  C   UNL     1       7.552  22.538  55.860  1.00  0.00     0.002 A 
HETATM   24  C   UNL     1       7.126  23.649  55.128  1.00  0.00     0.008 A 
ENDBRANCH  15  18
ENDBRANCH  12  15
ENDBRANCH   1  11
BRANCH   8  25
HETATM   25  C   UNL     1       7.916  28.237  57.444  1.00  0.00     0.270 C 
HETATM   26  N   UNL     1       9.206  28.624  57.212  1.00  0.00    -0.365 N 
HETATM   27  H   UNL     1       9.376  29.407  56.591  1.00  0.00     0.159 HD
HETATM   28  H   UNL     1       9.965  28.128  57.654  1.00  0.00     0.159 HD
HETATM   29  O   UNL     1       7.652  27.288  58.175  1.00  0.00    -0.266 OA
ENDBRANCH   8  25
TORSDOF 4
ENDMDL
MODEL 6
REMARK VINA RESULT:      -9.2      2.697      4.806
REMARK  4 active torsions:
REMARK  status: ('A' for Active; 'I' for Inactive)
REMARK    1  A    between atoms: C_6  and  C_7 
REMARK    2  A    between atoms: C_7  and  C_8 
REMARK       I    between atoms: C_8  and  N_9 
REMARK    3  A    between atoms: N_9  and  C_10 
REMARK    4  A    between atoms: C_17  and  C_18 
REMARK       I    between atoms: C_18  and  N_19 
ROOT
HETATM    1  C   UNL     1       4.774  27.406  54.995  1.00  0.00     0.035 A 
HETATM    2  C   UNL     1       4.926  27.080  53.649  1.00  0.00     0.046 A 
HETATM    3  C   UNL     1       4.975  28.101  52.675  1.00  0.00     0.030 A 
HETATM    4  C   UNL     1       4.911  29.425  53.086  1.00  0.00     0.063 A 
HETATM    5  N   UNL     1       4.984  30.166  51.939  1.00  0.00    -0.277 N 
HETATM    6  H   UNL     1       4.966  31.176  51.858  1.00  0.00     0.189 HD
HETATM    7  N   UNL     1       5.088  29.437  50.814  1.00  0.00    -0.168 NA
HETATM    8  C   UNL     1       5.079  28.159  51.254  1.00  0.00     0.156 A 
HETATM    9  C   UNL     1       4.801  29.797  54.425  1.00  0.00     0.034 A 
HETATM   10  C   UNL     1       4.736  28.759  55.366  1.00  0.00     0.032 A 
ENDROOT
BRANCH   1  11
HETATM   11  N   UNL     1       4.673  26.475  56.039  1.00  0.00    -0.326 N 
HETATM   12  C   UNL     1       5.558  25.689  56.736  1.00  0.00     0.235 C 
HETATM   13  O   UNL     1       5.104  25.013  57.663  1.00  0.00    -0.272 OA
HETATM   14  H   UNL     1       3.734  26.286  56.372  1.00  0.00     0.169 HD
BRANCH  12  15
HETATM   15  C   UNL     1       7.022  25.537  56.386  1.00  0.00     0.068 A 
HETATM   16  C   UNL     1       8.110  25.824  57.420  1.00  0.00     0.026 A 
HETATM   17  C   UNL     1       7.808  26.869  56.408  1.00  0.00     0.026 A 
BRANCH  15  18
HETATM   18  C   UNL     1       7.328  24.675  55.145  1.00  0.00    -0.039 A 
HETATM   19  C   UNL     1       7.381  23.270  55.177  1.00  0.00     0.032 A 
HETATM   20  C   UNL     1       7.673  22.530  54.027  1.00  0.00     0.034 A 
HETATM   21  C   UNL     1       7.931  23.166  52.817  1.00  0.00     0.024 A 
HETATM   22 CL   UNL     1       7.717  20.810  54.107  1.00  0.00    -0.084 Cl
HETATM   23  C   UNL     1       7.895  24.555  52.756  1.00  0.00     0.002 A 
HETATM   24  C   UNL     1       7.596  25.292  53.904  1.00  0.00     0.008 A 
ENDBRANCH  15  18
ENDBRANCH  12  15
ENDBRANCH   1  11
BRANCH   8  25
HETATM   25  C   UNL     1       5.156  27.025  50.323  1.00  0.00     0.270 C 
HETATM   26  N   UNL     1       5.389  27.380  49.024  1.00  0.00    -0.365 N 
HETATM   27  H   UNL     1       5.485  28.363  48.797  1.00  0.00     0.159 HD
HETATM   28  H   UNL     1       5.455  26.667  48.313  1.00  0.00     0.159 HD
HETATM   29  O   UNL     1       5.016  25.852  50.653  1.00  0.00    -0.266 OA
ENDBRANCH   8  25
TORSDOF 4
ENDMDL
MODEL 7
REMARK VINA RESULT:      -8.7      8.090     12.470
REMARK  4 active torsions:
REMARK  status: ('A' for Active; 'I' for Inactive)
REMARK    1  A    between atoms: C_6  and  C_7 
REMARK    2  A    between atoms: C_7  and  C_8 
REMARK       I    between atoms: C_8  and  N_9 
REMARK    3  A    between atoms: N_9  and  C_10 
REMARK    4  A    between atoms: C_17  and  C_18 
REMARK       I    between atoms: C_18  and  N_19 
ROOT
HETATM    1  C   UNL     1       5.464  32.747  63.165  1.00  0.00     0.035 A 
HETATM    2  C   UNL     1       5.856  32.218  61.937  1.00  0.00     0.046 A 
HETATM    3  C   UNL     1       7.227  32.058  61.641  1.00  0.00     0.030 A 
HETATM    4  C   UNL     1       8.166  32.397  62.605  1.00  0.00     0.063 A 
HETATM    5  N   UNL     1       9.382  32.134  62.038  1.00  0.00    -0.277 N 
HETATM    6  H   UNL     1      10.296  32.263  62.456  1.00  0.00     0.189 HD
HETATM    7  N   UNL     1       9.315  31.654  60.783  1.00  0.00    -0.168 NA
HETATM    8  C   UNL     1       7.990  31.606  60.525  1.00  0.00     0.156 A 
HETATM    9  C   UNL     1       7.816  32.891  63.861  1.00  0.00     0.034 A 
HETATM   10  C   UNL     1       6.447  33.055  64.117  1.00  0.00     0.032 A 
ENDROOT
BRANCH   1  11
HETATM   11  N   UNL     1       4.135  32.986  63.547  1.00  0.00    -0.326 N 
HETATM   12  C   UNL     1       3.152  33.867  63.166  1.00  0.00     0.235 C 
HETATM   13  O   UNL     1       2.046  33.741  63.697  1.00  0.00    -0.272 OA
HETATM   14  H   UNL     1       3.784  32.409  64.303  1.00  0.00     0.169 HD
BRANCH  12  15
HETATM   15  C   UNL     1       3.365  35.022  62.213  1.00  0.00     0.068 A 
HETATM   16  C   UNL     1       2.382  35.289  61.073  1.00  0.00     0.026 A 
HETATM   17  C   UNL     1       3.650  34.581  60.757  1.00  0.00     0.026 A 
BRANCH  15  18
HETATM   18  C   UNL     1       4.314  36.132  62.705  1.00  0.00    -0.039 A 
HETATM   19  C   UNL     1       5.203  36.816  61.857  1.00  0.00     0.032 A 
HETATM   20  C   UNL     1       6.055  37.810  62.350  1.00  0.00     0.034 A 
HETATM   21  C   UNL     1       6.053  38.143  63.700  1.00  0.00     0.024 A 
HETATM   22 CL   UNL     1       7.121  38.631  61.276  1.00  0.00    -0.084 Cl
HETATM   23  C   UNL     1       5.191  37.478  64.565  1.00  0.00     0.002 A 
HETATM   24  C   UNL     1       4.336  36.491  64.069  1.00  0.00     0.008 A 
ENDBRANCH  15  18
ENDBRANCH  12  15
ENDBRANCH   1  11
BRANCH   8  25
HETATM   25  C   UNL     1       7.476  31.148  59.226  1.00  0.00     0.270 C 
HETATM   26  N   UNL     1       7.625  29.808  59.005  1.00  0.00    -0.365 N 
HETATM   27  H   UNL     1       8.067  29.241  59.720  1.00  0.00     0.159 HD
HETATM   28  H   UNL     1       7.303  29.404  58.139  1.00  0.00     0.159 HD
HETATM   29  O   UNL     1       6.962  31.884  58.390  1.00  0.00    -0.266 OA
ENDBRANCH   8  25
TORSDOF 4
ENDMDL
MODEL 8
REMARK VINA RESULT:      -8.7      8.067     11.823
REMARK  4 active torsions:
REMARK  status: ('A' for Active; 'I' for Inactive)
REMARK    1  A    between atoms: C_6  and  C_7 
REMARK    2  A    between atoms: C_7  and  C_8 
REMARK       I    between atoms: C_8  and  N_9 
REMARK    3  A    between atoms: N_9  and  C_10 
REMARK    4  A    between atoms: C_17  and  C_18 
REMARK       I    between atoms: C_18  and  N_19 
ROOT
HETATM    1  C   UNL     1       6.344  32.591  62.981  1.00  0.00     0.035 A 
HETATM    2  C   UNL     1       6.027  32.372  61.642  1.00  0.00     0.046 A 
HETATM    3  C   UNL     1       7.055  32.151  60.699  1.00  0.00     0.030 A 
HETATM    4  C   UNL     1       8.371  32.117  61.136  1.00  0.00     0.063 A 
HETATM    5  N   UNL     1       9.121  31.887  60.015  1.00  0.00    -0.277 N 
HETATM    6  H   UNL     1      10.129  31.801  59.957  1.00  0.00     0.189 HD
HETATM    7  N   UNL     1       8.404  31.771  58.883  1.00  0.00    -0.168 NA
HETATM    8  C   UNL     1       7.126  31.937  59.291  1.00  0.00     0.156 A 
HETATM    9  C   UNL     1       8.730  32.290  62.472  1.00  0.00     0.034 A 
HETATM   10  C   UNL     1       7.688  32.525  63.380  1.00  0.00     0.032 A 
ENDROOT
BRANCH   1  11
HETATM   11  N   UNL     1       5.410  32.859  63.993  1.00  0.00    -0.326 N 
HETATM   12  C   UNL     1       4.555  33.894  64.283  1.00  0.00     0.235 C 
HETATM   13  O   UNL     1       3.810  33.754  65.256  1.00  0.00    -0.272 OA
HETATM   14  H   UNL     1       5.336  32.157  64.720  1.00  0.00     0.169 HD
BRANCH  12  15
HETATM   15  C   UNL     1       4.532  35.214  63.545  1.00  0.00     0.068 A 
HETATM   16  C   UNL     1       5.581  36.289  63.829  1.00  0.00     0.026 A 
HETATM   17  C   UNL     1       4.241  36.430  64.457  1.00  0.00     0.026 A 
BRANCH  15  18
HETATM   18  C   UNL     1       3.722  35.236  62.234  1.00  0.00    -0.039 A 
HETATM   19  C   UNL     1       2.347  34.949  62.173  1.00  0.00     0.032 A 
HETATM   20  C   UNL     1       1.655  34.971  60.958  1.00  0.00     0.034 A 
HETATM   21  C   UNL     1       2.314  35.268  59.770  1.00  0.00     0.024 A 
HETATM   22 CL   UNL     1      -0.031  34.622  60.929  1.00  0.00    -0.084 Cl
HETATM   23  C   UNL     1       3.675  35.549  59.796  1.00  0.00     0.002 A 
HETATM   24  C   UNL     1       4.363  35.534  61.012  1.00  0.00     0.008 A 
ENDBRANCH  15  18
ENDBRANCH  12  15
ENDBRANCH   1  11
BRANCH   8  25
HETATM   25  C   UNL     1       6.005  31.902  58.341  1.00  0.00     0.270 C 
HETATM   26  N   UNL     1       5.330  30.714  58.314  1.00  0.00    -0.365 N 
HETATM   27  H   UNL     1       5.637  29.964  58.923  1.00  0.00     0.159 HD
HETATM   28  H   UNL     1       4.546  30.597  57.691  1.00  0.00     0.159 HD
HETATM   29  O   UNL     1       5.687  32.838  57.616  1.00  0.00    -0.266 OA
ENDBRANCH   8  25
TORSDOF 4
ENDMDL
MODEL 9
REMARK VINA RESULT:      -8.7      3.454      6.838
REMARK  4 active torsions:
REMARK  status: ('A' for Active; 'I' for Inactive)
REMARK    1  A    between atoms: C_6  and  C_7 
REMARK    2  A    between atoms: C_7  and  C_8 
REMARK       I    between atoms: C_8  and  N_9 
REMARK    3  A    between atoms: N_9  and  C_10 
REMARK    4  A    between atoms: C_17  and  C_18 
REMARK       I    between atoms: C_18  and  N_19 
ROOT
HETATM    1  C   UNL     1       6.879  26.087  53.396  1.00  0.00     0.035 A 
HETATM    2  C   UNL     1       7.368  25.517  54.570  1.00  0.00     0.046 A 
HETATM    3  C   UNL     1       8.005  24.257  54.532  1.00  0.00     0.030 A 
HETATM    4  C   UNL     1       8.169  23.624  53.308  1.00  0.00     0.063 A 
HETATM    5  N   UNL     1       8.809  22.449  53.589  1.00  0.00    -0.277 N 
HETATM    6  H   UNL     1       9.091  21.730  52.932  1.00  0.00     0.189 HD
HETATM    7  N   UNL     1       9.074  22.261  54.894  1.00  0.00    -0.168 NA
HETATM    8  C   UNL     1       8.579  23.368  55.488  1.00  0.00     0.156 A 
HETATM    9  C   UNL     1       7.732  24.178  52.105  1.00  0.00     0.034 A 
HETATM   10  C   UNL     1       7.088  25.421  52.179  1.00  0.00     0.032 A 
ENDROOT
BRANCH   1  11
HETATM   11  N   UNL     1       6.196  27.310  53.323  1.00  0.00    -0.326 N 
HETATM   12  C   UNL     1       5.817  28.273  54.227  1.00  0.00     0.235 C 
HETATM   13  O   UNL     1       5.265  29.281  53.779  1.00  0.00    -0.272 OA
HETATM   14  H   UNL     1       5.861  27.573  52.404  1.00  0.00     0.169 HD
BRANCH  12  15
HETATM   15  C   UNL     1       5.953  28.135  55.727  1.00  0.00     0.068 A 
HETATM   16  C   UNL     1       5.136  27.098  56.497  1.00  0.00     0.026 A 
HETATM   17  C   UNL     1       4.669  28.509  56.505  1.00  0.00     0.026 A 
BRANCH  15  18
HETATM   18  C   UNL     1       7.230  28.741  56.343  1.00  0.00    -0.039 A 
HETATM   19  C   UNL     1       7.310  29.170  57.679  1.00  0.00     0.032 A 
HETATM   20  C   UNL     1       8.488  29.724  58.193  1.00  0.00     0.034 A 
HETATM   21  C   UNL     1       9.613  29.875  57.389  1.00  0.00     0.024 A 
HETATM   22 CL   UNL     1       8.548  30.229  59.838  1.00  0.00    -0.084 Cl
HETATM   23  C   UNL     1       9.561  29.466  56.060  1.00  0.00     0.002 A 
HETATM   24  C   UNL     1       8.386  28.907  55.552  1.00  0.00     0.008 A 
ENDBRANCH  15  18
ENDBRANCH  12  15
ENDBRANCH   1  11
BRANCH   8  25
HETATM   25  C   UNL     1       8.646  23.556  56.944  1.00  0.00     0.270 C 
HETATM   26  N   UNL     1       8.239  22.471  57.669  1.00  0.00    -0.365 N 
HETATM   27  H   UNL     1       7.927  21.643  57.174  1.00  0.00     0.159 HD
HETATM   28  H   UNL     1       8.250  22.508  58.677  1.00  0.00     0.159 HD
HETATM   29  O   UNL     1       9.021  24.588  57.490  1.00  0.00    -0.266 OA
ENDBRANCH   8  25
TORSDOF 4
ENDMDL
MODEL 10
REMARK VINA RESULT:      -8.6      3.575      4.902
REMARK  4 active torsions:
REMARK  status: ('A' for Active; 'I' for Inactive)
REMARK    1  A    between atoms: C_6  and  C_7 
REMARK    2  A    between atoms: C_7  and  C_8 
REMARK       I    between atoms: C_8  and  N_9 
REMARK    3  A    between atoms: N_9  and  C_10 
REMARK    4  A    between atoms: C_17  and  C_18 
REMARK       I    between atoms: C_18  and  N_19 
ROOT
HETATM    1  C   UNL     1       7.787  28.275  57.645  1.00  0.00     0.035 A 
HETATM    2  C   UNL     1       7.696  29.391  58.474  1.00  0.00     0.046 A 
HETATM    3  C   UNL     1       8.718  30.366  58.461  1.00  0.00     0.030 A 
HETATM    4  C   UNL     1       9.783  30.212  57.585  1.00  0.00     0.063 A 
HETATM    5  N   UNL     1      10.590  31.294  57.800  1.00  0.00    -0.277 N 
HETATM    6  H   UNL     1      11.464  31.511  57.334  1.00  0.00     0.189 HD
HETATM    7  N   UNL     1      10.143  32.141  58.744  1.00  0.00    -0.168 NA
HETATM    8  C   UNL     1       8.988  31.577  59.163  1.00  0.00     0.156 A 
HETATM    9  C   UNL     1       9.892  29.132  56.710  1.00  0.00     0.034 A 
HETATM   10  C   UNL     1       8.871  28.173  56.760  1.00  0.00     0.032 A 
ENDROOT
BRANCH   1  11
HETATM   11  N   UNL     1       6.853  27.229  57.604  1.00  0.00    -0.326 N 
HETATM   12  C   UNL     1       5.854  26.844  56.744  1.00  0.00     0.235 C 
HETATM   13  O   UNL     1       5.255  25.798  57.008  1.00  0.00    -0.272 OA
HETATM   14  H   UNL     1       6.867  26.595  58.396  1.00  0.00     0.169 HD
BRANCH  12  15
HETATM   15  C   UNL     1       5.389  27.659  55.558  1.00  0.00     0.068 A 
HETATM   16  C   UNL     1       5.362  29.186  55.618  1.00  0.00     0.026 A 
HETATM   17  C   UNL     1       4.086  28.450  55.820  1.00  0.00     0.026 A 
BRANCH  15  18
HETATM   18  C   UNL     1       5.389  26.928  54.201  1.00  0.00    -0.039 A 
HETATM   19  C   UNL     1       5.403  27.599  52.965  1.00  0.00     0.032 A 
HETATM   20  C   UNL     1       5.392  26.893  51.757  1.00  0.00     0.034 A 
HETATM   21  C   UNL     1       5.356  25.503  51.746  1.00  0.00     0.024 A 
HETATM   22 CL   UNL     1       5.420  27.753  50.266  1.00  0.00    -0.084 Cl
HETATM   23  C   UNL     1       5.333  24.811  52.952  1.00  0.00     0.002 A 
HETATM   24  C   UNL     1       5.351  25.518  54.157  1.00  0.00     0.008 A 
ENDBRANCH  15  18
ENDBRANCH  12  15
ENDBRANCH   1  11
BRANCH   8  25
HETATM   25  C   UNL     1       8.177  32.187  60.226  1.00  0.00     0.270 C 
HETATM   26  N   UNL     1       8.799  32.251  61.441  1.00  0.00    -0.365 N 
HETATM   27  H   UNL     1       9.740  31.885  61.526  1.00  0.00     0.159 HD
HETATM   28  H   UNL     1       8.318  32.653  62.230  1.00  0.00     0.159 HD
HETATM   29  O   UNL     1       7.033  32.601  60.068  1.00  0.00    -0.266 OA
ENDBRANCH   8  25
TORSDOF 4
ENDMDL
