MODEL 1
REMARK VINA RESULT:      -8.7      0.000      0.000
REMARK  6 active torsions:
REMARK  status: ('A' for Active; 'I' for Inactive)
REMARK    1  A    between atoms: C_6  and  C_7 
REMARK       I    between atoms: C_7  and  N_8 
REMARK    2  A    between atoms: N_8  and  C_9 
REMARK    3  A    between atoms: C_9  and  C_10 
REMARK    4  A    between atoms: C_10  and  O_11 
REMARK    5  A    between atoms: C_10  and  C_12 
REMARK    6  A    between atoms: C_15  and  O_16 
ROOT
HETATM    1  C   UNL     1       6.970  25.003  55.320  1.00  0.00     0.258 C 
HETATM    2  N   UNL     1       7.766  26.101  55.120  1.00  0.00    -0.350 N 
HETATM    3  O   UNL     1       6.051  24.984  56.133  1.00  0.00    -0.267 OA
HETATM    4  H   UNL     1       8.447  26.070  54.362  1.00  0.00     0.163 HD
ENDROOT
BRANCH   2   5
HETATM    5  C   UNL     1       7.604  27.365  55.830  1.00  0.00     0.114 C 
HETATM    6  C   UNL     1       7.961  28.515  54.887  1.00  0.00     0.035 C 
BRANCH   5   7
HETATM    7  C   UNL     1       8.475  27.410  57.117  1.00  0.00     0.173 C 
BRANCH   7   8
HETATM    8  O   UNL     1       7.931  26.542  58.121  1.00  0.00    -0.389 OA
HETATM    9  H   UNL     1       7.503  27.113  58.782  1.00  0.00     0.210 HD
ENDBRANCH   7   8
BRANCH   7  10
HETATM   10  C   UNL     1       8.656  28.809  57.679  1.00  0.00    -0.028 A 
HETATM   11  C   UNL     1       7.612  29.424  58.382  1.00  0.00     0.012 A 
HETATM   12  C   UNL     1       7.775  30.705  58.919  1.00  0.00     0.037 A 
HETATM   13  C   UNL     1       8.983  31.390  58.775  1.00  0.00     0.068 A 
HETATM   14  C   UNL     1      10.025  30.790  58.071  1.00  0.00     0.037 A 
HETATM   15  C   UNL     1       9.861  29.512  57.527  1.00  0.00     0.012 A 
BRANCH  13  16
HETATM   16  O   UNL     1       9.013  32.627  59.358  1.00  0.00    -0.356 OA
HETATM   17  C   UNL     1       8.475  32.728  60.670  1.00  0.00     0.210 C 
ENDBRANCH  13  16
ENDBRANCH   7  10
ENDBRANCH   5   7
ENDBRANCH   2   5
BRANCH   1  18
HETATM   18  C   UNL     1       7.302  23.849  54.498  1.00  0.00     0.105 A 
HETATM   19  C   UNL     1       7.298  23.759  53.080  1.00  0.00     0.071 A 
HETATM   20  C   UNL     1       6.951  24.824  52.103  1.00  0.00     0.073 C 
HETATM   21  N   UNL     1       7.654  22.546  52.643  1.00  0.00    -0.170 NA
HETATM   22  N   UNL     1       7.897  21.834  53.764  1.00  0.00    -0.225 N 
HETATM   23  C   UNL     1       7.685  22.588  54.922  1.00  0.00     0.168 A 
HETATM   24  C   UNL     1       8.307  20.507  53.849  1.00  0.00     0.122 A 
HETATM   25  N   UNL     1       7.866  22.053  56.176  1.00  0.00    -0.240 NA
HETATM   26  C   UNL     1       8.253  20.813  56.215  1.00  0.00     0.120 A 
HETATM   27  C   UNL     1       8.507  19.933  55.042  1.00  0.00     0.038 A 
ENDBRANCH   1  18
TORSDOF 6
ENDMDL
MODEL 2
REMARK VINA RESULT:      -8.7      2.960      8.637
REMARK  6 active torsions:
REMARK  status: ('A' for Active; 'I' for Inactive)
REMARK    1  A    between atoms: C_6  and  C_7 
REMARK       I    between atoms: C_7  and  N_8 
REMARK    2  A    between atoms: N_8  and  C_9 
REMARK    3  A    between atoms: C_9  and  C_10 
REMARK    4  A    between atoms: C_10  and  O_11 
REMARK    5  A    between atoms: C_10  and  C_12 
REMARK    6  A    between atoms: C_15  and  O_16 
ROOT
HETATM    1  C   UNL     1       8.115  28.952  56.717  1.00  0.00     0.258 C 
HETATM    2  N   UNL     1       7.391  27.981  57.361  1.00  0.00    -0.350 N 
HETATM    3  O   UNL     1       8.234  28.997  55.497  1.00  0.00    -0.267 OA
HETATM    4  H   UNL     1       7.261  28.065  58.368  1.00  0.00     0.163 HD
ENDROOT
BRANCH   2   5
HETATM    5  C   UNL     1       6.675  26.911  56.676  1.00  0.00     0.114 C 
HETATM    6  C   UNL     1       5.178  27.223  56.692  1.00  0.00     0.035 C 
BRANCH   5   7
HETATM    7  C   UNL     1       6.961  25.528  57.326  1.00  0.00     0.173 C 
BRANCH   7   8
HETATM    8  O   UNL     1       7.844  25.674  58.447  1.00  0.00    -0.389 OA
HETATM    9  H   UNL     1       8.125  24.777  58.700  1.00  0.00     0.210 HD
ENDBRANCH   7   8
BRANCH   7  10
HETATM   10  C   UNL     1       7.519  24.503  56.353  1.00  0.00    -0.028 A 
HETATM   11  C   UNL     1       7.391  24.703  54.973  1.00  0.00     0.012 A 
HETATM   12  C   UNL     1       7.918  23.774  54.070  1.00  0.00     0.037 A 
HETATM   13  C   UNL     1       8.589  22.638  54.525  1.00  0.00     0.068 A 
HETATM   14  C   UNL     1       8.714  22.426  55.896  1.00  0.00     0.037 A 
HETATM   15  C   UNL     1       8.182  23.351  56.801  1.00  0.00     0.012 A 
BRANCH  13  16
HETATM   16  O   UNL     1       9.064  21.818  53.538  1.00  0.00    -0.356 OA
HETATM   17  C   UNL     1       8.171  20.824  53.050  1.00  0.00     0.210 C 
ENDBRANCH  13  16
ENDBRANCH   7  10
ENDBRANCH   5   7
ENDBRANCH   2   5
BRANCH   1  18
HETATM   18  C   UNL     1       8.742  29.928  57.595  1.00  0.00     0.105 A 
HETATM   19  C   UNL     1      10.125  30.239  57.706  1.00  0.00     0.071 A 
HETATM   20  C   UNL     1      11.255  29.638  56.952  1.00  0.00     0.073 C 
HETATM   21  N   UNL     1      10.363  31.189  58.617  1.00  0.00    -0.170 NA
HETATM   22  N   UNL     1       9.147  31.510  59.107  1.00  0.00    -0.225 N 
HETATM   23  C   UNL     1       8.128  30.758  58.517  1.00  0.00     0.168 A 
HETATM   24  C   UNL     1       8.853  32.458  60.082  1.00  0.00     0.122 A 
HETATM   25  N   UNL     1       6.809  30.917  58.877  1.00  0.00    -0.240 NA
HETATM   26  C   UNL     1       6.574  31.815  59.787  1.00  0.00     0.120 A 
HETATM   27  C   UNL     1       7.588  32.665  60.469  1.00  0.00     0.038 A 
ENDBRANCH   1  18
TORSDOF 6
ENDMDL
MODEL 3
REMARK VINA RESULT:      -8.5      3.222      8.934
REMARK  6 active torsions:
REMARK  status: ('A' for Active; 'I' for Inactive)
REMARK    1  A    between atoms: C_6  and  C_7 
REMARK       I    between atoms: C_7  and  N_8 
REMARK    2  A    between atoms: N_8  and  C_9 
REMARK    3  A    between atoms: C_9  and  C_10 
REMARK    4  A    between atoms: C_10  and  O_11 
REMARK    5  A    between atoms: C_10  and  C_12 
REMARK    6  A    between atoms: C_15  and  O_16 
ROOT
HETATM    1  C   UNL     1       8.329  29.409  57.826  1.00  0.00     0.258 C 
HETATM    2  N   UNL     1       7.564  28.294  57.598  1.00  0.00    -0.350 N 
HETATM    3  O   UNL     1       9.435  29.574  57.323  1.00  0.00    -0.267 OA
HETATM    4  H   UNL     1       6.618  28.273  57.977  1.00  0.00     0.163 HD
ENDROOT
BRANCH   2   5
HETATM    5  C   UNL     1       7.967  27.195  56.727  1.00  0.00     0.114 C 
HETATM    6  C   UNL     1       7.530  27.508  55.295  1.00  0.00     0.035 C 
BRANCH   5   7
HETATM    7  C   UNL     1       7.370  25.842  57.206  1.00  0.00     0.173 C 
BRANCH   7   8
HETATM    8  O   UNL     1       7.765  25.569  58.558  1.00  0.00    -0.389 OA
HETATM    9  H   UNL     1       8.342  24.786  58.528  1.00  0.00     0.210 HD
ENDBRANCH   7   8
BRANCH   7  10
HETATM   10  C   UNL     1       7.730  24.668  56.311  1.00  0.00    -0.028 A 
HETATM   11  C   UNL     1       8.969  24.032  56.452  1.00  0.00     0.012 A 
HETATM   12  C   UNL     1       9.302  22.940  55.645  1.00  0.00     0.037 A 
HETATM   13  C   UNL     1       8.403  22.456  54.693  1.00  0.00     0.068 A 
HETATM   14  C   UNL     1       7.171  23.087  54.539  1.00  0.00     0.037 A 
HETATM   15  C   UNL     1       6.839  24.185  55.341  1.00  0.00     0.012 A 
BRANCH  13  16
HETATM   16  O   UNL     1       8.848  21.376  53.980  1.00  0.00    -0.356 OA
HETATM   17  C   UNL     1       7.905  20.746  53.122  1.00  0.00     0.210 C 
ENDBRANCH  13  16
ENDBRANCH   7  10
ENDBRANCH   5   7
ENDBRANCH   2   5
BRANCH   1  18
HETATM   18  C   UNL     1       7.730  30.386  58.723  1.00  0.00     0.105 A 
HETATM   19  C   UNL     1       6.602  31.215  58.481  1.00  0.00     0.071 A 
HETATM   20  C   UNL     1       5.768  31.279  57.252  1.00  0.00     0.073 C 
HETATM   21  N   UNL     1       6.316  32.007  59.521  1.00  0.00    -0.170 NA
HETATM   22  N   UNL     1       7.247  31.704  60.451  1.00  0.00    -0.225 N 
HETATM   23  C   UNL     1       8.138  30.725  60.002  1.00  0.00     0.168 A 
HETATM   24  C   UNL     1       7.380  32.252  61.722  1.00  0.00     0.122 A 
HETATM   25  N   UNL     1       9.173  30.274  60.788  1.00  0.00    -0.240 NA
HETATM   26  C   UNL     1       9.261  30.806  61.971  1.00  0.00     0.120 A 
HETATM   27  C   UNL     1       8.363  31.848  62.537  1.00  0.00     0.038 A 
ENDBRANCH   1  18
TORSDOF 6
ENDMDL
MODEL 4
REMARK VINA RESULT:      -8.4      3.122      8.056
REMARK  6 active torsions:
REMARK  status: ('A' for Active; 'I' for Inactive)
REMARK    1  A    between atoms: C_6  and  C_7 
REMARK       I    between atoms: C_7  and  N_8 
REMARK    2  A    between atoms: N_8  and  C_9 
REMARK    3  A    between atoms: C_9  and  C_10 
REMARK    4  A    between atoms: C_10  and  O_11 
REMARK    5  A    between atoms: C_10  and  C_12 
REMARK    6  A    between atoms: C_15  and  O_16 
ROOT
HETATM    1  C   UNL     1       6.196  28.472  54.799  1.00  0.00     0.258 C 
HETATM    2  N   UNL     1       6.673  27.209  54.561  1.00  0.00    -0.350 N 
HETATM    3  O   UNL     1       5.371  29.022  54.076  1.00  0.00    -0.267 OA
HETATM    4  H   UNL     1       7.284  26.785  55.258  1.00  0.00     0.163 HD
ENDROOT
BRANCH   2   5
HETATM    5  C   UNL     1       6.247  26.375  53.442  1.00  0.00     0.114 C 
HETATM    6  C   UNL     1       5.219  25.358  53.941  1.00  0.00     0.035 C 
BRANCH   5   7
HETATM    7  C   UNL     1       7.455  25.661  52.772  1.00  0.00     0.173 C 
BRANCH   7   8
HETATM    8  O   UNL     1       7.189  25.422  51.383  1.00  0.00    -0.389 OA
HETATM    9  H   UNL     1       7.427  24.495  51.209  1.00  0.00     0.210 HD
ENDBRANCH   7   8
BRANCH   7  10
HETATM   10  C   UNL     1       7.850  24.365  53.458  1.00  0.00    -0.028 A 
HETATM   11  C   UNL     1       7.825  23.158  52.748  1.00  0.00     0.012 A 
HETATM   12  C   UNL     1       8.205  21.963  53.366  1.00  0.00     0.037 A 
HETATM   13  C   UNL     1       8.626  21.950  54.696  1.00  0.00     0.068 A 
HETATM   14  C   UNL     1       8.647  23.143  55.414  1.00  0.00     0.037 A 
HETATM   15  C   UNL     1       8.260  24.340  54.800  1.00  0.00     0.012 A 
BRANCH  13  16
HETATM   16  O   UNL     1       8.980  20.718  55.174  1.00  0.00    -0.356 OA
HETATM   17  C   UNL     1       8.160  20.172  56.199  1.00  0.00     0.210 C 
ENDBRANCH  13  16
ENDBRANCH   7  10
ENDBRANCH   5   7
ENDBRANCH   2   5
BRANCH   1  18
HETATM   18  C   UNL     1       6.750  29.122  55.977  1.00  0.00     0.105 A 
HETATM   19  C   UNL     1       6.053  29.594  57.122  1.00  0.00     0.071 A 
HETATM   20  C   UNL     1       4.591  29.538  57.382  1.00  0.00     0.073 C 
HETATM   21  N   UNL     1       6.870  30.146  58.026  1.00  0.00    -0.170 NA
HETATM   22  N   UNL     1       8.103  30.039  57.489  1.00  0.00    -0.225 N 
HETATM   23  C   UNL     1       8.077  29.427  56.232  1.00  0.00     0.168 A 
HETATM   24  C   UNL     1       9.307  30.460  58.044  1.00  0.00     0.122 A 
HETATM   25  N   UNL     1       9.225  29.225  55.501  1.00  0.00    -0.240 NA
HETATM   26  C   UNL     1      10.329  29.628  56.056  1.00  0.00     0.120 A 
HETATM   27  C   UNL     1      10.459  30.285  57.385  1.00  0.00     0.038 A 
ENDBRANCH   1  18
TORSDOF 6
ENDMDL
MODEL 5
REMARK VINA RESULT:      -8.3      4.281      6.740
REMARK  6 active torsions:
REMARK  status: ('A' for Active; 'I' for Inactive)
REMARK    1  A    between atoms: C_6  and  C_7 
REMARK       I    between atoms: C_7  and  N_8 
REMARK    2  A    between atoms: N_8  and  C_9 
REMARK    3  A    between atoms: C_9  and  C_10 
REMARK    4  A    between atoms: C_10  and  O_11 
REMARK    5  A    between atoms: C_10  and  C_12 
REMARK    6  A    between atoms: C_15  and  O_16 
ROOT
HETATM    1  C   UNL     1       6.822  31.073  58.508  1.00  0.00     0.258 C 
HETATM    2  N   UNL     1       7.760  30.768  59.461  1.00  0.00    -0.350 N 
HETATM    3  O   UNL     1       6.509  32.225  58.224  1.00  0.00    -0.267 OA
HETATM    4  H   UNL     1       8.033  29.792  59.573  1.00  0.00     0.163 HD
ENDROOT
BRANCH   2   5
HETATM    5  C   UNL     1       8.497  31.767  60.228  1.00  0.00     0.114 C 
HETATM    6  C   UNL     1       9.857  31.998  59.568  1.00  0.00     0.035 C 
BRANCH   5   7
HETATM    7  C   UNL     1       8.666  31.334  61.711  1.00  0.00     0.173 C 
BRANCH   7   8
HETATM    8  O   UNL     1       8.674  29.904  61.819  1.00  0.00    -0.389 OA
HETATM    9  H   UNL     1       7.817  29.647  62.202  1.00  0.00     0.210 HD
ENDBRANCH   7   8
BRANCH   7  10
HETATM   10  C   UNL     1       7.615  31.920  62.639  1.00  0.00    -0.028 A 
HETATM   11  C   UNL     1       6.260  31.625  62.441  1.00  0.00     0.012 A 
HETATM   12  C   UNL     1       5.288  32.146  63.300  1.00  0.00     0.037 A 
HETATM   13  C   UNL     1       5.648  32.959  64.377  1.00  0.00     0.068 A 
HETATM   14  C   UNL     1       6.992  33.265  64.577  1.00  0.00     0.037 A 
HETATM   15  C   UNL     1       7.966  32.751  63.714  1.00  0.00     0.012 A 
BRANCH  13  16
HETATM   16  O   UNL     1       4.602  33.391  65.145  1.00  0.00    -0.356 OA
HETATM   17  C   UNL     1       4.251  34.764  65.029  1.00  0.00     0.210 C 
ENDBRANCH  13  16
ENDBRANCH   7  10
ENDBRANCH   5   7
ENDBRANCH   2   5
BRANCH   1  18
HETATM   18  C   UNL     1       6.216  29.922  57.858  1.00  0.00     0.105 A 
HETATM   19  C   UNL     1       4.883  29.791  57.381  1.00  0.00     0.071 A 
HETATM   20  C   UNL     1       3.796  30.803  57.436  1.00  0.00     0.073 C 
HETATM   21  N   UNL     1       4.650  28.592  56.835  1.00  0.00    -0.170 NA
HETATM   22  N   UNL     1       5.821  27.930  56.946  1.00  0.00    -0.225 N 
HETATM   23  C   UNL     1       6.804  28.701  57.573  1.00  0.00     0.168 A 
HETATM   24  C   UNL     1       6.103  26.636  56.519  1.00  0.00     0.122 A 
HETATM   25  N   UNL     1       8.071  28.215  57.797  1.00  0.00    -0.240 NA
HETATM   26  C   UNL     1       8.298  27.005  57.380  1.00  0.00     0.120 A 
HETATM   27  C   UNL     1       7.321  26.110  56.702  1.00  0.00     0.038 A 
ENDBRANCH   1  18
TORSDOF 6
ENDMDL
MODEL 6
REMARK VINA RESULT:      -8.3      2.014      3.222
REMARK  6 active torsions:
REMARK  status: ('A' for Active; 'I' for Inactive)
REMARK    1  A    between atoms: C_6  and  C_7 
REMARK       I    between atoms: C_7  and  N_8 
REMARK    2  A    between atoms: N_8  and  C_9 
REMARK    3  A    between atoms: C_9  and  C_10 
REMARK    4  A    between atoms: C_10  and  O_11 
REMARK    5  A    between atoms: C_10  and  C_12 
REMARK    6  A    between atoms: C_15  and  O_16 
ROOT
HETATM    1  C   UNL     1       6.118  25.373  55.228  1.00  0.00     0.258 C 
HETATM    2  N   UNL     1       6.221  26.108  54.074  1.00  0.00    -0.350 N 
HETATM    3  O   UNL     1       5.178  25.484  56.009  1.00  0.00    -0.267 OA
HETATM    4  H   UNL     1       6.982  25.892  53.432  1.00  0.00     0.163 HD
ENDROOT
BRANCH   2   5
HETATM    5  C   UNL     1       5.227  27.082  53.639  1.00  0.00     0.114 C 
HETATM    6  C   UNL     1       4.891  26.829  52.168  1.00  0.00     0.035 C 
BRANCH   5   7
HETATM    7  C   UNL     1       5.727  28.539  53.851  1.00  0.00     0.173 C 
BRANCH   7   8
HETATM    8  O   UNL     1       6.552  28.951  52.752  1.00  0.00    -0.389 OA
HETATM    9  H   UNL     1       7.120  28.193  52.529  1.00  0.00     0.210 HD
ENDBRANCH   7   8
BRANCH   7  10
HETATM   10  C   UNL     1       6.467  28.742  55.162  1.00  0.00    -0.028 A 
HETATM   11  C   UNL     1       5.751  28.953  56.347  1.00  0.00     0.012 A 
HETATM   12  C   UNL     1       6.423  29.123  57.562  1.00  0.00     0.037 A 
HETATM   13  C   UNL     1       7.817  29.074  57.619  1.00  0.00     0.068 A 
HETATM   14  C   UNL     1       8.539  28.873  56.445  1.00  0.00     0.037 A 
HETATM   15  C   UNL     1       7.868  28.710  55.227  1.00  0.00     0.012 A 
BRANCH  13  16
HETATM   16  O   UNL     1       8.346  29.244  58.869  1.00  0.00    -0.356 OA
HETATM   17  C   UNL     1       8.110  30.498  59.496  1.00  0.00     0.210 C 
ENDBRANCH  13  16
ENDBRANCH   7  10
ENDBRANCH   5   7
ENDBRANCH   2   5
BRANCH   1  18
HETATM   18  C   UNL     1       7.219  24.452  55.464  1.00  0.00     0.105 A 
HETATM   19  C   UNL     1       8.120  24.433  56.564  1.00  0.00     0.071 A 
HETATM   20  C   UNL     1       8.149  25.354  57.730  1.00  0.00     0.073 C 
HETATM   21  N   UNL     1       9.022  23.450  56.469  1.00  0.00    -0.170 NA
HETATM   22  N   UNL     1       8.721  22.816  55.316  1.00  0.00    -0.225 N 
HETATM   23  C   UNL     1       7.632  23.400  54.664  1.00  0.00     0.168 A 
HETATM   24  C   UNL     1       9.365  21.712  54.767  1.00  0.00     0.122 A 
HETATM   25  N   UNL     1       7.162  22.917  53.464  1.00  0.00    -0.240 NA
HETATM   26  C   UNL     1       7.787  21.882  52.985  1.00  0.00     0.120 A 
HETATM   27  C   UNL     1       8.950  21.191  53.605  1.00  0.00     0.038 A 
ENDBRANCH   1  18
TORSDOF 6
ENDMDL
MODEL 7
REMARK VINA RESULT:      -8.3      3.161      8.581
REMARK  6 active torsions:
REMARK  status: ('A' for Active; 'I' for Inactive)
REMARK    1  A    between atoms: C_6  and  C_7 
REMARK       I    between atoms: C_7  and  N_8 
REMARK    2  A    between atoms: N_8  and  C_9 
REMARK    3  A    between atoms: C_9  and  C_10 
REMARK    4  A    between atoms: C_10  and  O_11 
REMARK    5  A    between atoms: C_10  and  C_12 
REMARK    6  A    between atoms: C_15  and  O_16 
ROOT
HETATM    1  C   UNL     1       6.727  28.970  56.683  1.00  0.00     0.258 C 
HETATM    2  N   UNL     1       6.340  27.838  57.353  1.00  0.00    -0.350 N 
HETATM    3  O   UNL     1       7.101  28.959  55.515  1.00  0.00    -0.267 OA
HETATM    4  H   UNL     1       5.953  27.942  58.291  1.00  0.00     0.163 HD
ENDROOT
BRANCH   2   5
HETATM    5  C   UNL     1       6.314  26.507  56.757  1.00  0.00     0.114 C 
HETATM    6  C   UNL     1       4.970  25.847  57.069  1.00  0.00     0.035 C 
BRANCH   5   7
HETATM    7  C   UNL     1       7.494  25.632  57.266  1.00  0.00     0.173 C 
BRANCH   7   8
HETATM    8  O   UNL     1       8.642  26.448  57.539  1.00  0.00    -0.389 OA
HETATM    9  H   UNL     1       8.831  26.947  56.725  1.00  0.00     0.210 HD
ENDBRANCH   7   8
BRANCH   7  10
HETATM   10  C   UNL     1       7.869  24.506  56.317  1.00  0.00    -0.028 A 
HETATM   11  C   UNL     1       7.748  24.684  54.933  1.00  0.00     0.012 A 
HETATM   12  C   UNL     1       8.107  23.660  54.052  1.00  0.00     0.037 A 
HETATM   13  C   UNL     1       8.604  22.447  54.533  1.00  0.00     0.068 A 
HETATM   14  C   UNL     1       8.721  22.257  55.908  1.00  0.00     0.037 A 
HETATM   15  C   UNL     1       8.354  23.278  56.792  1.00  0.00     0.012 A 
BRANCH  13  16
HETATM   16  O   UNL     1       8.928  21.536  53.565  1.00  0.00    -0.356 OA
HETATM   17  C   UNL     1       7.889  20.663  53.137  1.00  0.00     0.210 C 
ENDBRANCH  13  16
ENDBRANCH   7  10
ENDBRANCH   5   7
ENDBRANCH   2   5
BRANCH   1  18
HETATM   18  C   UNL     1       6.668  30.194  57.467  1.00  0.00     0.105 A 
HETATM   19  C   UNL     1       5.836  31.326  57.256  1.00  0.00     0.071 A 
HETATM   20  C   UNL     1       4.829  31.525  56.181  1.00  0.00     0.073 C 
HETATM   21  N   UNL     1       6.038  32.286  58.165  1.00  0.00    -0.170 NA
HETATM   22  N   UNL     1       6.997  31.796  58.978  1.00  0.00    -0.225 N 
HETATM   23  C   UNL     1       7.419  30.522  58.584  1.00  0.00     0.168 A 
HETATM   24  C   UNL     1       7.557  32.413  60.091  1.00  0.00     0.122 A 
HETATM   25  N   UNL     1       8.398  29.840  59.268  1.00  0.00    -0.240 NA
HETATM   26  C   UNL     1       8.893  30.447  60.305  1.00  0.00     0.120 A 
HETATM   27  C   UNL     1       8.509  31.796  60.804  1.00  0.00     0.038 A 
ENDBRANCH   1  18
TORSDOF 6
ENDMDL
MODEL 8
REMARK VINA RESULT:      -8.1      3.322      8.147
REMARK  6 active torsions:
REMARK  status: ('A' for Active; 'I' for Inactive)
REMARK    1  A    between atoms: C_6  and  C_7 
REMARK       I    between atoms: C_7  and  N_8 
REMARK    2  A    between atoms: N_8  and  C_9 
REMARK    3  A    between atoms: C_9  and  C_10 
REMARK    4  A    between atoms: C_10  and  O_11 
REMARK    5  A    between atoms: C_10  and  C_12 
REMARK    6  A    between atoms: C_15  and  O_16 
ROOT
HETATM    1  C   UNL     1       6.918  28.101  54.296  1.00  0.00     0.258 C 
HETATM    2  N   UNL     1       5.915  27.359  53.726  1.00  0.00    -0.350 N 
HETATM    3  O   UNL     1       8.034  28.207  53.799  1.00  0.00    -0.267 OA
HETATM    4  H   UNL     1       4.988  27.397  54.149  1.00  0.00     0.163 HD
ENDROOT
BRANCH   2   5
HETATM    5  C   UNL     1       6.054  26.631  52.470  1.00  0.00     0.114 C 
HETATM    6  C   UNL     1       5.265  27.361  51.381  1.00  0.00     0.035 C 
BRANCH   5   7
HETATM    7  C   UNL     1       5.575  25.158  52.610  1.00  0.00     0.173 C 
BRANCH   7   8
HETATM    8  O   UNL     1       4.279  25.108  53.223  1.00  0.00    -0.389 OA
HETATM    9  H   UNL     1       3.674  25.597  52.639  1.00  0.00     0.210 HD
ENDBRANCH   7   8
BRANCH   7  10
HETATM   10  C   UNL     1       6.546  24.273  53.372  1.00  0.00    -0.028 A 
HETATM   11  C   UNL     1       7.516  23.537  52.681  1.00  0.00     0.012 A 
HETATM   12  C   UNL     1       8.426  22.734  53.375  1.00  0.00     0.037 A 
HETATM   13  C   UNL     1       8.393  22.659  54.769  1.00  0.00     0.068 A 
HETATM   14  C   UNL     1       7.427  23.381  55.465  1.00  0.00     0.037 A 
HETATM   15  C   UNL     1       6.510  24.180  54.772  1.00  0.00     0.012 A 
BRANCH  13  16
HETATM   16  O   UNL     1       9.345  21.847  55.322  1.00  0.00    -0.356 OA
HETATM   17  C   UNL     1       8.923  20.547  55.715  1.00  0.00     0.210 C 
ENDBRANCH  13  16
ENDBRANCH   7  10
ENDBRANCH   5   7
ENDBRANCH   2   5
BRANCH   1  18
HETATM   18  C   UNL     1       6.560  28.753  55.546  1.00  0.00     0.105 A 
HETATM   19  C   UNL     1       7.279  28.743  56.772  1.00  0.00     0.071 A 
HETATM   20  C   UNL     1       8.568  28.061  57.063  1.00  0.00     0.073 C 
HETATM   21  N   UNL     1       6.666  29.444  57.731  1.00  0.00    -0.170 NA
HETATM   22  N   UNL     1       5.546  29.921  57.147  1.00  0.00    -0.225 N 
HETATM   23  C   UNL     1       5.435  29.515  55.814  1.00  0.00     0.168 A 
HETATM   24  C   UNL     1       4.566  30.721  57.726  1.00  0.00     0.122 A 
HETATM   25  N   UNL     1       4.364  29.881  55.033  1.00  0.00    -0.240 NA
HETATM   26  C   UNL     1       3.472  30.632  55.608  1.00  0.00     0.120 A 
HETATM   27  C   UNL     1       3.503  31.116  57.015  1.00  0.00     0.038 A 
ENDBRANCH   1  18
TORSDOF 6
ENDMDL
MODEL 9
REMARK VINA RESULT:      -7.9      3.852      6.732
REMARK  6 active torsions:
REMARK  status: ('A' for Active; 'I' for Inactive)
REMARK    1  A    between atoms: C_6  and  C_7 
REMARK       I    between atoms: C_7  and  N_8 
REMARK    2  A    between atoms: N_8  and  C_9 
REMARK    3  A    between atoms: C_9  and  C_10 
REMARK    4  A    between atoms: C_10  and  O_11 
REMARK    5  A    between atoms: C_10  and  C_12 
REMARK    6  A    between atoms: C_15  and  O_16 
ROOT
HETATM    1  C   UNL     1       7.557  25.346  53.860  1.00  0.00     0.258 C 
HETATM    2  N   UNL     1       6.519  26.116  54.319  1.00  0.00    -0.350 N 
HETATM    3  O   UNL     1       8.145  25.577  52.809  1.00  0.00    -0.267 OA
HETATM    4  H   UNL     1       6.144  25.916  55.246  1.00  0.00     0.163 HD
ENDROOT
BRANCH   2   5
HETATM    5  C   UNL     1       6.011  27.294  53.626  1.00  0.00     0.114 C 
HETATM    6  C   UNL     1       5.871  28.441  54.628  1.00  0.00     0.035 C 
BRANCH   5   7
HETATM    7  C   UNL     1       4.655  27.001  52.924  1.00  0.00     0.173 C 
BRANCH   7   8
HETATM    8  O   UNL     1       4.263  25.638  53.140  1.00  0.00    -0.389 OA
HETATM    9  H   UNL     1       4.507  25.146  52.337  1.00  0.00     0.210 HD
ENDBRANCH   7   8
BRANCH   7  10
HETATM   10  C   UNL     1       4.660  27.312  51.438  1.00  0.00    -0.028 A 
HETATM   11  C   UNL     1       4.481  28.629  50.996  1.00  0.00     0.012 A 
HETATM   12  C   UNL     1       4.502  28.928  49.630  1.00  0.00     0.037 A 
HETATM   13  C   UNL     1       4.712  27.924  48.683  1.00  0.00     0.068 A 
HETATM   14  C   UNL     1       4.883  26.610  49.112  1.00  0.00     0.037 A 
HETATM   15  C   UNL     1       4.855  26.308  50.478  1.00  0.00     0.012 A 
BRANCH  13  16
HETATM   16  O   UNL     1       4.721  28.354  47.384  1.00  0.00    -0.356 OA
HETATM   17  C   UNL     1       4.566  29.752  47.174  1.00  0.00     0.210 C 
ENDBRANCH  13  16
ENDBRANCH   7  10
ENDBRANCH   5   7
ENDBRANCH   2   5
BRANCH   1  18
HETATM   18  C   UNL     1       7.907  24.221  54.714  1.00  0.00     0.105 A 
HETATM   19  C   UNL     1       8.230  24.245  56.098  1.00  0.00     0.071 A 
HETATM   20  C   UNL     1       8.288  25.427  56.997  1.00  0.00     0.073 C 
HETATM   21  N   UNL     1       8.507  23.028  56.580  1.00  0.00    -0.170 NA
HETATM   22  N   UNL     1       8.367  22.199  55.524  1.00  0.00    -0.225 N 
HETATM   23  C   UNL     1       8.009  22.887  54.360  1.00  0.00     0.168 A 
HETATM   24  C   UNL     1       8.540  20.819  55.504  1.00  0.00     0.122 A 
HETATM   25  N   UNL     1       7.823  22.235  53.163  1.00  0.00    -0.240 NA
HETATM   26  C   UNL     1       7.989  20.946  53.186  1.00  0.00     0.120 A 
HETATM   27  C   UNL     1       8.365  20.127  54.371  1.00  0.00     0.038 A 
ENDBRANCH   1  18
TORSDOF 6
ENDMDL
MODEL 10
REMARK VINA RESULT:      -7.8      3.060      8.574
REMARK  6 active torsions:
REMARK  status: ('A' for Active; 'I' for Inactive)
REMARK    1  A    between atoms: C_6  and  C_7 
REMARK       I    between atoms: C_7  and  N_8 
REMARK    2  A    between atoms: N_8  and  C_9 
REMARK    3  A    between atoms: C_9  and  C_10 
REMARK    4  A    between atoms: C_10  and  O_11 
REMARK    5  A    between atoms: C_10  and  C_12 
REMARK    6  A    between atoms: C_15  and  O_16 
ROOT
HETATM    1  C   UNL     1       7.719  28.876  57.224  1.00  0.00     0.258 C 
HETATM    2  N   UNL     1       7.205  28.709  55.964  1.00  0.00    -0.350 N 
HETATM    3  O   UNL     1       8.444  28.047  57.766  1.00  0.00    -0.267 OA
HETATM    4  H   UNL     1       6.689  29.483  55.547  1.00  0.00     0.163 HD
ENDROOT
BRANCH   2   5
HETATM    5  C   UNL     1       7.469  27.545  55.125  1.00  0.00     0.114 C 
HETATM    6  C   UNL     1       7.347  27.952  53.656  1.00  0.00     0.035 C 
BRANCH   5   7
HETATM    7  C   UNL     1       6.503  26.373  55.458  1.00  0.00     0.173 C 
BRANCH   7   8
HETATM    8  O   UNL     1       5.811  26.627  56.688  1.00  0.00    -0.389 OA
HETATM    9  H   UNL     1       6.192  26.028  57.353  1.00  0.00     0.210 HD
ENDBRANCH   7   8
BRANCH   7  10
HETATM   10  C   UNL     1       7.190  25.019  55.517  1.00  0.00    -0.028 A 
HETATM   11  C   UNL     1       7.277  24.225  54.366  1.00  0.00     0.012 A 
HETATM   12  C   UNL     1       7.923  22.986  54.407  1.00  0.00     0.037 A 
HETATM   13  C   UNL     1       8.501  22.520  55.589  1.00  0.00     0.068 A 
HETATM   14  C   UNL     1       8.412  23.298  56.741  1.00  0.00     0.037 A 
HETATM   15  C   UNL     1       7.760  24.536  56.704  1.00  0.00     0.012 A 
BRANCH  13  16
HETATM   16  O   UNL     1       9.110  21.300  55.488  1.00  0.00    -0.356 OA
HETATM   17  C   UNL     1       8.430  20.197  56.076  1.00  0.00     0.210 C 
ENDBRANCH  13  16
ENDBRANCH   7  10
ENDBRANCH   5   7
ENDBRANCH   2   5
BRANCH   1  18
HETATM   18  C   UNL     1       7.334  30.116  57.881  1.00  0.00     0.105 A 
HETATM   19  C   UNL     1       8.181  31.072  58.505  1.00  0.00     0.071 A 
HETATM   20  C   UNL     1       9.661  31.027  58.634  1.00  0.00     0.073 C 
HETATM   21  N   UNL     1       7.499  32.102  59.017  1.00  0.00    -0.170 NA
HETATM   22  N   UNL     1       6.206  31.836  58.733  1.00  0.00    -0.225 N 
HETATM   23  C   UNL     1       6.058  30.627  58.047  1.00  0.00     0.168 A 
HETATM   24  C   UNL     1       5.095  32.611  59.048  1.00  0.00     0.122 A 
HETATM   25  N   UNL     1       4.822  30.157  57.667  1.00  0.00    -0.240 NA
HETATM   26  C   UNL     1       3.809  30.911  57.975  1.00  0.00     0.120 A 
HETATM   27  C   UNL     1       3.866  32.211  58.698  1.00  0.00     0.038 A 
ENDBRANCH   1  18
TORSDOF 6
ENDMDL
