MODEL 1
REMARK VINA RESULT:     -10.2      0.000      0.000
REMARK  3 active torsions:
REMARK  status: ('A' for Active; 'I' for Inactive)
REMARK    1  A    between atoms: N_8  and  C_9 
REMARK    2  A    between atoms: C_18  and  C_19 
REMARK    3  A    between atoms: C_19  and  C_20 
ROOT
HETATM    1  C   UNL     1       5.325  29.369  54.974  1.00  0.00     0.069 C 
HETATM    2  C   UNL     1       6.027  28.165  55.546  1.00  0.00     0.017 A 
HETATM    3  N   UNL     1       6.053  27.040  54.736  1.00  0.00    -0.348 N 
HETATM    4  C   UNL     1       6.721  25.901  55.078  1.00  0.00     0.119 A 
HETATM    5  C   UNL     1       7.337  25.796  56.263  1.00  0.00     0.124 A 
HETATM    6  C   UNL     1       7.880  24.430  56.345  1.00  0.00     0.280 A 
HETATM    7  O   UNL     1       8.484  23.972  57.298  1.00  0.00    -0.265 OA
HETATM    8  N   UNL     1       7.535  23.824  55.126  1.00  0.00    -0.236 N 
HETATM    9  N   UNL     1       6.838  24.750  54.322  1.00  0.00    -0.179 NA
HETATM   10  C   UNL     1       7.335  26.912  57.208  1.00  0.00     0.199 A 
HETATM   11  O   UNL     1       7.895  26.845  58.296  1.00  0.00    -0.287 OA
HETATM   12  C   UNL     1       6.608  28.168  56.773  1.00  0.00     0.020 A 
HETATM   13  H   UNL     1       5.732  27.122  53.776  1.00  0.00     0.167 HD
HETATM   14  H   UNL     1       5.917  24.407  54.050  1.00  0.00     0.155 HD
ENDROOT
BRANCH  12  15
HETATM   15  C   UNL     1       6.659  29.328  57.742  1.00  0.00     0.085 C 
BRANCH  15  16
HETATM   16  C   UNL     1       8.019  29.999  57.837  1.00  0.00    -0.032 A 
HETATM   17  C   UNL     1       8.330  30.995  58.778  1.00  0.00     0.040 A 
HETATM   18 CL   UNL     1       7.181  31.580  59.931  1.00  0.00    -0.084 Cl
HETATM   19  C   UNL     1       9.602  31.580  58.808  1.00  0.00     0.024 A 
HETATM   20  C   UNL     1      10.581  31.191  57.896  1.00  0.00     0.002 A 
HETATM   21  C   UNL     1      10.287  30.219  56.947  1.00  0.00     0.001 A 
HETATM   22  C   UNL     1       9.020  29.633  56.914  1.00  0.00     0.009 A 
ENDBRANCH  15  16
ENDBRANCH  12  15
BRANCH   8  23
HETATM   23  C   UNL     1       7.834  22.531  54.644  1.00  0.00     0.055 A 
HETATM   24  C   UNL     1       7.978  21.444  55.516  1.00  0.00     0.031 A 
HETATM   25  C   UNL     1       8.267  20.165  55.029  1.00  0.00     0.002 A 
HETATM   26  C   UNL     1       8.423  19.954  53.663  1.00  0.00     0.000 A 
HETATM   27  C   UNL     1       8.289  21.022  52.781  1.00  0.00     0.002 A 
HETATM   28  C   UNL     1       7.997  22.300  53.268  1.00  0.00     0.031 A 
ENDBRANCH   8  23
TORSDOF 3
ENDMDL
MODEL 2
REMARK VINA RESULT:      -9.8      4.476      9.533
REMARK  3 active torsions:
REMARK  status: ('A' for Active; 'I' for Inactive)
REMARK    1  A    between atoms: N_8  and  C_9 
REMARK    2  A    between atoms: C_18  and  C_19 
REMARK    3  A    between atoms: C_19  and  C_20 
ROOT
HETATM    1  C   UNL     1      11.019  29.706  57.119  1.00  0.00     0.069 C 
HETATM    2  C   UNL     1       9.732  30.163  57.757  1.00  0.00     0.017 A 
HETATM    3  N   UNL     1       9.862  30.837  58.961  1.00  0.00    -0.348 N 
HETATM    4  C   UNL     1       8.798  31.384  59.617  1.00  0.00     0.119 A 
HETATM    5  C   UNL     1       7.551  31.232  59.150  1.00  0.00     0.124 A 
HETATM    6  C   UNL     1       6.648  31.864  60.125  1.00  0.00     0.280 A 
HETATM    7  O   UNL     1       5.433  31.896  60.037  1.00  0.00    -0.265 OA
HETATM    8  N   UNL     1       7.488  32.378  61.125  1.00  0.00    -0.236 N 
HETATM    9  N   UNL     1       8.832  32.106  60.795  1.00  0.00    -0.179 NA
HETATM   10  C   UNL     1       7.302  30.503  57.907  1.00  0.00     0.199 A 
HETATM   11  O   UNL     1       6.174  30.354  57.454  1.00  0.00    -0.287 OA
HETATM   12  C   UNL     1       8.516  29.940  57.196  1.00  0.00     0.020 A 
HETATM   13  H   UNL     1      10.790  31.104  59.274  1.00  0.00     0.167 HD
HETATM   14  H   UNL     1       9.308  31.575  61.525  1.00  0.00     0.155 HD
ENDROOT
BRANCH  12  15
HETATM   15  C   UNL     1       8.244  29.232  55.887  1.00  0.00     0.085 C 
BRANCH  15  16
HETATM   16  C   UNL     1       7.926  27.754  56.034  1.00  0.00    -0.032 A 
HETATM   17  C   UNL     1       7.366  26.975  55.008  1.00  0.00     0.040 A 
HETATM   18 CL   UNL     1       6.960  27.625  53.458  1.00  0.00    -0.084 Cl
HETATM   19  C   UNL     1       7.088  25.617  55.211  1.00  0.00     0.024 A 
HETATM   20  C   UNL     1       7.355  25.017  56.439  1.00  0.00     0.002 A 
HETATM   21  C   UNL     1       7.894  25.775  57.472  1.00  0.00     0.001 A 
HETATM   22  C   UNL     1       8.172  27.130  57.273  1.00  0.00     0.009 A 
ENDBRANCH  15  16
ENDBRANCH  12  15
BRANCH   8  23
HETATM   23  C   UNL     1       7.166  33.118  62.284  1.00  0.00     0.055 A 
HETATM   24  C   UNL     1       6.284  34.204  62.232  1.00  0.00     0.031 A 
HETATM   25  C   UNL     1       5.964  34.928  63.385  1.00  0.00     0.002 A 
HETATM   26  C   UNL     1       6.527  34.581  64.609  1.00  0.00     0.000 A 
HETATM   27  C   UNL     1       7.411  33.507  64.680  1.00  0.00     0.002 A 
HETATM   28  C   UNL     1       7.727  32.783  63.527  1.00  0.00     0.031 A 
ENDBRANCH   8  23
TORSDOF 3
ENDMDL
MODEL 3
REMARK VINA RESULT:      -9.7      4.436      8.275
REMARK  3 active torsions:
REMARK  status: ('A' for Active; 'I' for Inactive)
REMARK    1  A    between atoms: N_8  and  C_9 
REMARK    2  A    between atoms: C_18  and  C_19 
REMARK    3  A    between atoms: C_19  and  C_20 
ROOT
HETATM    1  C   UNL     1       5.808  25.123  56.484  1.00  0.00     0.069 C 
HETATM    2  C   UNL     1       5.837  25.641  55.069  1.00  0.00     0.017 A 
HETATM    3  N   UNL     1       4.723  26.361  54.667  1.00  0.00    -0.348 N 
HETATM    4  C   UNL     1       4.638  26.964  53.446  1.00  0.00     0.119 A 
HETATM    5  C   UNL     1       5.618  26.827  52.542  1.00  0.00     0.124 A 
HETATM    6  C   UNL     1       5.177  27.524  51.323  1.00  0.00     0.280 A 
HETATM    7  O   UNL     1       5.810  27.585  50.284  1.00  0.00    -0.265 OA
HETATM    8  N   UNL     1       3.917  28.056  51.638  1.00  0.00    -0.236 N 
HETATM    9  N   UNL     1       3.592  27.733  52.973  1.00  0.00    -0.179 NA
HETATM   10  C   UNL     1       6.819  26.054  52.853  1.00  0.00     0.199 A 
HETATM   11  O   UNL     1       7.733  25.918  52.049  1.00  0.00    -0.287 OA
HETATM   12  C   UNL     1       6.885  25.429  54.232  1.00  0.00     0.020 A 
HETATM   13  H   UNL     1       4.029  26.614  55.362  1.00  0.00     0.167 HD
HETATM   14  H   UNL     1       2.713  27.220  53.041  1.00  0.00     0.155 HD
ENDROOT
BRANCH  12  15
HETATM   15  C   UNL     1       8.157  24.675  54.554  1.00  0.00     0.085 C 
BRANCH  15  16
HETATM   16  C   UNL     1       8.047  23.170  54.383  1.00  0.00    -0.032 A 
HETATM   17  C   UNL     1       8.106  22.261  55.453  1.00  0.00     0.040 A 
HETATM   18 CL   UNL     1       8.328  22.763  57.093  1.00  0.00    -0.084 Cl
HETATM   19  C   UNL     1       8.006  20.882  55.227  1.00  0.00     0.024 A 
HETATM   20  C   UNL     1       7.856  20.386  53.934  1.00  0.00     0.002 A 
HETATM   21  C   UNL     1       7.812  21.269  52.861  1.00  0.00     0.001 A 
HETATM   22  C   UNL     1       7.911  22.644  53.082  1.00  0.00     0.009 A 
ENDBRANCH  15  16
ENDBRANCH  12  15
BRANCH   8  23
HETATM   23  C   UNL     1       3.051  28.852  50.857  1.00  0.00     0.055 A 
HETATM   24  C   UNL     1       2.529  28.385  49.644  1.00  0.00     0.031 A 
HETATM   25  C   UNL     1       1.666  29.177  48.880  1.00  0.00     0.002 A 
HETATM   26  C   UNL     1       1.316  30.451  49.313  1.00  0.00     0.000 A 
HETATM   27  C   UNL     1       1.829  30.936  50.514  1.00  0.00     0.002 A 
HETATM   28  C   UNL     1       2.689  30.142  51.279  1.00  0.00     0.031 A 
ENDBRANCH   8  23
TORSDOF 3
ENDMDL
MODEL 4
REMARK VINA RESULT:      -9.7      6.252      9.201
REMARK  3 active torsions:
REMARK  status: ('A' for Active; 'I' for Inactive)
REMARK    1  A    between atoms: N_8  and  C_9 
REMARK    2  A    between atoms: C_18  and  C_19 
REMARK    3  A    between atoms: C_19  and  C_20 
ROOT
HETATM    1  C   UNL     1       7.215  33.497  65.012  1.00  0.00     0.069 C 
HETATM    2  C   UNL     1       7.035  33.278  63.532  1.00  0.00     0.017 A 
HETATM    3  N   UNL     1       7.982  32.469  62.923  1.00  0.00    -0.348 N 
HETATM    4  C   UNL     1       7.907  32.109  61.609  1.00  0.00     0.119 A 
HETATM    5  C   UNL     1       6.935  32.586  60.820  1.00  0.00     0.124 A 
HETATM    6  C   UNL     1       7.192  32.075  59.464  1.00  0.00     0.280 A 
HETATM    7  O   UNL     1       6.519  32.327  58.481  1.00  0.00    -0.265 OA
HETATM    8  N   UNL     1       8.345  31.283  59.583  1.00  0.00    -0.236 N 
HETATM    9  N   UNL     1       8.775  31.278  60.926  1.00  0.00    -0.179 NA
HETATM   10  C   UNL     1       5.909  33.480  61.356  1.00  0.00     0.199 A 
HETATM   11  O   UNL     1       5.004  33.925  60.660  1.00  0.00    -0.287 OA
HETATM   12  C   UNL     1       6.012  33.826  62.827  1.00  0.00     0.020 A 
HETATM   13  H   UNL     1       8.645  31.969  63.506  1.00  0.00     0.167 HD
HETATM   14  H   UNL     1       9.736  31.609  61.023  1.00  0.00     0.155 HD
ENDROOT
BRANCH  12  15
HETATM   15  C   UNL     1       4.914  34.711  63.375  1.00  0.00     0.085 C 
BRANCH  15  16
HETATM   16  C   UNL     1       5.295  36.177  63.488  1.00  0.00    -0.032 A 
HETATM   17  C   UNL     1       5.121  36.936  64.657  1.00  0.00     0.040 A 
HETATM   18 CL   UNL     1       4.435  36.281  66.102  1.00  0.00    -0.084 Cl
HETATM   19  C   UNL     1       5.486  38.288  64.693  1.00  0.00     0.024 A 
HETATM   20  C   UNL     1       6.019  38.907  63.565  1.00  0.00     0.002 A 
HETATM   21  C   UNL     1       6.183  38.176  62.393  1.00  0.00     0.001 A 
HETATM   22  C   UNL     1       5.820  36.828  62.354  1.00  0.00     0.009 A 
ENDBRANCH  15  16
ENDBRANCH  12  15
BRANCH   8  23
HETATM   23  C   UNL     1       9.019  30.517  58.607  1.00  0.00     0.055 A 
HETATM   24  C   UNL     1       8.450  29.353  58.074  1.00  0.00     0.031 A 
HETATM   25  C   UNL     1       9.122  28.604  57.102  1.00  0.00     0.002 A 
HETATM   26  C   UNL     1      10.376  29.002  56.653  1.00  0.00     0.000 A 
HETATM   27  C   UNL     1      10.961  30.153  57.175  1.00  0.00     0.002 A 
HETATM   28  C   UNL     1      10.288  30.903  58.144  1.00  0.00     0.031 A 
ENDBRANCH   8  23
TORSDOF 3
ENDMDL
MODEL 5
REMARK VINA RESULT:      -9.6      3.502      8.515
REMARK  3 active torsions:
REMARK  status: ('A' for Active; 'I' for Inactive)
REMARK    1  A    between atoms: N_8  and  C_9 
REMARK    2  A    between atoms: C_18  and  C_19 
REMARK    3  A    between atoms: C_19  and  C_20 
ROOT
HETATM    1  C   UNL     1       4.580  28.629  54.765  1.00  0.00     0.069 C 
HETATM    2  C   UNL     1       5.722  29.052  55.653  1.00  0.00     0.017 A 
HETATM    3  N   UNL     1       5.370  29.767  56.788  1.00  0.00    -0.348 N 
HETATM    4  C   UNL     1       6.281  30.146  57.730  1.00  0.00     0.119 A 
HETATM    5  C   UNL     1       7.587  29.899  57.562  1.00  0.00     0.124 A 
HETATM    6  C   UNL     1       8.289  30.505  58.705  1.00  0.00     0.280 A 
HETATM    7  O   UNL     1       9.495  30.497  58.871  1.00  0.00    -0.265 OA
HETATM    8  N   UNL     1       7.278  31.071  59.499  1.00  0.00    -0.236 N 
HETATM    9  N   UNL     1       6.022  30.821  58.908  1.00  0.00    -0.179 NA
HETATM   10  C   UNL     1       8.067  29.186  56.379  1.00  0.00     0.199 A 
HETATM   11  O   UNL     1       9.254  28.940  56.203  1.00  0.00    -0.287 OA
HETATM   12  C   UNL     1       7.017  28.755  55.375  1.00  0.00     0.020 A 
HETATM   13  H   UNL     1       4.388  29.846  57.029  1.00  0.00     0.167 HD
HETATM   14  H   UNL     1       5.508  31.683  58.720  1.00  0.00     0.155 HD
ENDROOT
BRANCH  12  15
HETATM   15  C   UNL     1       7.526  27.975  54.182  1.00  0.00     0.085 C 
BRANCH  15  16
HETATM   16  C   UNL     1       7.283  26.478  54.270  1.00  0.00    -0.032 A 
HETATM   17  C   UNL     1       6.676  25.730  53.247  1.00  0.00     0.040 A 
HETATM   18 CL   UNL     1       6.121  26.442  51.773  1.00  0.00    -0.084 Cl
HETATM   19  C   UNL     1       6.473  24.352  53.393  1.00  0.00     0.024 A 
HETATM   20  C   UNL     1       6.861  23.700  54.562  1.00  0.00     0.002 A 
HETATM   21  C   UNL     1       7.449  24.426  55.591  1.00  0.00     0.001 A 
HETATM   22  C   UNL     1       7.653  25.800  55.449  1.00  0.00     0.009 A 
ENDBRANCH  15  16
ENDBRANCH  12  15
BRANCH   8  23
HETATM   23  C   UNL     1       7.372  31.745  60.736  1.00  0.00     0.055 A 
HETATM   24  C   UNL     1       6.586  32.870  61.013  1.00  0.00     0.031 A 
HETATM   25  C   UNL     1       6.680  33.528  62.244  1.00  0.00     0.002 A 
HETATM   26  C   UNL     1       7.567  33.075  63.215  1.00  0.00     0.000 A 
HETATM   27  C   UNL     1       8.361  31.961  62.957  1.00  0.00     0.002 A 
HETATM   28  C   UNL     1       8.264  31.302  61.727  1.00  0.00     0.031 A 
ENDBRANCH   8  23
TORSDOF 3
ENDMDL
MODEL 6
REMARK VINA RESULT:      -9.4      3.471      8.480
REMARK  3 active torsions:
REMARK  status: ('A' for Active; 'I' for Inactive)
REMARK    1  A    between atoms: N_8  and  C_9 
REMARK    2  A    between atoms: C_18  and  C_19 
REMARK    3  A    between atoms: C_19  and  C_20 
ROOT
HETATM    1  C   UNL     1       4.965  24.848  56.669  1.00  0.00     0.069 C 
HETATM    2  C   UNL     1       5.687  26.147  56.922  1.00  0.00     0.017 A 
HETATM    3  N   UNL     1       4.880  27.257  57.118  1.00  0.00    -0.348 N 
HETATM    4  C   UNL     1       5.382  28.484  57.440  1.00  0.00     0.119 A 
HETATM    5  C   UNL     1       6.704  28.687  57.517  1.00  0.00     0.124 A 
HETATM    6  C   UNL     1       6.903  30.118  57.797  1.00  0.00     0.280 A 
HETATM    7  O   UNL     1       7.985  30.666  57.909  1.00  0.00    -0.265 OA
HETATM    8  N   UNL     1       5.610  30.659  57.886  1.00  0.00    -0.236 N 
HETATM    9  N   UNL     1       4.659  29.635  57.694  1.00  0.00    -0.179 NA
HETATM   10  C   UNL     1       7.643  27.590  57.288  1.00  0.00     0.199 A 
HETATM   11  O   UNL     1       8.857  27.745  57.358  1.00  0.00    -0.287 OA
HETATM   12  C   UNL     1       7.041  26.238  56.965  1.00  0.00     0.020 A 
HETATM   13  H   UNL     1       3.879  27.122  57.216  1.00  0.00     0.167 HD
HETATM   14  H   UNL     1       4.028  29.838  56.918  1.00  0.00     0.155 HD
ENDROOT
BRANCH  12  15
HETATM   15  C   UNL     1       8.026  25.104  56.781  1.00  0.00     0.085 C 
BRANCH  15  16
HETATM   16  C   UNL     1       7.958  24.437  55.418  1.00  0.00    -0.032 A 
HETATM   17  C   UNL     1       8.065  23.049  55.227  1.00  0.00     0.040 A 
HETATM   18 CL   UNL     1       8.304  21.943  56.535  1.00  0.00    -0.084 Cl
HETATM   19  C   UNL     1       8.002  22.496  53.942  1.00  0.00     0.024 A 
HETATM   20  C   UNL     1       7.842  23.316  52.827  1.00  0.00     0.002 A 
HETATM   21  C   UNL     1       7.750  24.693  52.994  1.00  0.00     0.001 A 
HETATM   22  C   UNL     1       7.812  25.247  54.275  1.00  0.00     0.009 A 
ENDBRANCH  15  16
ENDBRANCH  12  15
BRANCH   8  23
HETATM   23  C   UNL     1       5.201  31.978  58.178  1.00  0.00     0.055 A 
HETATM   24  C   UNL     1       4.983  32.915  57.160  1.00  0.00     0.031 A 
HETATM   25  C   UNL     1       4.570  34.218  57.458  1.00  0.00     0.002 A 
HETATM   26  C   UNL     1       4.375  34.607  58.778  1.00  0.00     0.000 A 
HETATM   27  C   UNL     1       4.592  33.692  59.805  1.00  0.00     0.002 A 
HETATM   28  C   UNL     1       5.002  32.389  59.507  1.00  0.00     0.031 A 
ENDBRANCH   8  23
TORSDOF 3
ENDMDL
MODEL 7
REMARK VINA RESULT:      -9.4      4.817      8.160
REMARK  3 active torsions:
REMARK  status: ('A' for Active; 'I' for Inactive)
REMARK    1  A    between atoms: N_8  and  C_9 
REMARK    2  A    between atoms: C_18  and  C_19 
REMARK    3  A    between atoms: C_19  and  C_20 
ROOT
HETATM    1  C   UNL     1       7.337  27.541  55.753  1.00  0.00     0.069 C 
HETATM    2  C   UNL     1       6.600  27.398  54.446  1.00  0.00     0.017 A 
HETATM    3  N   UNL     1       6.629  28.506  53.613  1.00  0.00    -0.348 N 
HETATM    4  C   UNL     1       6.081  28.502  52.363  1.00  0.00     0.119 A 
HETATM    5  C   UNL     1       5.422  27.430  51.906  1.00  0.00     0.124 A 
HETATM    6  C   UNL     1       4.894  27.784  50.578  1.00  0.00     0.280 A 
HETATM    7  O   UNL     1       4.219  27.054  49.875  1.00  0.00    -0.265 OA
HETATM    8  N   UNL     1       5.329  29.100  50.349  1.00  0.00    -0.236 N 
HETATM    9  N   UNL     1       6.096  29.538  51.449  1.00  0.00    -0.179 NA
HETATM   10  C   UNL     1       5.299  26.223  52.722  1.00  0.00     0.199 A 
HETATM   11  O   UNL     1       4.709  25.225  52.326  1.00  0.00    -0.287 OA
HETATM   12  C   UNL     1       5.951  26.260  54.090  1.00  0.00     0.020 A 
HETATM   13  H   UNL     1       7.239  29.281  53.853  1.00  0.00     0.167 HD
HETATM   14  H   UNL     1       5.716  30.388  51.867  1.00  0.00     0.155 HD
ENDROOT
BRANCH  12  15
HETATM   15  C   UNL     1       5.858  24.985  54.900  1.00  0.00     0.085 C 
BRANCH  15  16
HETATM   16  C   UNL     1       7.006  24.018  54.669  1.00  0.00    -0.032 A 
HETATM   17  C   UNL     1       7.992  23.740  55.631  1.00  0.00     0.040 A 
HETATM   18 CL   UNL     1       8.012  24.489  57.190  1.00  0.00    -0.084 Cl
HETATM   19  C   UNL     1       9.031  22.843  55.353  1.00  0.00     0.024 A 
HETATM   20  C   UNL     1       9.110  22.216  54.111  1.00  0.00     0.002 A 
HETATM   21  C   UNL     1       8.154  22.491  53.141  1.00  0.00     0.001 A 
HETATM   22  C   UNL     1       7.116  23.385  53.415  1.00  0.00     0.009 A 
ENDBRANCH  15  16
ENDBRANCH  12  15
BRANCH   8  23
HETATM   23  C   UNL     1       5.148  29.927  49.220  1.00  0.00     0.055 A 
HETATM   24  C   UNL     1       4.717  29.403  47.995  1.00  0.00     0.031 A 
HETATM   25  C   UNL     1       4.534  30.230  46.882  1.00  0.00     0.002 A 
HETATM   26  C   UNL     1       4.784  31.595  46.975  1.00  0.00     0.000 A 
HETATM   27  C   UNL     1       5.219  32.135  48.183  1.00  0.00     0.002 A 
HETATM   28  C   UNL     1       5.399  31.307  49.295  1.00  0.00     0.031 A 
ENDBRANCH   8  23
TORSDOF 3
ENDMDL
MODEL 8
REMARK VINA RESULT:      -9.2      2.898      4.409
REMARK  3 active torsions:
REMARK  status: ('A' for Active; 'I' for Inactive)
REMARK    1  A    between atoms: N_8  and  C_9 
REMARK    2  A    between atoms: C_18  and  C_19 
REMARK    3  A    between atoms: C_19  and  C_20 
ROOT
HETATM    1  C   UNL     1       9.591  31.694  58.978  1.00  0.00     0.069 C 
HETATM    2  C   UNL     1       8.574  30.717  58.446  1.00  0.00     0.017 A 
HETATM    3  N   UNL     1       9.077  29.504  58.002  1.00  0.00    -0.348 N 
HETATM    4  C   UNL     1       8.275  28.487  57.573  1.00  0.00     0.119 A 
HETATM    5  C   UNL     1       6.947  28.645  57.496  1.00  0.00     0.124 A 
HETATM    6  C   UNL     1       6.399  27.405  56.923  1.00  0.00     0.280 A 
HETATM    7  O   UNL     1       5.222  27.203  56.687  1.00  0.00    -0.265 OA
HETATM    8  N   UNL     1       7.511  26.572  56.720  1.00  0.00    -0.236 N 
HETATM    9  N   UNL     1       8.679  27.234  57.153  1.00  0.00    -0.179 NA
HETATM   10  C   UNL     1       6.319  29.902  57.902  1.00  0.00     0.199 A 
HETATM   11  O   UNL     1       5.107  30.072  57.849  1.00  0.00    -0.287 OA
HETATM   12  C   UNL     1       7.245  30.992  58.403  1.00  0.00     0.020 A 
HETATM   13  H   UNL     1      10.052  29.285  58.180  1.00  0.00     0.167 HD
HETATM   14  H   UNL     1       9.374  27.313  56.410  1.00  0.00     0.155 HD
ENDROOT
BRANCH  12  15
HETATM   15  C   UNL     1       6.573  32.266  58.866  1.00  0.00     0.085 C 
BRANCH  15  16
HETATM   16  C   UNL     1       6.056  32.212  60.294  1.00  0.00    -0.032 A 
HETATM   17  C   UNL     1       4.702  32.368  60.635  1.00  0.00     0.040 A 
HETATM   18 CL   UNL     1       3.470  32.655  59.456  1.00  0.00    -0.084 Cl
HETATM   19  C   UNL     1       4.290  32.316  61.973  1.00  0.00     0.024 A 
HETATM   20  C   UNL     1       5.220  32.119  62.991  1.00  0.00     0.002 A 
HETATM   21  C   UNL     1       6.567  31.979  62.675  1.00  0.00     0.001 A 
HETATM   22  C   UNL     1       6.980  32.031  61.342  1.00  0.00     0.009 A 
ENDBRANCH  15  16
ENDBRANCH  12  15
BRANCH   8  23
HETATM   23  C   UNL     1       7.571  25.248  56.231  1.00  0.00     0.055 A 
HETATM   24  C   UNL     1       8.083  24.206  57.014  1.00  0.00     0.031 A 
HETATM   25  C   UNL     1       8.133  22.897  56.526  1.00  0.00     0.002 A 
HETATM   26  C   UNL     1       7.677  22.609  55.244  1.00  0.00     0.000 A 
HETATM   27  C   UNL     1       7.169  23.633  54.448  1.00  0.00     0.002 A 
HETATM   28  C   UNL     1       7.117  24.941  54.938  1.00  0.00     0.031 A 
ENDBRANCH   8  23
TORSDOF 3
ENDMDL
MODEL 9
REMARK VINA RESULT:      -9.2      3.729      5.170
REMARK  3 active torsions:
REMARK  status: ('A' for Active; 'I' for Inactive)
REMARK    1  A    between atoms: N_8  and  C_9 
REMARK    2  A    between atoms: C_18  and  C_19 
REMARK    3  A    between atoms: C_19  and  C_20 
ROOT
HETATM    1  C   UNL     1       8.056  25.362  56.662  1.00  0.00     0.069 C 
HETATM    2  C   UNL     1       7.419  26.357  55.727  1.00  0.00     0.017 A 
HETATM    3  N   UNL     1       7.191  25.911  54.434  1.00  0.00    -0.348 N 
HETATM    4  C   UNL     1       6.547  26.665  53.498  1.00  0.00     0.119 A 
HETATM    5  C   UNL     1       6.160  27.918  53.772  1.00  0.00     0.124 A 
HETATM    6  C   UNL     1       5.580  28.468  52.536  1.00  0.00     0.280 A 
HETATM    7  O   UNL     1       5.144  29.598  52.410  1.00  0.00    -0.265 OA
HETATM    8  N   UNL     1       5.663  27.428  51.596  1.00  0.00    -0.236 N 
HETATM    9  N   UNL     1       6.239  26.292  52.203  1.00  0.00    -0.179 NA
HETATM   10  C   UNL     1       6.389  28.498  55.095  1.00  0.00     0.199 A 
HETATM   11  O   UNL     1       6.039  29.638  55.375  1.00  0.00    -0.287 OA
HETATM   12  C   UNL     1       7.078  27.614  56.113  1.00  0.00     0.020 A 
HETATM   13  H   UNL     1       7.331  24.927  54.226  1.00  0.00     0.167 HD
HETATM   14  H   UNL     1       7.077  25.978  51.713  1.00  0.00     0.155 HD
ENDROOT
BRANCH  12  15
HETATM   15  C   UNL     1       7.262  28.213  57.490  1.00  0.00     0.085 C 
BRANCH  15  16
HETATM   16  C   UNL     1       8.458  29.141  57.609  1.00  0.00    -0.032 A 
HETATM   17  C   UNL     1       8.429  30.360  58.308  1.00  0.00     0.040 A 
HETATM   18 CL   UNL     1       7.009  30.946  59.102  1.00  0.00    -0.084 Cl
HETATM   19  C   UNL     1       9.566  31.176  58.373  1.00  0.00     0.024 A 
HETATM   20  C   UNL     1      10.746  30.796  57.737  1.00  0.00     0.002 A 
HETATM   21  C   UNL     1      10.790  29.602  57.027  1.00  0.00     0.001 A 
HETATM   22  C   UNL     1       9.658  28.786  56.960  1.00  0.00     0.009 A 
ENDBRANCH  15  16
ENDBRANCH  12  15
BRANCH   8  23
HETATM   23  C   UNL     1       5.221  27.384  50.256  1.00  0.00     0.055 A 
HETATM   24  C   UNL     1       4.543  26.268  49.750  1.00  0.00     0.031 A 
HETATM   25  C   UNL     1       4.102  26.236  48.423  1.00  0.00     0.002 A 
HETATM   26  C   UNL     1       4.337  27.316  47.579  1.00  0.00     0.000 A 
HETATM   27  C   UNL     1       5.015  28.432  48.062  1.00  0.00     0.002 A 
HETATM   28  C   UNL     1       5.453  28.465  49.390  1.00  0.00     0.031 A 
ENDBRANCH   8  23
TORSDOF 3
ENDMDL
MODEL 10
REMARK VINA RESULT:      -8.9      2.511      3.451
REMARK  3 active torsions:
REMARK  status: ('A' for Active; 'I' for Inactive)
REMARK    1  A    between atoms: N_8  and  C_9 
REMARK    2  A    between atoms: C_18  and  C_19 
REMARK    3  A    between atoms: C_19  and  C_20 
ROOT
HETATM    1  C   UNL     1       8.183  29.425  58.523  1.00  0.00     0.069 C 
HETATM    2  C   UNL     1       7.749  28.599  57.340  1.00  0.00     0.017 A 
HETATM    3  N   UNL     1       8.158  27.275  57.345  1.00  0.00    -0.348 N 
HETATM    4  C   UNL     1       7.775  26.382  56.388  1.00  0.00     0.119 A 
HETATM    5  C   UNL     1       7.028  26.770  55.346  1.00  0.00     0.124 A 
HETATM    6  C   UNL     1       6.868  25.597  54.472  1.00  0.00     0.280 A 
HETATM    7  O   UNL     1       6.264  25.588  53.414  1.00  0.00    -0.265 OA
HETATM    8  N   UNL     1       7.555  24.558  55.120  1.00  0.00    -0.236 N 
HETATM    9  N   UNL     1       8.096  25.039  56.331  1.00  0.00    -0.179 NA
HETATM   10  C   UNL     1       6.577  28.156  55.224  1.00  0.00     0.199 A 
HETATM   11  O   UNL     1       5.887  28.537  54.286  1.00  0.00    -0.287 OA
HETATM   12  C   UNL     1       6.999  29.105  56.327  1.00  0.00     0.020 A 
HETATM   13  H   UNL     1       8.596  26.903  58.182  1.00  0.00     0.167 HD
HETATM   14  H   UNL     1       9.108  24.911  56.377  1.00  0.00     0.155 HD
ENDROOT
BRANCH  12  15
HETATM   15  C   UNL     1       6.481  30.522  56.211  1.00  0.00     0.085 C 
BRANCH  15  16
HETATM   16  C   UNL     1       5.558  30.940  57.343  1.00  0.00    -0.032 A 
HETATM   17  C   UNL     1       4.248  30.456  57.495  1.00  0.00     0.040 A 
HETATM   18 CL   UNL     1       3.534  29.332  56.391  1.00  0.00    -0.084 Cl
HETATM   19  C   UNL     1       3.443  30.888  58.557  1.00  0.00     0.024 A 
HETATM   20  C   UNL     1       3.926  31.816  59.477  1.00  0.00     0.002 A 
HETATM   21  C   UNL     1       5.214  32.319  59.334  1.00  0.00     0.001 A 
HETATM   22  C   UNL     1       6.019  31.890  58.276  1.00  0.00     0.009 A 
ENDBRANCH  15  16
ENDBRANCH  12  15
BRANCH   8  23
HETATM   23  C   UNL     1       7.697  23.202  54.754  1.00  0.00     0.055 A 
HETATM   24  C   UNL     1       7.599  22.178  55.704  1.00  0.00     0.031 A 
HETATM   25  C   UNL     1       7.734  20.836  55.332  1.00  0.00     0.002 A 
HETATM   26  C   UNL     1       7.976  20.498  54.005  1.00  0.00     0.000 A 
HETATM   27  C   UNL     1       8.084  21.502  53.047  1.00  0.00     0.002 A 
HETATM   28  C   UNL     1       7.946  22.843  53.419  1.00  0.00     0.031 A 
ENDBRANCH   8  23
TORSDOF 3
ENDMDL
