MODEL 1
REMARK VINA RESULT:     -10.3      0.000      0.000
REMARK  7 active torsions:
REMARK  status: ('A' for Active; 'I' for Inactive)
REMARK       I    between atoms: C_2  and  N_3 
REMARK    1  A    between atoms: C_2  and  C_11 
REMARK    2  A    between atoms: N_3  and  C_4 
REMARK    3  A    between atoms: C_4  and  C_5 
REMARK    4  A    between atoms: C_15  and  N_16 
REMARK    5  A    between atoms: N_16  and  C_17 
REMARK    6  A    between atoms: C_17  and  C_18 
REMARK    7  A    between atoms: C_20  and  C_24 
ROOT
HETATM    1  C   UNL     1       9.334  30.275  58.071  1.00  0.00     0.033 A 
HETATM    2  C   UNL     1      10.040  30.285  56.864  1.00  0.00     0.017 A 
HETATM    3  C   UNL     1       9.700  29.380  55.863  1.00  0.00     0.003 A 
HETATM    4  C   UNL     1       8.668  28.461  56.076  1.00  0.00     0.023 A 
HETATM    5  C   UNL     1       7.970  28.409  57.293  1.00  0.00     0.009 A 
HETATM    6  C   UNL     1       8.288  29.360  58.269  1.00  0.00     0.040 A 
ENDROOT
BRANCH   5   7
HETATM    7  N   UNL     1       6.904  27.508  57.407  1.00  0.00    -0.286 NA
HETATM    8  H   UNL     1       6.339  27.499  56.557  1.00  0.00     0.128 HD
BRANCH   7   9
HETATM    9  C   UNL     1       7.184  26.133  57.823  1.00  0.00     0.171 C 
BRANCH   9  10
HETATM   10  C   UNL     1       7.067  25.171  56.680  1.00  0.00     0.117 A 
HETATM   11  N   UNL     1       7.659  23.999  56.570  1.00  0.00    -0.232 NA
HETATM   12  C   UNL     1       7.314  23.511  55.328  1.00  0.00     0.084 A 
HETATM   13  C   UNL     1       6.498  24.411  54.678  1.00  0.00     0.122 A 
HETATM   14  N   UNL     1       6.360  25.465  55.541  1.00  0.00    -0.351 N 
HETATM   15  H   UNL     1       5.856  26.324  55.368  1.00  0.00     0.166 HD
BRANCH  12  16
HETATM   16  C   UNL     1       7.791  22.232  54.824  1.00  0.00    -0.003 A 
HETATM   17  C   UNL     1       7.851  22.022  53.444  1.00  0.00     0.033 A 
HETATM   18  C   UNL     1       8.296  20.798  52.972  1.00  0.00     0.117 A 
HETATM   19  N   UNL     1       8.681  19.783  53.771  1.00  0.00    -0.273 NA
HETATM   20  C   UNL     1       8.618  20.004  55.101  1.00  0.00     0.117 A 
HETATM   21  C   UNL     1       8.186  21.194  55.669  1.00  0.00     0.033 A 
ENDBRANCH  12  16
ENDBRANCH   9  10
ENDBRANCH   7   9
ENDBRANCH   5   7
BRANCH   1  22
HETATM   22  C   UNL     1       9.633  31.255  59.151  1.00  0.00     0.251 C 
HETATM   23  O   UNL     1      10.098  32.354  58.871  1.00  0.00    -0.268 OA
HETATM   24  N   UNL     1       9.331  30.848  60.432  1.00  0.00    -0.353 N 
HETATM   25  H   UNL     1       8.734  30.044  60.560  1.00  0.00     0.163 HD
BRANCH  24  26
HETATM   26  C   UNL     1       9.502  31.727  61.567  1.00  0.00     0.161 C 
BRANCH  26  27
HETATM   27  C   UNL     1       8.176  32.103  62.174  1.00  0.00    -0.041 A 
HETATM   28  C   UNL     1       6.981  31.924  61.464  1.00  0.00     0.009 A 
HETATM   29  C   UNL     1       5.758  32.281  62.037  1.00  0.00     0.001 A 
HETATM   30  C   UNL     1       5.720  32.826  63.320  1.00  0.00     0.000 A 
HETATM   31  C   UNL     1       6.902  33.020  64.029  1.00  0.00     0.001 A 
HETATM   32  C   UNL     1       8.124  32.665  63.459  1.00  0.00     0.009 A 
ENDBRANCH  26  27
ENDBRANCH  24  26
ENDBRANCH   1  22
TORSDOF 7
ENDMDL
MODEL 2
REMARK VINA RESULT:     -10.2      2.426     10.901
REMARK  7 active torsions:
REMARK  status: ('A' for Active; 'I' for Inactive)
REMARK       I    between atoms: C_2  and  N_3 
REMARK    1  A    between atoms: C_2  and  C_11 
REMARK    2  A    between atoms: N_3  and  C_4 
REMARK    3  A    between atoms: C_4  and  C_5 
REMARK    4  A    between atoms: C_15  and  N_16 
REMARK    5  A    between atoms: N_16  and  C_17 
REMARK    6  A    between atoms: C_17  and  C_18 
REMARK    7  A    between atoms: C_20  and  C_24 
ROOT
HETATM    1  C   UNL     1       8.442  28.783  55.969  1.00  0.00     0.033 A 
HETATM    2  C   UNL     1       9.684  29.342  55.650  1.00  0.00     0.017 A 
HETATM    3  C   UNL     1      10.404  30.018  56.630  1.00  0.00     0.003 A 
HETATM    4  C   UNL     1       9.877  30.145  57.918  1.00  0.00     0.023 A 
HETATM    5  C   UNL     1       8.617  29.625  58.251  1.00  0.00     0.009 A 
HETATM    6  C   UNL     1       7.929  28.902  57.270  1.00  0.00     0.040 A 
ENDROOT
BRANCH   5   7
HETATM    7  N   UNL     1       8.186  29.732  59.580  1.00  0.00    -0.286 NA
HETATM    8  H   UNL     1       8.246  28.833  60.058  1.00  0.00     0.128 HD
BRANCH   7   9
HETATM    9  C   UNL     1       8.762  30.777  60.426  1.00  0.00     0.171 C 
BRANCH   9  10
HETATM   10  C   UNL     1       7.710  31.506  61.205  1.00  0.00     0.117 A 
HETATM   11  N   UNL     1       7.805  31.943  62.445  1.00  0.00    -0.232 NA
HETATM   12  C   UNL     1       6.576  32.481  62.757  1.00  0.00     0.084 A 
HETATM   13  C   UNL     1       5.723  32.363  61.681  1.00  0.00     0.122 A 
HETATM   14  N   UNL     1       6.451  31.731  60.708  1.00  0.00    -0.351 N 
HETATM   15  H   UNL     1       6.121  31.449  59.795  1.00  0.00     0.166 HD
BRANCH  12  16
HETATM   16  C   UNL     1       6.275  33.058  64.058  1.00  0.00    -0.003 A 
HETATM   17  C   UNL     1       4.942  33.264  64.422  1.00  0.00     0.033 A 
HETATM   18  C   UNL     1       4.665  33.822  65.659  1.00  0.00     0.117 A 
HETATM   19  N   UNL     1       5.613  34.185  66.546  1.00  0.00    -0.273 NA
HETATM   20  C   UNL     1       6.895  33.977  66.178  1.00  0.00     0.117 A 
HETATM   21  C   UNL     1       7.272  33.424  64.964  1.00  0.00     0.033 A 
ENDBRANCH  12  16
ENDBRANCH   9  10
ENDBRANCH   7   9
ENDBRANCH   5   7
BRANCH   1  22
HETATM   22  C   UNL     1       7.659  28.013  54.965  1.00  0.00     0.251 C 
HETATM   23  O   UNL     1       7.828  28.215  53.768  1.00  0.00    -0.268 OA
HETATM   24  N   UNL     1       6.786  27.076  55.474  1.00  0.00    -0.353 N 
HETATM   25  H   UNL     1       6.880  26.798  56.440  1.00  0.00     0.163 HD
BRANCH  24  26
HETATM   26  C   UNL     1       6.019  26.208  54.610  1.00  0.00     0.161 C 
BRANCH  26  27
HETATM   27  C   UNL     1       6.734  24.905  54.364  1.00  0.00    -0.041 A 
HETATM   28  C   UNL     1       6.988  24.013  55.415  1.00  0.00     0.009 A 
HETATM   29  C   UNL     1       7.657  22.810  55.175  1.00  0.00     0.001 A 
HETATM   30  C   UNL     1       8.082  22.492  53.887  1.00  0.00     0.000 A 
HETATM   31  C   UNL     1       7.847  23.378  52.838  1.00  0.00     0.001 A 
HETATM   32  C   UNL     1       7.181  24.579  53.075  1.00  0.00     0.009 A 
ENDBRANCH  26  27
ENDBRANCH  24  26
ENDBRANCH   1  22
TORSDOF 7
ENDMDL
MODEL 3
REMARK VINA RESULT:     -10.2      2.393     11.032
REMARK  7 active torsions:
REMARK  status: ('A' for Active; 'I' for Inactive)
REMARK       I    between atoms: C_2  and  N_3 
REMARK    1  A    between atoms: C_2  and  C_11 
REMARK    2  A    between atoms: N_3  and  C_4 
REMARK    3  A    between atoms: C_4  and  C_5 
REMARK    4  A    between atoms: C_15  and  N_16 
REMARK    5  A    between atoms: N_16  and  C_17 
REMARK    6  A    between atoms: C_17  and  C_18 
REMARK    7  A    between atoms: C_20  and  C_24 
ROOT
HETATM    1  C   UNL     1       7.563  26.519  56.438  1.00  0.00     0.033 A 
HETATM    2  C   UNL     1       7.495  27.020  55.134  1.00  0.00     0.017 A 
HETATM    3  C   UNL     1       7.833  28.348  54.892  1.00  0.00     0.003 A 
HETATM    4  C   UNL     1       8.225  29.172  55.951  1.00  0.00     0.023 A 
HETATM    5  C   UNL     1       8.265  28.700  57.273  1.00  0.00     0.009 A 
HETATM    6  C   UNL     1       7.973  27.349  57.492  1.00  0.00     0.040 A 
ENDROOT
BRANCH   5   7
HETATM    7  N   UNL     1       8.732  29.565  58.271  1.00  0.00    -0.286 NA
HETATM    8  H   UNL     1       9.677  29.889  58.062  1.00  0.00     0.128 HD
BRANCH   7   9
HETATM    9  C   UNL     1       7.900  30.702  58.665  1.00  0.00     0.171 C 
BRANCH   9  10
HETATM   10  C   UNL     1       7.929  30.925  60.146  1.00  0.00     0.117 A 
HETATM   11  N   UNL     1       7.141  31.720  60.842  1.00  0.00    -0.232 NA
HETATM   12  C   UNL     1       7.582  31.654  62.145  1.00  0.00     0.084 A 
HETATM   13  C   UNL     1       8.661  30.801  62.234  1.00  0.00     0.122 A 
HETATM   14  N   UNL     1       8.878  30.356  60.957  1.00  0.00    -0.351 N 
HETATM   15  H   UNL     1       9.620  29.742  60.651  1.00  0.00     0.166 HD
BRANCH  12  16
HETATM   16  C   UNL     1       6.971  32.415  63.224  1.00  0.00    -0.003 A 
HETATM   17  C   UNL     1       7.790  33.031  64.174  1.00  0.00     0.033 A 
HETATM   18  C   UNL     1       7.199  33.745  65.203  1.00  0.00     0.117 A 
HETATM   19  N   UNL     1       5.866  33.885  65.349  1.00  0.00    -0.273 NA
HETATM   20  C   UNL     1       5.091  33.284  64.422  1.00  0.00     0.117 A 
HETATM   21  C   UNL     1       5.588  32.549  63.355  1.00  0.00     0.033 A 
ENDBRANCH  12  16
ENDBRANCH   9  10
ENDBRANCH   7   9
ENDBRANCH   5   7
BRANCH   1  22
HETATM   22  C   UNL     1       7.254  25.094  56.736  1.00  0.00     0.251 C 
HETATM   23  O   UNL     1       6.120  24.768  57.068  1.00  0.00    -0.268 OA
HETATM   24  N   UNL     1       8.300  24.208  56.586  1.00  0.00    -0.353 N 
HETATM   25  H   UNL     1       9.122  24.506  56.081  1.00  0.00     0.163 HD
BRANCH  24  26
HETATM   26  C   UNL     1       8.121  22.786  56.771  1.00  0.00     0.161 C 
BRANCH  26  27
HETATM   27  C   UNL     1       8.176  22.050  55.458  1.00  0.00    -0.041 A 
HETATM   28  C   UNL     1       8.625  20.724  55.393  1.00  0.00     0.009 A 
HETATM   29  C   UNL     1       8.676  20.054  54.168  1.00  0.00     0.001 A 
HETATM   30  C   UNL     1       8.285  20.704  53.000  1.00  0.00     0.000 A 
HETATM   31  C   UNL     1       7.848  22.026  53.051  1.00  0.00     0.001 A 
HETATM   32  C   UNL     1       7.798  22.697  54.272  1.00  0.00     0.009 A 
ENDBRANCH  26  27
ENDBRANCH  24  26
ENDBRANCH   1  22
TORSDOF 7
ENDMDL
MODEL 4
REMARK VINA RESULT:     -10.0      1.448      2.045
REMARK  7 active torsions:
REMARK  status: ('A' for Active; 'I' for Inactive)
REMARK       I    between atoms: C_2  and  N_3 
REMARK    1  A    between atoms: C_2  and  C_11 
REMARK    2  A    between atoms: N_3  and  C_4 
REMARK    3  A    between atoms: C_4  and  C_5 
REMARK    4  A    between atoms: C_15  and  N_16 
REMARK    5  A    between atoms: N_16  and  C_17 
REMARK    6  A    between atoms: C_17  and  C_18 
REMARK    7  A    between atoms: C_20  and  C_24 
ROOT
HETATM    1  C   UNL     1       7.228  30.832  58.441  1.00  0.00     0.033 A 
HETATM    2  C   UNL     1       6.098  31.487  57.941  1.00  0.00     0.017 A 
HETATM    3  C   UNL     1       5.352  30.891  56.929  1.00  0.00     0.003 A 
HETATM    4  C   UNL     1       5.743  29.653  56.412  1.00  0.00     0.023 A 
HETATM    5  C   UNL     1       6.894  28.994  56.872  1.00  0.00     0.009 A 
HETATM    6  C   UNL     1       7.603  29.581  57.927  1.00  0.00     0.040 A 
ENDROOT
BRANCH   5   7
HETATM    7  N   UNL     1       7.184  27.726  56.354  1.00  0.00    -0.286 NA
HETATM    8  H   UNL     1       8.183  27.525  56.414  1.00  0.00     0.128 HD
BRANCH   7   9
HETATM    9  C   UNL     1       6.423  26.574  56.841  1.00  0.00     0.171 C 
BRANCH   9  10
HETATM   10  C   UNL     1       7.189  25.296  56.685  1.00  0.00     0.117 A 
HETATM   11  N   UNL     1       7.126  24.456  55.672  1.00  0.00    -0.232 NA
HETATM   12  C   UNL     1       7.946  23.398  56.000  1.00  0.00     0.084 A 
HETATM   13  C   UNL     1       8.512  23.607  57.238  1.00  0.00     0.122 A 
HETATM   14  N   UNL     1       8.013  24.808  57.667  1.00  0.00    -0.351 N 
HETATM   15  H   UNL     1       8.191  25.251  58.559  1.00  0.00     0.166 HD
BRANCH  12  16
HETATM   16  C   UNL     1       8.130  22.245  55.132  1.00  0.00    -0.003 A 
HETATM   17  C   UNL     1       8.610  21.051  55.676  1.00  0.00     0.033 A 
HETATM   18  C   UNL     1       8.792  19.961  54.840  1.00  0.00     0.117 A 
HETATM   19  N   UNL     1       8.531  19.980  53.517  1.00  0.00    -0.273 NA
HETATM   20  C   UNL     1       8.067  21.141  53.010  1.00  0.00     0.117 A 
HETATM   21  C   UNL     1       7.852  22.285  53.764  1.00  0.00     0.033 A 
ENDBRANCH  12  16
ENDBRANCH   9  10
ENDBRANCH   7   9
ENDBRANCH   5   7
BRANCH   1  22
HETATM   22  C   UNL     1       8.029  31.410  59.553  1.00  0.00     0.251 C 
HETATM   23  O   UNL     1       8.773  32.362  59.344  1.00  0.00    -0.268 OA
HETATM   24  N   UNL     1       7.851  30.827  60.789  1.00  0.00    -0.353 N 
HETATM   25  H   UNL     1       7.055  30.223  60.932  1.00  0.00     0.163 HD
BRANCH  24  26
HETATM   26  C   UNL     1       8.510  31.337  61.970  1.00  0.00     0.161 C 
BRANCH  26  27
HETATM   27  C   UNL     1       7.537  32.037  62.883  1.00  0.00    -0.041 A 
HETATM   28  C   UNL     1       6.154  31.869  62.728  1.00  0.00     0.009 A 
HETATM   29  C   UNL     1       5.262  32.527  63.578  1.00  0.00     0.001 A 
HETATM   30  C   UNL     1       5.744  33.362  64.584  1.00  0.00     0.000 A 
HETATM   31  C   UNL     1       7.116  33.547  64.739  1.00  0.00     0.001 A 
HETATM   32  C   UNL     1       8.008  32.892  63.891  1.00  0.00     0.009 A 
ENDBRANCH  26  27
ENDBRANCH  24  26
ENDBRANCH   1  22
TORSDOF 7
ENDMDL
MODEL 5
REMARK VINA RESULT:      -9.8      1.512      2.209
REMARK  7 active torsions:
REMARK  status: ('A' for Active; 'I' for Inactive)
REMARK       I    between atoms: C_2  and  N_3 
REMARK    1  A    between atoms: C_2  and  C_11 
REMARK    2  A    between atoms: N_3  and  C_4 
REMARK    3  A    between atoms: C_4  and  C_5 
REMARK    4  A    between atoms: C_15  and  N_16 
REMARK    5  A    between atoms: N_16  and  C_17 
REMARK    6  A    between atoms: C_17  and  C_18 
REMARK    7  A    between atoms: C_20  and  C_24 
ROOT
HETATM    1  C   UNL     1       7.046  30.591  58.215  1.00  0.00     0.033 A 
HETATM    2  C   UNL     1       8.421  30.347  58.306  1.00  0.00     0.017 A 
HETATM    3  C   UNL     1       8.953  29.197  57.730  1.00  0.00     0.003 A 
HETATM    4  C   UNL     1       8.111  28.291  57.079  1.00  0.00     0.023 A 
HETATM    5  C   UNL     1       6.724  28.497  57.007  1.00  0.00     0.009 A 
HETATM    6  C   UNL     1       6.212  29.684  57.544  1.00  0.00     0.040 A 
ENDROOT
BRANCH   5   7
HETATM    7  N   UNL     1       5.955  27.580  56.279  1.00  0.00    -0.286 NA
HETATM    8  H   UNL     1       6.189  27.614  55.285  1.00  0.00     0.128 HD
BRANCH   7   9
HETATM    9  C   UNL     1       5.909  26.187  56.724  1.00  0.00     0.171 C 
BRANCH   9  10
HETATM   10  C   UNL     1       6.362  25.245  55.651  1.00  0.00     0.117 A 
HETATM   11  N   UNL     1       6.794  24.010  55.814  1.00  0.00    -0.232 NA
HETATM   12  C   UNL     1       7.161  23.565  54.563  1.00  0.00     0.084 A 
HETATM   13  C   UNL     1       6.947  24.555  53.628  1.00  0.00     0.122 A 
HETATM   14  N   UNL     1       6.452  25.619  54.334  1.00  0.00    -0.351 N 
HETATM   15  H   UNL     1       6.220  26.531  53.966  1.00  0.00     0.166 HD
BRANCH  12  16
HETATM   16  C   UNL     1       7.711  22.239  54.329  1.00  0.00    -0.003 A 
HETATM   17  C   UNL     1       8.100  21.458  55.421  1.00  0.00     0.033 A 
HETATM   18  C   UNL     1       8.632  20.201  55.188  1.00  0.00     0.117 A 
HETATM   19  N   UNL     1       8.800  19.674  53.958  1.00  0.00    -0.273 NA
HETATM   20  C   UNL     1       8.417  20.441  52.916  1.00  0.00     0.117 A 
HETATM   21  C   UNL     1       7.875  21.711  53.047  1.00  0.00     0.033 A 
ENDBRANCH  12  16
ENDBRANCH   9  10
ENDBRANCH   7   9
ENDBRANCH   5   7
BRANCH   1  22
HETATM   22  C   UNL     1       6.442  31.829  58.777  1.00  0.00     0.251 C 
HETATM   23  O   UNL     1       6.072  32.726  58.027  1.00  0.00    -0.268 OA
HETATM   24  N   UNL     1       6.314  31.867  60.148  1.00  0.00    -0.353 N 
HETATM   25  H   UNL     1       6.410  31.008  60.670  1.00  0.00     0.163 HD
BRANCH  24  26
HETATM   26  C   UNL     1       5.677  32.977  60.819  1.00  0.00     0.161 C 
BRANCH  26  27
HETATM   27  C   UNL     1       6.254  33.192  62.194  1.00  0.00    -0.041 A 
HETATM   28  C   UNL     1       7.502  32.657  62.544  1.00  0.00     0.009 A 
HETATM   29  C   UNL     1       8.024  32.859  63.824  1.00  0.00     0.001 A 
HETATM   30  C   UNL     1       7.303  33.591  64.765  1.00  0.00     0.000 A 
HETATM   31  C   UNL     1       6.056  34.117  64.432  1.00  0.00     0.001 A 
HETATM   32  C   UNL     1       5.532  33.915  63.156  1.00  0.00     0.009 A 
ENDBRANCH  26  27
ENDBRANCH  24  26
ENDBRANCH   1  22
TORSDOF 7
ENDMDL
MODEL 6
REMARK VINA RESULT:      -9.8      2.442     11.058
REMARK  7 active torsions:
REMARK  status: ('A' for Active; 'I' for Inactive)
REMARK       I    between atoms: C_2  and  N_3 
REMARK    1  A    between atoms: C_2  and  C_11 
REMARK    2  A    between atoms: N_3  and  C_4 
REMARK    3  A    between atoms: C_4  and  C_5 
REMARK    4  A    between atoms: C_15  and  N_16 
REMARK    5  A    between atoms: N_16  and  C_17 
REMARK    6  A    between atoms: C_17  and  C_18 
REMARK    7  A    between atoms: C_20  and  C_24 
ROOT
HETATM    1  C   UNL     1       6.550  27.037  55.298  1.00  0.00     0.033 A 
HETATM    2  C   UNL     1       5.203  27.407  55.345  1.00  0.00     0.017 A 
HETATM    3  C   UNL     1       4.753  28.228  56.375  1.00  0.00     0.003 A 
HETATM    4  C   UNL     1       5.645  28.665  57.358  1.00  0.00     0.023 A 
HETATM    5  C   UNL     1       6.994  28.276  57.352  1.00  0.00     0.009 A 
HETATM    6  C   UNL     1       7.442  27.494  56.281  1.00  0.00     0.040 A 
ENDROOT
BRANCH   5   7
HETATM    7  N   UNL     1       7.841  28.809  58.331  1.00  0.00    -0.286 NA
HETATM    8  H   UNL     1       8.728  28.304  58.362  1.00  0.00     0.128 HD
BRANCH   7   9
HETATM    9  C   UNL     1       8.098  30.250  58.334  1.00  0.00     0.171 C 
BRANCH   9  10
HETATM   10  C   UNL     1       8.247  30.785  59.726  1.00  0.00     0.117 A 
HETATM   11  N   UNL     1       7.452  31.645  60.331  1.00  0.00    -0.232 NA
HETATM   12  C   UNL     1       8.022  31.893  61.560  1.00  0.00     0.084 A 
HETATM   13  C   UNL     1       9.185  31.167  61.696  1.00  0.00     0.122 A 
HETATM   14  N   UNL     1       9.322  30.478  60.520  1.00  0.00    -0.351 N 
HETATM   15  H   UNL     1      10.090  29.873  60.262  1.00  0.00     0.166 HD
BRANCH  12  16
HETATM   16  C   UNL     1       7.443  32.816  62.525  1.00  0.00    -0.003 A 
HETATM   17  C   UNL     1       7.855  32.756  63.859  1.00  0.00     0.033 A 
HETATM   18  C   UNL     1       7.291  33.631  64.772  1.00  0.00     0.117 A 
HETATM   19  N   UNL     1       6.358  34.550  64.452  1.00  0.00    -0.273 NA
HETATM   20  C   UNL     1       5.974  34.595  63.159  1.00  0.00     0.117 A 
HETATM   21  C   UNL     1       6.479  33.762  62.172  1.00  0.00     0.033 A 
ENDBRANCH  12  16
ENDBRANCH   9  10
ENDBRANCH   7   9
ENDBRANCH   5   7
BRANCH   1  22
HETATM   22  C   UNL     1       7.084  26.198  54.191  1.00  0.00     0.251 C 
HETATM   23  O   UNL     1       7.915  26.659  53.417  1.00  0.00    -0.268 OA
HETATM   24  N   UNL     1       6.605  24.907  54.130  1.00  0.00    -0.353 N 
HETATM   25  H   UNL     1       6.120  24.529  54.931  1.00  0.00     0.163 HD
BRANCH  24  26
HETATM   26  C   UNL     1       7.093  23.963  53.151  1.00  0.00     0.161 C 
BRANCH  26  27
HETATM   27  C   UNL     1       7.534  22.678  53.800  1.00  0.00    -0.041 A 
HETATM   28  C   UNL     1       7.926  21.576  53.026  1.00  0.00     0.009 A 
HETATM   29  C   UNL     1       8.328  20.388  53.639  1.00  0.00     0.001 A 
HETATM   30  C   UNL     1       8.337  20.287  55.029  1.00  0.00     0.000 A 
HETATM   31  C   UNL     1       7.937  21.371  55.808  1.00  0.00     0.001 A 
HETATM   32  C   UNL     1       7.534  22.558  55.198  1.00  0.00     0.009 A 
ENDBRANCH  26  27
ENDBRANCH  24  26
ENDBRANCH   1  22
TORSDOF 7
ENDMDL
MODEL 7
REMARK VINA RESULT:      -9.7      2.218      2.882
REMARK  7 active torsions:
REMARK  status: ('A' for Active; 'I' for Inactive)
REMARK       I    between atoms: C_2  and  N_3 
REMARK    1  A    between atoms: C_2  and  C_11 
REMARK    2  A    between atoms: N_3  and  C_4 
REMARK    3  A    between atoms: C_4  and  C_5 
REMARK    4  A    between atoms: C_15  and  N_16 
REMARK    5  A    between atoms: N_16  and  C_17 
REMARK    6  A    between atoms: C_17  and  C_18 
REMARK    7  A    between atoms: C_20  and  C_24 
ROOT
HETATM    1  C   UNL     1       6.280  29.215  57.160  1.00  0.00     0.033 A 
HETATM    2  C   UNL     1       5.438  30.300  56.898  1.00  0.00     0.017 A 
HETATM    3  C   UNL     1       4.401  30.157  55.980  1.00  0.00     0.003 A 
HETATM    4  C   UNL     1       4.218  28.939  55.320  1.00  0.00     0.023 A 
HETATM    5  C   UNL     1       5.073  27.848  55.540  1.00  0.00     0.009 A 
HETATM    6  C   UNL     1       6.077  27.990  56.505  1.00  0.00     0.040 A 
ENDROOT
BRANCH   5   7
HETATM    7  N   UNL     1       4.785  26.639  54.894  1.00  0.00    -0.286 NA
HETATM    8  H   UNL     1       3.822  26.350  55.070  1.00  0.00     0.128 HD
BRANCH   7   9
HETATM    9  C   UNL     1       5.081  26.515  53.466  1.00  0.00     0.171 C 
BRANCH   9  10
HETATM   10  C   UNL     1       6.073  25.425  53.196  1.00  0.00     0.117 A 
HETATM   11  N   UNL     1       6.193  24.286  53.848  1.00  0.00    -0.232 NA
HETATM   12  C   UNL     1       7.278  23.641  53.296  1.00  0.00     0.084 A 
HETATM   13  C   UNL     1       7.822  24.411  52.290  1.00  0.00     0.122 A 
HETATM   14  N   UNL     1       7.056  25.545  52.247  1.00  0.00    -0.351 N 
HETATM   15  H   UNL     1       7.199  26.347  51.647  1.00  0.00     0.166 HD
BRANCH  12  16
HETATM   16  C   UNL     1       7.746  22.346  53.763  1.00  0.00    -0.003 A 
HETATM   17  C   UNL     1       8.237  21.422  52.837  1.00  0.00     0.033 A 
HETATM   18  C   UNL     1       8.671  20.187  53.289  1.00  0.00     0.117 A 
HETATM   19  N   UNL     1       8.651  19.815  54.585  1.00  0.00    -0.273 NA
HETATM   20  C   UNL     1       8.175  20.720  55.465  1.00  0.00     0.117 A 
HETATM   21  C   UNL     1       7.718  21.981  55.110  1.00  0.00     0.033 A 
ENDBRANCH  12  16
ENDBRANCH   9  10
ENDBRANCH   7   9
ENDBRANCH   5   7
BRANCH   1  22
HETATM   22  C   UNL     1       7.372  29.308  58.166  1.00  0.00     0.251 C 
HETATM   23  O   UNL     1       8.224  28.430  58.231  1.00  0.00    -0.268 OA
HETATM   24  N   UNL     1       7.358  30.431  58.966  1.00  0.00    -0.353 N 
HETATM   25  H   UNL     1       6.782  31.215  58.695  1.00  0.00     0.163 HD
BRANCH  24  26
HETATM   26  C   UNL     1       8.401  30.685  59.934  1.00  0.00     0.161 C 
BRANCH  26  27
HETATM   27  C   UNL     1       7.916  31.586  61.039  1.00  0.00    -0.041 A 
HETATM   28  C   UNL     1       6.825  32.445  60.843  1.00  0.00     0.009 A 
HETATM   29  C   UNL     1       6.388  33.279  61.875  1.00  0.00     0.001 A 
HETATM   30  C   UNL     1       7.040  33.268  63.106  1.00  0.00     0.000 A 
HETATM   31  C   UNL     1       8.133  32.428  63.308  1.00  0.00     0.001 A 
HETATM   32  C   UNL     1       8.572  31.595  62.279  1.00  0.00     0.009 A 
ENDBRANCH  26  27
ENDBRANCH  24  26
ENDBRANCH   1  22
TORSDOF 7
ENDMDL
MODEL 8
REMARK VINA RESULT:      -9.4      1.703      2.283
REMARK  7 active torsions:
REMARK  status: ('A' for Active; 'I' for Inactive)
REMARK       I    between atoms: C_2  and  N_3 
REMARK    1  A    between atoms: C_2  and  C_11 
REMARK    2  A    between atoms: N_3  and  C_4 
REMARK    3  A    between atoms: C_4  and  C_5 
REMARK    4  A    between atoms: C_15  and  N_16 
REMARK    5  A    between atoms: N_16  and  C_17 
REMARK    6  A    between atoms: C_17  and  C_18 
REMARK    7  A    between atoms: C_20  and  C_24 
ROOT
HETATM    1  C   UNL     1       9.059  30.642  58.596  1.00  0.00     0.033 A 
HETATM    2  C   UNL     1      10.216  30.896  57.853  1.00  0.00     0.017 A 
HETATM    3  C   UNL     1      10.611  29.995  56.869  1.00  0.00     0.003 A 
HETATM    4  C   UNL     1       9.858  28.840  56.639  1.00  0.00     0.023 A 
HETATM    5  C   UNL     1       8.714  28.546  57.397  1.00  0.00     0.009 A 
HETATM    6  C   UNL     1       8.300  29.487  58.347  1.00  0.00     0.040 A 
ENDROOT
BRANCH   5   7
HETATM    7  N   UNL     1       7.974  27.405  57.064  1.00  0.00    -0.286 NA
HETATM    8  H   UNL     1       7.408  27.091  57.853  1.00  0.00     0.128 HD
BRANCH   7   9
HETATM    9  C   UNL     1       7.154  27.425  55.852  1.00  0.00     0.171 C 
BRANCH   9  10
HETATM   10  C   UNL     1       7.425  26.239  54.977  1.00  0.00     0.117 A 
HETATM   11  N   UNL     1       7.594  24.992  55.366  1.00  0.00    -0.232 NA
HETATM   12  C   UNL     1       7.885  24.272  54.228  1.00  0.00     0.084 A 
HETATM   13  C   UNL     1       7.892  25.106  53.131  1.00  0.00     0.122 A 
HETATM   14  N   UNL     1       7.611  26.353  53.622  1.00  0.00    -0.351 N 
HETATM   15  H   UNL     1       7.575  27.215  53.094  1.00  0.00     0.166 HD
BRANCH  12  16
HETATM   16  C   UNL     1       8.158  22.843  54.248  1.00  0.00    -0.003 A 
HETATM   17  C   UNL     1       8.755  22.278  55.378  1.00  0.00     0.033 A 
HETATM   18  C   UNL     1       9.021  20.919  55.385  1.00  0.00     0.117 A 
HETATM   19  N   UNL     1       8.736  20.094  54.356  1.00  0.00    -0.273 NA
HETATM   20  C   UNL     1       8.158  20.657  53.274  1.00  0.00     0.117 A 
HETATM   21  C   UNL     1       7.853  22.007  53.173  1.00  0.00     0.033 A 
ENDBRANCH  12  16
ENDBRANCH   9  10
ENDBRANCH   7   9
ENDBRANCH   5   7
BRANCH   1  22
HETATM   22  C   UNL     1       8.575  31.599  59.627  1.00  0.00     0.251 C 
HETATM   23  O   UNL     1       9.103  32.699  59.739  1.00  0.00    -0.268 OA
HETATM   24  N   UNL     1       7.511  31.172  60.392  1.00  0.00    -0.353 N 
HETATM   25  H   UNL     1       6.979  30.371  60.083  1.00  0.00     0.163 HD
BRANCH  24  26
HETATM   26  C   UNL     1       6.894  32.030  61.378  1.00  0.00     0.161 C 
BRANCH  26  27
HETATM   27  C   UNL     1       5.703  32.754  60.809  1.00  0.00    -0.041 A 
HETATM   28  C   UNL     1       4.954  32.199  59.761  1.00  0.00     0.009 A 
HETATM   29  C   UNL     1       3.854  32.882  59.238  1.00  0.00     0.001 A 
HETATM   30  C   UNL     1       3.497  34.127  59.752  1.00  0.00     0.000 A 
HETATM   31  C   UNL     1       4.241  34.694  60.785  1.00  0.00     0.001 A 
HETATM   32  C   UNL     1       5.340  34.014  61.307  1.00  0.00     0.009 A 
ENDBRANCH  26  27
ENDBRANCH  24  26
ENDBRANCH   1  22
TORSDOF 7
ENDMDL
MODEL 9
REMARK VINA RESULT:      -9.2      2.795      3.383
REMARK  7 active torsions:
REMARK  status: ('A' for Active; 'I' for Inactive)
REMARK       I    between atoms: C_2  and  N_3 
REMARK    1  A    between atoms: C_2  and  C_11 
REMARK    2  A    between atoms: N_3  and  C_4 
REMARK    3  A    between atoms: C_4  and  C_5 
REMARK    4  A    between atoms: C_15  and  N_16 
REMARK    5  A    between atoms: N_16  and  C_17 
REMARK    6  A    between atoms: C_17  and  C_18 
REMARK    7  A    between atoms: C_20  and  C_24 
ROOT
HETATM    1  C   UNL     1       4.295  30.641  56.994  1.00  0.00     0.033 A 
HETATM    2  C   UNL     1       4.014  31.086  55.698  1.00  0.00     0.017 A 
HETATM    3  C   UNL     1       3.915  30.161  54.663  1.00  0.00     0.003 A 
HETATM    4  C   UNL     1       4.108  28.801  54.921  1.00  0.00     0.023 A 
HETATM    5  C   UNL     1       4.428  28.336  56.207  1.00  0.00     0.009 A 
HETATM    6  C   UNL     1       4.471  29.272  57.247  1.00  0.00     0.040 A 
ENDROOT
BRANCH   5   7
HETATM    7  N   UNL     1       4.540  26.954  56.402  1.00  0.00    -0.286 NA
HETATM    8  H   UNL     1       4.108  26.439  55.634  1.00  0.00     0.128 HD
BRANCH   7   9
HETATM    9  C   UNL     1       5.857  26.387  56.693  1.00  0.00     0.171 C 
BRANCH   9  10
HETATM   10  C   UNL     1       6.279  25.397  55.651  1.00  0.00     0.117 A 
HETATM   11  N   UNL     1       6.742  24.181  55.857  1.00  0.00    -0.232 NA
HETATM   12  C   UNL     1       7.061  23.676  54.616  1.00  0.00     0.084 A 
HETATM   13  C   UNL     1       6.785  24.611  53.642  1.00  0.00     0.122 A 
HETATM   14  N   UNL     1       6.302  25.702  54.313  1.00  0.00    -0.351 N 
HETATM   15  H   UNL     1       6.035  26.590  53.909  1.00  0.00     0.166 HD
BRANCH  12  16
HETATM   16  C   UNL     1       7.625  22.349  54.426  1.00  0.00    -0.003 A 
HETATM   17  C   UNL     1       7.826  21.871  53.128  1.00  0.00     0.033 A 
HETATM   18  C   UNL     1       8.353  20.602  52.957  1.00  0.00     0.117 A 
HETATM   19  N   UNL     1       8.691  19.787  53.976  1.00  0.00    -0.273 NA
HETATM   20  C   UNL     1       8.492  20.266  55.222  1.00  0.00     0.117 A 
HETATM   21  C   UNL     1       7.970  21.521  55.496  1.00  0.00     0.033 A 
ENDBRANCH  12  16
ENDBRANCH   9  10
ENDBRANCH   7   9
ENDBRANCH   5   7
BRANCH   1  22
HETATM   22  C   UNL     1       4.366  31.589  58.139  1.00  0.00     0.251 C 
HETATM   23  O   UNL     1       3.340  32.091  58.584  1.00  0.00    -0.268 OA
HETATM   24  N   UNL     1       5.624  31.822  58.650  1.00  0.00    -0.353 N 
HETATM   25  H   UNL     1       6.375  31.196  58.398  1.00  0.00     0.163 HD
BRANCH  24  26
HETATM   26  C   UNL     1       5.828  32.662  59.808  1.00  0.00     0.161 C 
BRANCH  26  27
HETATM   27  C   UNL     1       7.093  32.294  60.538  1.00  0.00    -0.041 A 
HETATM   28  C   UNL     1       8.342  32.384  59.907  1.00  0.00     0.009 A 
HETATM   29  C   UNL     1       9.507  32.035  60.594  1.00  0.00     0.001 A 
HETATM   30  C   UNL     1       9.434  31.587  61.912  1.00  0.00     0.000 A 
HETATM   31  C   UNL     1       8.197  31.481  62.544  1.00  0.00     0.001 A 
HETATM   32  C   UNL     1       7.033  31.828  61.860  1.00  0.00     0.009 A 
ENDBRANCH  26  27
ENDBRANCH  24  26
ENDBRANCH   1  22
TORSDOF 7
ENDMDL
MODEL 10
REMARK VINA RESULT:      -9.2      6.255     10.292
REMARK  7 active torsions:
REMARK  status: ('A' for Active; 'I' for Inactive)
REMARK       I    between atoms: C_2  and  N_3 
REMARK    1  A    between atoms: C_2  and  C_11 
REMARK    2  A    between atoms: N_3  and  C_4 
REMARK    3  A    between atoms: C_4  and  C_5 
REMARK    4  A    between atoms: C_15  and  N_16 
REMARK    5  A    between atoms: N_16  and  C_17 
REMARK    6  A    between atoms: C_17  and  C_18 
REMARK    7  A    between atoms: C_20  and  C_24 
ROOT
HETATM    1  C   UNL     1       5.669  26.548  55.568  1.00  0.00     0.033 A 
HETATM    2  C   UNL     1       5.145  27.637  56.271  1.00  0.00     0.017 A 
HETATM    3  C   UNL     1       4.330  28.552  55.611  1.00  0.00     0.003 A 
HETATM    4  C   UNL     1       4.052  28.382  54.252  1.00  0.00     0.023 A 
HETATM    5  C   UNL     1       4.596  27.317  53.517  1.00  0.00     0.009 A 
HETATM    6  C   UNL     1       5.370  26.377  54.208  1.00  0.00     0.040 A 
ENDROOT
BRANCH   5   7
HETATM    7  N   UNL     1       4.217  27.175  52.177  1.00  0.00    -0.286 NA
HETATM    8  H   UNL     1       3.419  27.772  51.956  1.00  0.00     0.128 HD
BRANCH   7   9
HETATM    9  C   UNL     1       5.237  27.317  51.137  1.00  0.00     0.171 C 
BRANCH   9  10
HETATM   10  C   UNL     1       4.635  27.331  49.765  1.00  0.00     0.117 A 
HETATM   11  N   UNL     1       3.489  27.876  49.410  1.00  0.00    -0.232 NA
HETATM   12  C   UNL     1       3.319  27.579  48.076  1.00  0.00     0.084 A 
HETATM   13  C   UNL     1       4.387  26.837  47.619  1.00  0.00     0.122 A 
HETATM   14  N   UNL     1       5.207  26.676  48.704  1.00  0.00    -0.351 N 
HETATM   15  H   UNL     1       6.067  26.146  48.736  1.00  0.00     0.166 HD
BRANCH  12  16
HETATM   16  C   UNL     1       2.150  27.997  47.318  1.00  0.00    -0.003 A 
HETATM   17  C   UNL     1       1.955  29.356  47.057  1.00  0.00     0.033 A 
HETATM   18  C   UNL     1       0.834  29.746  46.344  1.00  0.00     0.117 A 
HETATM   19  N   UNL     1      -0.094  28.886  45.878  1.00  0.00    -0.273 NA
HETATM   20  C   UNL     1       0.112  27.578  46.137  1.00  0.00     0.117 A 
HETATM   21  C   UNL     1       1.202  27.090  46.842  1.00  0.00     0.033 A 
ENDBRANCH  12  16
ENDBRANCH   9  10
ENDBRANCH   7   9
ENDBRANCH   5   7
BRANCH   1  22
HETATM   22  C   UNL     1       6.507  25.521  56.244  1.00  0.00     0.251 C 
HETATM   23  O   UNL     1       6.250  25.177  57.392  1.00  0.00    -0.268 OA
HETATM   24  N   UNL     1       7.536  24.995  55.493  1.00  0.00    -0.353 N 
HETATM   25  H   UNL     1       7.534  25.143  54.494  1.00  0.00     0.163 HD
BRANCH  24  26
HETATM   26  C   UNL     1       8.381  23.938  56.000  1.00  0.00     0.161 C 
BRANCH  26  27
HETATM   27  C   UNL     1       8.317  22.715  55.124  1.00  0.00    -0.041 A 
HETATM   28  C   UNL     1       8.023  22.822  53.757  1.00  0.00     0.009 A 
HETATM   29  C   UNL     1       7.962  21.680  52.955  1.00  0.00     0.001 A 
HETATM   30  C   UNL     1       8.187  20.423  53.513  1.00  0.00     0.000 A 
HETATM   31  C   UNL     1       8.468  20.303  54.872  1.00  0.00     0.001 A 
HETATM   32  C   UNL     1       8.528  21.442  55.674  1.00  0.00     0.009 A 
ENDBRANCH  26  27
ENDBRANCH  24  26
ENDBRANCH   1  22
TORSDOF 7
ENDMDL
