MODEL 1
REMARK VINA RESULT:     -10.0      0.000      0.000
REMARK  9 active torsions:
REMARK  status: ('A' for Active; 'I' for Inactive)
REMARK    1  A    between atoms: C_2  and  O_3 
REMARK    2  A    between atoms: O_3  and  C_4 
REMARK    3  A    between atoms: C_4  and  C_5 
REMARK    4  A    between atoms: C_8  and  N_9 
REMARK       I    between atoms: N_9  and  C_10 
REMARK    5  A    between atoms: C_10  and  C_11 
REMARK    6  A    between atoms: C_11  and  C_12 
REMARK    7  A    between atoms: N_13  and  C_14 
REMARK    8  A    between atoms: C_14  and  C_15 
REMARK    9  A    between atoms: N_23  and  C_24 
ROOT
HETATM    1  C   UNL     1       7.101  26.419  54.929  1.00  0.00     0.191 C 
HETATM    2  N   UNL     1       7.577  25.701  56.096  1.00  0.00    -0.315 N 
HETATM    3  C   UNL     1       7.973  26.597  57.091  1.00  0.00     0.333 C 
HETATM    4  O   UNL     1       8.069  26.270  58.263  1.00  0.00    -0.246 OA
HETATM    5  N   UNL     1       8.217  27.818  56.491  1.00  0.00    -0.232 N 
HETATM    6  C   UNL     1       7.848  27.734  55.162  1.00  0.00     0.256 C 
HETATM    7  O   UNL     1       8.003  28.551  54.263  1.00  0.00    -0.270 OA
ENDROOT
BRANCH   1   8
HETATM    8  C   UNL     1       5.591  26.643  54.997  1.00  0.00     0.138 C 
BRANCH   8   9
HETATM    9  C   UNL     1       4.931  26.539  53.639  1.00  0.00     0.224 C 
HETATM   10  N   UNL     1       4.839  27.751  52.975  1.00  0.00    -0.327 N 
HETATM   11  H   UNL     1       5.117  28.585  53.476  1.00  0.00     0.169 HD
HETATM   12  O   UNL     1       4.565  25.450  53.213  1.00  0.00    -0.273 OA
BRANCH  10  13
HETATM   13  C   UNL     1       4.463  27.956  51.627  1.00  0.00     0.034 A 
HETATM   14  C   UNL     1       3.298  28.614  51.231  1.00  0.00     0.030 A 
HETATM   15  C   UNL     1       2.967  28.737  49.873  1.00  0.00     0.020 A 
HETATM   16  C   UNL     1       3.806  28.202  48.889  1.00  0.00     0.039 A 
HETATM   17  C   UNL     1       4.981  27.550  49.282  1.00  0.00     0.020 A 
HETATM   18  C   UNL     1       5.304  27.426  50.639  1.00  0.00     0.030 A 
BRANCH  16  19
HETATM   19  C   UNL     1       3.505  28.304  47.435  1.00  0.00     0.293 C 
HETATM   20  O   UNL     1       3.279  29.363  46.871  1.00  0.00    -0.259 OA
BRANCH  19  21
HETATM   21  O   UNL     1       3.536  27.079  46.853  1.00  0.00    -0.318 OA
BRANCH  21  22
HETATM   22  C   UNL     1       2.436  26.212  47.162  1.00  0.00     0.174 C 
HETATM   23  C   UNL     1       2.934  24.871  47.671  1.00  0.00     0.034 C 
ENDBRANCH  21  22
ENDBRANCH  19  21
ENDBRANCH  16  19
ENDBRANCH  10  13
ENDBRANCH   8   9
ENDBRANCH   1   8
BRANCH   2  24
HETATM   24  C   UNL     1       7.199  24.324  56.376  1.00  0.00     0.168 C 
BRANCH  24  25
HETATM   25  C   UNL     1       7.738  23.294  55.417  1.00  0.00    -0.023 A 
HETATM   26  C   UNL     1       8.732  22.420  55.853  1.00  0.00     0.125 A 
HETATM   27  N   UNL     1       9.294  21.451  55.092  1.00  0.00    -0.273 NA
HETATM   28  C   UNL     1       8.853  21.350  53.821  1.00  0.00     0.116 A 
HETATM   29  C   UNL     1       7.859  22.151  53.289  1.00  0.00     0.020 A 
HETATM   30  C   UNL     1       7.283  23.124  54.105  1.00  0.00     0.012 A 
ENDBRANCH  24  25
ENDBRANCH   2  24
BRANCH   5  31
HETATM   31  C   UNL     1       8.820  28.949  57.130  1.00  0.00     0.047 A 
HETATM   32  C   UNL     1       8.120  29.733  58.066  1.00  0.00     0.037 A 
HETATM   33  C   UNL     1       8.710  30.829  58.723  1.00  0.00    -0.060 A 
HETATM   34  C   UNL     1       7.915  31.656  59.691  1.00  0.00     0.048 C 
HETATM   35  C   UNL     1      10.029  31.169  58.431  1.00  0.00     0.007 A 
HETATM   36  C   UNL     1      10.745  30.418  57.506  1.00  0.00     0.003 A 
HETATM   37  C   UNL     1      10.147  29.327  56.864  1.00  0.00     0.030 A 
ENDBRANCH   5  31
TORSDOF 9
ENDMDL
MODEL 2
REMARK VINA RESULT:      -9.9      2.476      9.241
REMARK  9 active torsions:
REMARK  status: ('A' for Active; 'I' for Inactive)
REMARK    1  A    between atoms: C_2  and  O_3 
REMARK    2  A    between atoms: O_3  and  C_4 
REMARK    3  A    between atoms: C_4  and  C_5 
REMARK    4  A    between atoms: C_8  and  N_9 
REMARK       I    between atoms: N_9  and  C_10 
REMARK    5  A    between atoms: C_10  and  C_11 
REMARK    6  A    between atoms: C_11  and  C_12 
REMARK    7  A    between atoms: N_13  and  C_14 
REMARK    8  A    between atoms: C_14  and  C_15 
REMARK    9  A    between atoms: N_23  and  C_24 
ROOT
HETATM    1  C   UNL     1       5.685  27.814  53.418  1.00  0.00     0.191 C 
HETATM    2  N   UNL     1       5.106  26.968  52.392  1.00  0.00    -0.315 N 
HETATM    3  C   UNL     1       5.231  25.622  52.744  1.00  0.00     0.333 C 
HETATM    4  O   UNL     1       4.533  24.750  52.249  1.00  0.00    -0.246 OA
HETATM    5  N   UNL     1       6.240  25.519  53.683  1.00  0.00    -0.232 N 
HETATM    6  C   UNL     1       6.652  26.794  54.023  1.00  0.00     0.256 C 
HETATM    7  O   UNL     1       7.589  27.141  54.731  1.00  0.00    -0.270 OA
ENDROOT
BRANCH   1   8
HETATM    8  C   UNL     1       4.635  28.230  54.446  1.00  0.00     0.138 C 
BRANCH   8   9
HETATM    9  C   UNL     1       5.126  29.335  55.357  1.00  0.00     0.224 C 
HETATM   10  N   UNL     1       5.672  28.872  56.543  1.00  0.00    -0.327 N 
HETATM   11  H   UNL     1       5.606  27.882  56.737  1.00  0.00     0.169 HD
HETATM   12  O   UNL     1       5.047  30.506  55.004  1.00  0.00    -0.273 OA
BRANCH  10  13
HETATM   13  C   UNL     1       6.388  29.627  57.500  1.00  0.00     0.034 A 
HETATM   14  C   UNL     1       5.984  30.876  57.975  1.00  0.00     0.030 A 
HETATM   15  C   UNL     1       6.774  31.587  58.891  1.00  0.00     0.020 A 
HETATM   16  C   UNL     1       7.983  31.052  59.348  1.00  0.00     0.039 A 
HETATM   17  C   UNL     1       8.387  29.795  58.883  1.00  0.00     0.020 A 
HETATM   18  C   UNL     1       7.598  29.091  57.965  1.00  0.00     0.030 A 
BRANCH  16  19
HETATM   19  C   UNL     1       8.860  31.762  60.320  1.00  0.00     0.293 C 
HETATM   20  O   UNL     1       9.442  32.803  60.058  1.00  0.00    -0.259 OA
BRANCH  19  21
HETATM   21  O   UNL     1       8.895  31.102  61.504  1.00  0.00    -0.318 OA
BRANCH  21  22
HETATM   22  C   UNL     1       7.753  31.282  62.354  1.00  0.00     0.174 C 
HETATM   23  C   UNL     1       7.974  32.437  63.314  1.00  0.00     0.034 C 
ENDBRANCH  21  22
ENDBRANCH  19  21
ENDBRANCH  16  19
ENDBRANCH  10  13
ENDBRANCH   8   9
ENDBRANCH   1   8
BRANCH   2  24
HETATM   24  C   UNL     1       4.107  27.450  51.451  1.00  0.00     0.168 C 
BRANCH  24  25
HETATM   25  C   UNL     1       4.539  27.488  50.007  1.00  0.00    -0.023 A 
HETATM   26  C   UNL     1       5.236  28.600  49.539  1.00  0.00     0.125 A 
HETATM   27  N   UNL     1       5.681  28.753  48.270  1.00  0.00    -0.273 NA
HETATM   28  C   UNL     1       5.407  27.750  47.410  1.00  0.00     0.116 A 
HETATM   29  C   UNL     1       4.739  26.594  47.770  1.00  0.00     0.020 A 
HETATM   30  C   UNL     1       4.315  26.456  49.090  1.00  0.00     0.012 A 
ENDBRANCH  24  25
ENDBRANCH   2  24
BRANCH   5  31
HETATM   31  C   UNL     1       6.806  24.294  54.160  1.00  0.00     0.047 A 
HETATM   32  C   UNL     1       7.256  23.292  53.279  1.00  0.00     0.037 A 
HETATM   33  C   UNL     1       7.841  22.096  53.733  1.00  0.00    -0.060 A 
HETATM   34  C   UNL     1       8.277  21.041  52.758  1.00  0.00     0.048 C 
HETATM   35  C   UNL     1       7.969  21.877  55.102  1.00  0.00     0.007 A 
HETATM   36  C   UNL     1       7.529  22.844  55.999  1.00  0.00     0.003 A 
HETATM   37  C   UNL     1       6.954  24.032  55.533  1.00  0.00     0.030 A 
ENDBRANCH   5  31
TORSDOF 9
ENDMDL
MODEL 3
REMARK VINA RESULT:      -9.4      1.049      1.772
REMARK  9 active torsions:
REMARK  status: ('A' for Active; 'I' for Inactive)
REMARK    1  A    between atoms: C_2  and  O_3 
REMARK    2  A    between atoms: O_3  and  C_4 
REMARK    3  A    between atoms: C_4  and  C_5 
REMARK    4  A    between atoms: C_8  and  N_9 
REMARK       I    between atoms: N_9  and  C_10 
REMARK    5  A    between atoms: C_10  and  C_11 
REMARK    6  A    between atoms: C_11  and  C_12 
REMARK    7  A    between atoms: N_13  and  C_14 
REMARK    8  A    between atoms: C_14  and  C_15 
REMARK    9  A    between atoms: N_23  and  C_24 
ROOT
HETATM    1  C   UNL     1       6.953  26.441  54.937  1.00  0.00     0.191 C 
HETATM    2  N   UNL     1       7.502  25.704  56.060  1.00  0.00    -0.315 N 
HETATM    3  C   UNL     1       7.971  26.584  57.037  1.00  0.00     0.333 C 
HETATM    4  O   UNL     1       8.145  26.241  58.196  1.00  0.00    -0.246 OA
HETATM    5  N   UNL     1       8.182  27.812  56.438  1.00  0.00    -0.232 N 
HETATM    6  C   UNL     1       7.724  27.748  55.136  1.00  0.00     0.256 C 
HETATM    7  O   UNL     1       7.822  28.576  54.239  1.00  0.00    -0.270 OA
ENDROOT
BRANCH   1   8
HETATM    8  C   UNL     1       5.453  26.672  55.111  1.00  0.00     0.138 C 
BRANCH   8   9
HETATM    9  C   UNL     1       4.826  27.325  53.898  1.00  0.00     0.224 C 
HETATM   10  N   UNL     1       5.445  26.985  52.706  1.00  0.00    -0.327 N 
HETATM   11  H   UNL     1       6.291  26.433  52.755  1.00  0.00     0.169 HD
HETATM   12  O   UNL     1       3.846  28.049  54.024  1.00  0.00    -0.273 OA
BRANCH  10  13
HETATM   13  C   UNL     1       4.983  27.264  51.399  1.00  0.00     0.034 A 
HETATM   14  C   UNL     1       4.940  26.325  50.366  1.00  0.00     0.030 A 
HETATM   15  C   UNL     1       4.513  26.690  49.080  1.00  0.00     0.020 A 
HETATM   16  C   UNL     1       4.118  28.005  48.812  1.00  0.00     0.039 A 
HETATM   17  C   UNL     1       4.149  28.946  49.847  1.00  0.00     0.020 A 
HETATM   18  C   UNL     1       4.581  28.579  51.127  1.00  0.00     0.030 A 
BRANCH  16  19
HETATM   19  C   UNL     1       3.656  28.446  47.467  1.00  0.00     0.293 C 
HETATM   20  O   UNL     1       2.637  28.028  46.940  1.00  0.00    -0.259 OA
BRANCH  19  21
HETATM   21  O   UNL     1       4.507  29.363  46.946  1.00  0.00    -0.318 OA
BRANCH  21  22
HETATM   22  C   UNL     1       3.915  30.605  46.537  1.00  0.00     0.174 C 
HETATM   23  C   UNL     1       4.916  31.452  45.772  1.00  0.00     0.034 C 
ENDBRANCH  21  22
ENDBRANCH  19  21
ENDBRANCH  16  19
ENDBRANCH  10  13
ENDBRANCH   8   9
ENDBRANCH   1   8
BRANCH   2  24
HETATM   24  C   UNL     1       7.135  24.326  56.347  1.00  0.00     0.168 C 
BRANCH  24  25
HETATM   25  C   UNL     1       7.706  23.292  55.411  1.00  0.00    -0.023 A 
HETATM   26  C   UNL     1       8.610  22.354  55.910  1.00  0.00     0.125 A 
HETATM   27  N   UNL     1       9.188  21.376  55.175  1.00  0.00    -0.273 NA
HETATM   28  C   UNL     1       8.863  21.330  53.866  1.00  0.00     0.116 A 
HETATM   29  C   UNL     1       7.965  22.198  53.270  1.00  0.00     0.020 A 
HETATM   30  C   UNL     1       7.367  23.180  54.059  1.00  0.00     0.012 A 
ENDBRANCH  24  25
ENDBRANCH   2  24
BRANCH   5  31
HETATM   31  C   UNL     1       8.835  28.931  57.049  1.00  0.00     0.047 A 
HETATM   32  C   UNL     1       8.177  29.755  57.981  1.00  0.00     0.037 A 
HETATM   33  C   UNL     1       8.816  30.840  58.611  1.00  0.00    -0.060 A 
HETATM   34  C   UNL     1       8.065  31.712  59.575  1.00  0.00     0.048 C 
HETATM   35  C   UNL     1      10.142  31.126  58.295  1.00  0.00     0.007 A 
HETATM   36  C   UNL     1      10.817  30.335  57.374  1.00  0.00     0.003 A 
HETATM   37  C   UNL     1      10.171  29.256  56.759  1.00  0.00     0.030 A 
ENDBRANCH   5  31
TORSDOF 9
ENDMDL
MODEL 4
REMARK VINA RESULT:      -9.1      3.119      9.213
REMARK  9 active torsions:
REMARK  status: ('A' for Active; 'I' for Inactive)
REMARK    1  A    between atoms: C_2  and  O_3 
REMARK    2  A    between atoms: O_3  and  C_4 
REMARK    3  A    between atoms: C_4  and  C_5 
REMARK    4  A    between atoms: C_8  and  N_9 
REMARK       I    between atoms: N_9  and  C_10 
REMARK    5  A    between atoms: C_10  and  C_11 
REMARK    6  A    between atoms: C_11  and  C_12 
REMARK    7  A    between atoms: N_13  and  C_14 
REMARK    8  A    between atoms: C_14  and  C_15 
REMARK    9  A    between atoms: N_23  and  C_24 
ROOT
HETATM    1  C   UNL     1       6.136  27.140  54.715  1.00  0.00     0.191 C 
HETATM    2  N   UNL     1       5.490  26.698  53.493  1.00  0.00    -0.315 N 
HETATM    3  C   UNL     1       5.589  25.312  53.364  1.00  0.00     0.333 C 
HETATM    4  O   UNL     1       4.846  24.669  52.639  1.00  0.00    -0.246 OA
HETATM    5  N   UNL     1       6.632  24.882  54.164  1.00  0.00    -0.232 N 
HETATM    6  C   UNL     1       7.096  25.961  54.892  1.00  0.00     0.256 C 
HETATM    7  O   UNL     1       8.071  26.035  55.629  1.00  0.00    -0.270 OA
ENDROOT
BRANCH   1   8
HETATM    8  C   UNL     1       5.142  27.199  55.872  1.00  0.00     0.138 C 
BRANCH   8   9
HETATM    9  C   UNL     1       5.518  28.244  56.902  1.00  0.00     0.224 C 
HETATM   10  N   UNL     1       4.706  29.366  56.871  1.00  0.00    -0.327 N 
HETATM   11  H   UNL     1       4.024  29.434  56.128  1.00  0.00     0.169 HD
HETATM   12  O   UNL     1       6.442  28.040  57.679  1.00  0.00    -0.273 OA
BRANCH  10  13
HETATM   13  C   UNL     1       4.670  30.415  57.819  1.00  0.00     0.034 A 
HETATM   14  C   UNL     1       3.542  30.757  58.568  1.00  0.00     0.030 A 
HETATM   15  C   UNL     1       3.570  31.843  59.455  1.00  0.00     0.020 A 
HETATM   16  C   UNL     1       4.735  32.602  59.609  1.00  0.00     0.039 A 
HETATM   17  C   UNL     1       5.871  32.256  58.869  1.00  0.00     0.020 A 
HETATM   18  C   UNL     1       5.838  31.175  57.980  1.00  0.00     0.030 A 
BRANCH  16  19
HETATM   19  C   UNL     1       4.820  33.763  60.536  1.00  0.00     0.293 C 
HETATM   20  O   UNL     1       4.515  34.900  60.214  1.00  0.00    -0.259 OA
BRANCH  19  21
HETATM   21  O   UNL     1       5.258  33.369  61.757  1.00  0.00    -0.318 OA
BRANCH  21  22
HETATM   22  C   UNL     1       6.590  33.776  62.106  1.00  0.00     0.174 C 
HETATM   23  C   UNL     1       7.268  32.721  62.961  1.00  0.00     0.034 C 
ENDBRANCH  21  22
ENDBRANCH  19  21
ENDBRANCH  16  19
ENDBRANCH  10  13
ENDBRANCH   8   9
ENDBRANCH   1   8
BRANCH   2  24
HETATM   24  C   UNL     1       4.469  27.484  52.819  1.00  0.00     0.168 C 
BRANCH  24  25
HETATM   25  C   UNL     1       4.874  28.080  51.495  1.00  0.00    -0.023 A 
HETATM   26  C   UNL     1       5.507  29.322  51.477  1.00  0.00     0.125 A 
HETATM   27  N   UNL     1       5.922  29.960  50.358  1.00  0.00    -0.273 NA
HETATM   28  C   UNL     1       5.686  29.336  49.185  1.00  0.00     0.116 A 
HETATM   29  C   UNL     1       5.083  28.095  49.086  1.00  0.00     0.020 A 
HETATM   30  C   UNL     1       4.689  27.453  50.258  1.00  0.00     0.012 A 
ENDBRANCH  24  25
ENDBRANCH   2  24
BRANCH   5  31
HETATM   31  C   UNL     1       7.180  23.559  54.171  1.00  0.00     0.047 A 
HETATM   32  C   UNL     1       7.369  22.843  55.368  1.00  0.00     0.037 A 
HETATM   33  C   UNL     1       7.879  21.531  55.388  1.00  0.00    -0.060 A 
HETATM   34  C   UNL     1       8.095  20.816  56.690  1.00  0.00     0.048 C 
HETATM   35  C   UNL     1       8.228  20.917  54.187  1.00  0.00     0.007 A 
HETATM   36  C   UNL     1       8.059  21.601  52.989  1.00  0.00     0.003 A 
HETATM   37  C   UNL     1       7.545  22.904  52.983  1.00  0.00     0.030 A 
ENDBRANCH   5  31
TORSDOF 9
ENDMDL
MODEL 5
REMARK VINA RESULT:      -9.1      2.782      6.507
REMARK  9 active torsions:
REMARK  status: ('A' for Active; 'I' for Inactive)
REMARK    1  A    between atoms: C_2  and  O_3 
REMARK    2  A    between atoms: O_3  and  C_4 
REMARK    3  A    between atoms: C_4  and  C_5 
REMARK    4  A    between atoms: C_8  and  N_9 
REMARK       I    between atoms: N_9  and  C_10 
REMARK    5  A    between atoms: C_10  and  C_11 
REMARK    6  A    between atoms: C_11  and  C_12 
REMARK    7  A    between atoms: N_13  and  C_14 
REMARK    8  A    between atoms: C_14  and  C_15 
REMARK    9  A    between atoms: N_23  and  C_24 
ROOT
HETATM    1  C   UNL     1       4.828  26.780  52.785  1.00  0.00     0.191 C 
HETATM    2  N   UNL     1       5.679  27.385  53.792  1.00  0.00    -0.315 N 
HETATM    3  C   UNL     1       6.670  26.488  54.195  1.00  0.00     0.333 C 
HETATM    4  O   UNL     1       7.697  26.853  54.746  1.00  0.00    -0.246 OA
HETATM    5  N   UNL     1       6.250  25.213  53.867  1.00  0.00    -0.232 N 
HETATM    6  C   UNL     1       5.076  25.312  53.144  1.00  0.00     0.256 C 
HETATM    7  O   UNL     1       4.326  24.424  52.761  1.00  0.00    -0.270 OA
ENDROOT
BRANCH   1   8
HETATM    8  C   UNL     1       5.341  27.080  51.378  1.00  0.00     0.138 C 
BRANCH   8   9
HETATM    9  C   UNL     1       4.281  27.714  50.502  1.00  0.00     0.224 C 
HETATM   10  N   UNL     1       3.940  26.944  49.402  1.00  0.00    -0.327 N 
HETATM   11  H   UNL     1       4.479  26.106  49.229  1.00  0.00     0.169 HD
HETATM   12  O   UNL     1       3.790  28.793  50.811  1.00  0.00    -0.273 OA
BRANCH  10  13
HETATM   13  C   UNL     1       2.859  27.160  48.516  1.00  0.00     0.034 A 
HETATM   14  C   UNL     1       2.061  28.305  48.518  1.00  0.00     0.030 A 
HETATM   15  C   UNL     1       0.974  28.426  47.638  1.00  0.00     0.020 A 
HETATM   16  C   UNL     1       0.675  27.398  46.738  1.00  0.00     0.039 A 
HETATM   17  C   UNL     1       1.479  26.252  46.726  1.00  0.00     0.020 A 
HETATM   18  C   UNL     1       2.559  26.134  47.609  1.00  0.00     0.030 A 
BRANCH  16  19
HETATM   19  C   UNL     1      -0.465  27.473  45.783  1.00  0.00     0.293 C 
HETATM   20  O   UNL     1      -0.457  26.932  44.689  1.00  0.00    -0.259 OA
BRANCH  19  21
HETATM   21  O   UNL     1      -1.482  28.199  46.309  1.00  0.00    -0.318 OA
BRANCH  21  22
HETATM   22  C   UNL     1      -1.909  29.330  45.536  1.00  0.00     0.174 C 
HETATM   23  C   UNL     1      -3.013  30.085  46.253  1.00  0.00     0.034 C 
ENDBRANCH  21  22
ENDBRANCH  19  21
ENDBRANCH  16  19
ENDBRANCH  10  13
ENDBRANCH   8   9
ENDBRANCH   1   8
BRANCH   2  24
HETATM   24  C   UNL     1       5.807  28.826  53.945  1.00  0.00     0.168 C 
BRANCH  24  25
HETATM   25  C   UNL     1       5.380  29.378  55.282  1.00  0.00    -0.023 A 
HETATM   26  C   UNL     1       4.019  29.518  55.552  1.00  0.00     0.125 A 
HETATM   27  N   UNL     1       3.509  29.995  56.711  1.00  0.00    -0.273 NA
HETATM   28  C   UNL     1       4.399  30.369  57.654  1.00  0.00     0.116 A 
HETATM   29  C   UNL     1       5.769  30.257  57.500  1.00  0.00     0.020 A 
HETATM   30  C   UNL     1       6.263  29.739  56.304  1.00  0.00     0.012 A 
ENDBRANCH  24  25
ENDBRANCH   2  24
BRANCH   5  31
HETATM   31  C   UNL     1       6.888  23.998  54.277  1.00  0.00     0.047 A 
HETATM   32  C   UNL     1       7.295  23.024  53.346  1.00  0.00     0.037 A 
HETATM   33  C   UNL     1       7.950  21.839  53.732  1.00  0.00    -0.060 A 
HETATM   34  C   UNL     1       8.337  20.813  52.708  1.00  0.00     0.048 C 
HETATM   35  C   UNL     1       8.194  21.606  55.083  1.00  0.00     0.007 A 
HETATM   36  C   UNL     1       7.798  22.546  56.028  1.00  0.00     0.003 A 
HETATM   37  C   UNL     1       7.153  23.722  55.629  1.00  0.00     0.030 A 
ENDBRANCH   5  31
TORSDOF 9
ENDMDL
MODEL 6
REMARK VINA RESULT:      -9.0      2.087      5.810
REMARK  9 active torsions:
REMARK  status: ('A' for Active; 'I' for Inactive)
REMARK    1  A    between atoms: C_2  and  O_3 
REMARK    2  A    between atoms: O_3  and  C_4 
REMARK    3  A    between atoms: C_4  and  C_5 
REMARK    4  A    between atoms: C_8  and  N_9 
REMARK       I    between atoms: N_9  and  C_10 
REMARK    5  A    between atoms: C_10  and  C_11 
REMARK    6  A    between atoms: C_11  and  C_12 
REMARK    7  A    between atoms: N_13  and  C_14 
REMARK    8  A    between atoms: C_14  and  C_15 
REMARK    9  A    between atoms: N_23  and  C_24 
ROOT
HETATM    1  C   UNL     1       5.425  26.663  53.634  1.00  0.00     0.191 C 
HETATM    2  N   UNL     1       5.849  26.619  55.021  1.00  0.00    -0.315 N 
HETATM    3  C   UNL     1       6.756  25.577  55.220  1.00  0.00     0.333 C 
HETATM    4  O   UNL     1       7.515  25.546  56.177  1.00  0.00    -0.246 OA
HETATM    5  N   UNL     1       6.601  24.673  54.186  1.00  0.00    -0.232 N 
HETATM    6  C   UNL     1       5.708  25.202  53.274  1.00  0.00     0.256 C 
HETATM    7  O   UNL     1       5.216  24.680  52.281  1.00  0.00    -0.270 OA
ENDROOT
BRANCH   1   8
HETATM    8  C   UNL     1       6.314  27.597  52.816  1.00  0.00     0.138 C 
BRANCH   8   9
HETATM    9  C   UNL     1       5.604  28.147  51.597  1.00  0.00     0.224 C 
HETATM   10  N   UNL     1       4.673  27.274  51.059  1.00  0.00    -0.327 N 
HETATM   11  H   UNL     1       4.621  26.342  51.449  1.00  0.00     0.169 HD
HETATM   12  O   UNL     1       5.854  29.277  51.196  1.00  0.00    -0.273 OA
BRANCH  10  13
HETATM   13  C   UNL     1       3.717  27.562  50.057  1.00  0.00     0.034 A 
HETATM   14  C   UNL     1       2.768  28.582  50.149  1.00  0.00     0.030 A 
HETATM   15  C   UNL     1       1.821  28.776  49.134  1.00  0.00     0.020 A 
HETATM   16  C   UNL     1       1.814  27.950  48.005  1.00  0.00     0.039 A 
HETATM   17  C   UNL     1       2.770  26.934  47.903  1.00  0.00     0.020 A 
HETATM   18  C   UNL     1       3.711  26.740  48.922  1.00  0.00     0.030 A 
BRANCH  16  19
HETATM   19  C   UNL     1       0.832  28.112  46.897  1.00  0.00     0.293 C 
HETATM   20  O   UNL     1       0.547  27.215  46.119  1.00  0.00    -0.259 OA
BRANCH  19  21
HETATM   21  O   UNL     1       0.310  29.363  46.900  1.00  0.00    -0.318 OA
BRANCH  21  22
HETATM   22  C   UNL     1      -0.361  29.764  45.696  1.00  0.00     0.174 C 
HETATM   23  C   UNL     1      -1.867  29.684  45.867  1.00  0.00     0.034 C 
ENDBRANCH  21  22
ENDBRANCH  19  21
ENDBRANCH  16  19
ENDBRANCH  10  13
ENDBRANCH   8   9
ENDBRANCH   1   8
BRANCH   2  24
HETATM   24  C   UNL     1       5.764  27.774  55.902  1.00  0.00     0.168 C 
BRANCH  24  25
HETATM   25  C   UNL     1       7.083  28.365  56.329  1.00  0.00    -0.023 A 
HETATM   26  C   UNL     1       7.373  28.459  57.689  1.00  0.00     0.125 A 
HETATM   27  N   UNL     1       8.520  28.965  58.199  1.00  0.00    -0.273 NA
HETATM   28  C   UNL     1       9.430  29.414  57.310  1.00  0.00     0.116 A 
HETATM   29  C   UNL     1       9.255  29.353  55.939  1.00  0.00     0.020 A 
HETATM   30  C   UNL     1       8.073  28.805  55.444  1.00  0.00     0.012 A 
ENDBRANCH  24  25
ENDBRANCH   2  24
BRANCH   5  31
HETATM   31  C   UNL     1       7.209  23.379  54.119  1.00  0.00     0.047 A 
HETATM   32  C   UNL     1       7.338  22.561  55.258  1.00  0.00     0.037 A 
HETATM   33  C   UNL     1       7.907  21.274  55.201  1.00  0.00    -0.060 A 
HETATM   34  C   UNL     1       8.054  20.449  56.446  1.00  0.00     0.048 C 
HETATM   35  C   UNL     1       8.377  20.791  53.982  1.00  0.00     0.007 A 
HETATM   36  C   UNL     1       8.270  21.577  52.841  1.00  0.00     0.003 A 
HETATM   37  C   UNL     1       7.697  22.852  52.911  1.00  0.00     0.030 A 
ENDBRANCH   5  31
TORSDOF 9
ENDMDL
MODEL 7
REMARK VINA RESULT:      -8.9      1.809      5.952
REMARK  9 active torsions:
REMARK  status: ('A' for Active; 'I' for Inactive)
REMARK    1  A    between atoms: C_2  and  O_3 
REMARK    2  A    between atoms: O_3  and  C_4 
REMARK    3  A    between atoms: C_4  and  C_5 
REMARK    4  A    between atoms: C_8  and  N_9 
REMARK       I    between atoms: N_9  and  C_10 
REMARK    5  A    between atoms: C_10  and  C_11 
REMARK    6  A    between atoms: C_11  and  C_12 
REMARK    7  A    between atoms: N_13  and  C_14 
REMARK    8  A    between atoms: C_14  and  C_15 
REMARK    9  A    between atoms: N_23  and  C_24 
ROOT
HETATM    1  C   UNL     1       6.528  26.511  55.393  1.00  0.00     0.191 C 
HETATM    2  N   UNL     1       7.378  26.394  56.563  1.00  0.00    -0.315 N 
HETATM    3  C   UNL     1       8.083  25.190  56.535  1.00  0.00     0.333 C 
HETATM    4  O   UNL     1       9.098  25.012  57.189  1.00  0.00    -0.246 OA
HETATM    5  N   UNL     1       7.419  24.327  55.683  1.00  0.00    -0.232 N 
HETATM    6  C   UNL     1       6.388  25.020  55.075  1.00  0.00     0.256 C 
HETATM    7  O   UNL     1       5.501  24.601  54.343  1.00  0.00    -0.270 OA
ENDROOT
BRANCH   1   8
HETATM    8  C   UNL     1       7.250  27.234  54.258  1.00  0.00     0.138 C 
BRANCH   8   9
HETATM    9  C   UNL     1       6.290  27.812  53.240  1.00  0.00     0.224 C 
HETATM   10  N   UNL     1       6.420  27.252  51.980  1.00  0.00    -0.327 N 
HETATM   11  H   UNL     1       7.182  26.605  51.827  1.00  0.00     0.169 HD
HETATM   12  O   UNL     1       5.479  28.667  53.573  1.00  0.00    -0.273 OA
BRANCH  10  13
HETATM   13  C   UNL     1       5.550  27.429  50.878  1.00  0.00     0.034 A 
HETATM   14  C   UNL     1       4.891  26.386  50.224  1.00  0.00     0.030 A 
HETATM   15  C   UNL     1       4.081  26.636  49.106  1.00  0.00     0.020 A 
HETATM   16  C   UNL     1       3.916  27.940  48.629  1.00  0.00     0.039 A 
HETATM   17  C   UNL     1       4.567  28.990  49.287  1.00  0.00     0.020 A 
HETATM   18  C   UNL     1       5.378  28.736  50.400  1.00  0.00     0.030 A 
BRANCH  16  19
HETATM   19  C   UNL     1       3.069  28.262  47.448  1.00  0.00     0.293 C 
HETATM   20  O   UNL     1       3.088  29.345  46.886  1.00  0.00    -0.259 OA
BRANCH  19  21
HETATM   21  O   UNL     1       2.310  27.194  47.099  1.00  0.00    -0.318 OA
BRANCH  21  22
HETATM   22  C   UNL     1       0.905  27.308  47.370  1.00  0.00     0.174 C 
HETATM   23  C   UNL     1       0.115  27.420  46.079  1.00  0.00     0.034 C 
ENDBRANCH  21  22
ENDBRANCH  19  21
ENDBRANCH  16  19
ENDBRANCH  10  13
ENDBRANCH   8   9
ENDBRANCH   1   8
BRANCH   2  24
HETATM   24  C   UNL     1       7.817  27.550  57.330  1.00  0.00     0.168 C 
BRANCH  24  25
HETATM   25  C   UNL     1       6.837  28.694  57.401  1.00  0.00    -0.023 A 
HETATM   26  C   UNL     1       5.471  28.419  57.343  1.00  0.00     0.125 A 
HETATM   27  N   UNL     1       4.495  29.354  57.401  1.00  0.00    -0.273 NA
HETATM   28  C   UNL     1       4.894  30.638  57.509  1.00  0.00     0.116 A 
HETATM   29  C   UNL     1       6.220  31.024  57.593  1.00  0.00     0.020 A 
HETATM   30  C   UNL     1       7.202  30.035  57.555  1.00  0.00     0.012 A 
ENDBRANCH  24  25
ENDBRANCH   2  24
BRANCH   5  31
HETATM   31  C   UNL     1       7.709  22.934  55.521  1.00  0.00     0.047 A 
HETATM   32  C   UNL     1       7.868  22.353  54.249  1.00  0.00     0.037 A 
HETATM   33  C   UNL     1       8.183  20.991  54.077  1.00  0.00    -0.060 A 
HETATM   34  C   UNL     1       8.312  20.406  52.701  1.00  0.00     0.048 C 
HETATM   35  C   UNL     1       8.328  20.179  55.199  1.00  0.00     0.007 A 
HETATM   36  C   UNL     1       8.171  20.722  56.469  1.00  0.00     0.003 A 
HETATM   37  C   UNL     1       7.863  22.079  56.626  1.00  0.00     0.030 A 
ENDBRANCH   5  31
TORSDOF 9
ENDMDL
MODEL 8
REMARK VINA RESULT:      -8.9      4.173      9.229
REMARK  9 active torsions:
REMARK  status: ('A' for Active; 'I' for Inactive)
REMARK    1  A    between atoms: C_2  and  O_3 
REMARK    2  A    between atoms: O_3  and  C_4 
REMARK    3  A    between atoms: C_4  and  C_5 
REMARK    4  A    between atoms: C_8  and  N_9 
REMARK       I    between atoms: N_9  and  C_10 
REMARK    5  A    between atoms: C_10  and  C_11 
REMARK    6  A    between atoms: C_11  and  C_12 
REMARK    7  A    between atoms: N_13  and  C_14 
REMARK    8  A    between atoms: C_14  and  C_15 
REMARK    9  A    between atoms: N_23  and  C_24 
ROOT
HETATM    1  C   UNL     1       5.713  27.401  56.717  1.00  0.00     0.191 C 
HETATM    2  N   UNL     1       6.899  27.840  56.007  1.00  0.00    -0.315 N 
HETATM    3  C   UNL     1       7.313  26.864  55.100  1.00  0.00     0.333 C 
HETATM    4  O   UNL     1       8.044  27.118  54.155  1.00  0.00    -0.246 OA
HETATM    5  N   UNL     1       6.763  25.658  55.491  1.00  0.00    -0.232 N 
HETATM    6  C   UNL     1       5.904  25.891  56.548  1.00  0.00     0.256 C 
HETATM    7  O   UNL     1       5.306  25.087  57.251  1.00  0.00    -0.270 OA
ENDROOT
BRANCH   1   8
HETATM    8  C   UNL     1       4.443  27.862  56.005  1.00  0.00     0.138 C 
BRANCH   8   9
HETATM    9  C   UNL     1       4.064  29.283  56.364  1.00  0.00     0.224 C 
HETATM   10  N   UNL     1       4.373  29.623  57.670  1.00  0.00    -0.327 N 
HETATM   11  H   UNL     1       4.717  28.892  58.279  1.00  0.00     0.169 HD
HETATM   12  O   UNL     1       3.565  30.020  55.522  1.00  0.00    -0.273 OA
BRANCH  10  13
HETATM   13  C   UNL     1       4.330  30.915  58.245  1.00  0.00     0.034 A 
HETATM   14  C   UNL     1       5.168  31.967  57.871  1.00  0.00     0.030 A 
HETATM   15  C   UNL     1       5.099  33.208  58.522  1.00  0.00     0.020 A 
HETATM   16  C   UNL     1       4.182  33.414  59.558  1.00  0.00     0.039 A 
HETATM   17  C   UNL     1       3.333  32.365  59.929  1.00  0.00     0.020 A 
HETATM   18  C   UNL     1       3.409  31.126  59.280  1.00  0.00     0.030 A 
BRANCH  16  19
HETATM   19  C   UNL     1       4.065  34.709  60.282  1.00  0.00     0.293 C 
HETATM   20  O   UNL     1       4.032  35.791  59.716  1.00  0.00    -0.259 OA
BRANCH  19  21
HETATM   21  O   UNL     1       3.986  34.505  61.620  1.00  0.00    -0.318 OA
BRANCH  21  22
HETATM   22  C   UNL     1       2.865  35.109  62.281  1.00  0.00     0.174 C 
HETATM   23  C   UNL     1       2.164  34.105  63.177  1.00  0.00     0.034 C 
ENDBRANCH  21  22
ENDBRANCH  19  21
ENDBRANCH  16  19
ENDBRANCH  10  13
ENDBRANCH   8   9
ENDBRANCH   1   8
BRANCH   2  24
HETATM   24  C   UNL     1       7.259  29.244  55.878  1.00  0.00     0.168 C 
BRANCH  24  25
HETATM   25  C   UNL     1       8.516  29.662  56.598  1.00  0.00    -0.023 A 
HETATM   26  C   UNL     1       8.417  30.169  57.893  1.00  0.00     0.125 A 
HETATM   27  N   UNL     1       9.467  30.574  58.644  1.00  0.00    -0.273 NA
HETATM   28  C   UNL     1      10.687  30.483  58.076  1.00  0.00     0.116 A 
HETATM   29  C   UNL     1      10.904  29.978  56.806  1.00  0.00     0.020 A 
HETATM   30  C   UNL     1       9.805  29.547  56.066  1.00  0.00     0.012 A 
ENDBRANCH  24  25
ENDBRANCH   2  24
BRANCH   5  31
HETATM   31  C   UNL     1       7.092  24.378  54.938  1.00  0.00     0.047 A 
HETATM   32  C   UNL     1       7.433  23.283  55.754  1.00  0.00     0.037 A 
HETATM   33  C   UNL     1       7.730  22.013  55.225  1.00  0.00    -0.060 A 
HETATM   34  C   UNL     1       8.119  20.882  56.132  1.00  0.00     0.048 C 
HETATM   35  C   UNL     1       7.705  21.827  53.845  1.00  0.00     0.007 A 
HETATM   36  C   UNL     1       7.379  22.890  53.012  1.00  0.00     0.003 A 
HETATM   37  C   UNL     1       7.080  24.147  53.552  1.00  0.00     0.030 A 
ENDBRANCH   5  31
TORSDOF 9
ENDMDL
MODEL 9
REMARK VINA RESULT:      -8.7      4.396      7.584
REMARK  9 active torsions:
REMARK  status: ('A' for Active; 'I' for Inactive)
REMARK    1  A    between atoms: C_2  and  O_3 
REMARK    2  A    between atoms: O_3  and  C_4 
REMARK    3  A    between atoms: C_4  and  C_5 
REMARK    4  A    between atoms: C_8  and  N_9 
REMARK       I    between atoms: N_9  and  C_10 
REMARK    5  A    between atoms: C_10  and  C_11 
REMARK    6  A    between atoms: C_11  and  C_12 
REMARK    7  A    between atoms: N_13  and  C_14 
REMARK    8  A    between atoms: C_14  and  C_15 
REMARK    9  A    between atoms: N_23  and  C_24 
ROOT
HETATM    1  C   UNL     1       5.864  31.486  57.642  1.00  0.00     0.191 C 
HETATM    2  N   UNL     1       6.449  31.790  58.934  1.00  0.00    -0.315 N 
HETATM    3  C   UNL     1       5.598  32.615  59.672  1.00  0.00     0.333 C 
HETATM    4  O   UNL     1       5.682  32.721  60.886  1.00  0.00    -0.246 OA
HETATM    5  N   UNL     1       4.731  33.231  58.790  1.00  0.00    -0.232 N 
HETATM    6  C   UNL     1       4.938  32.700  57.531  1.00  0.00     0.256 C 
HETATM    7  O   UNL     1       4.460  33.044  56.457  1.00  0.00    -0.270 OA
ENDROOT
BRANCH   1   8
HETATM    8  C   UNL     1       5.049  30.196  57.697  1.00  0.00     0.138 C 
BRANCH   8   9
HETATM    9  C   UNL     1       5.316  29.294  56.510  1.00  0.00     0.224 C 
HETATM   10  N   UNL     1       6.090  28.189  56.820  1.00  0.00    -0.327 N 
HETATM   11  H   UNL     1       6.481  28.132  57.752  1.00  0.00     0.169 HD
HETATM   12  O   UNL     1       4.836  29.559  55.415  1.00  0.00    -0.273 OA
BRANCH  10  13
HETATM   13  C   UNL     1       6.345  27.070  55.992  1.00  0.00     0.034 A 
HETATM   14  C   UNL     1       5.720  25.830  56.136  1.00  0.00     0.030 A 
HETATM   15  C   UNL     1       6.060  24.752  55.306  1.00  0.00     0.020 A 
HETATM   16  C   UNL     1       7.033  24.904  54.312  1.00  0.00     0.039 A 
HETATM   17  C   UNL     1       7.655  26.148  54.157  1.00  0.00     0.020 A 
HETATM   18  C   UNL     1       7.315  27.220  54.992  1.00  0.00     0.030 A 
BRANCH  16  19
HETATM   19  C   UNL     1       7.433  23.795  53.403  1.00  0.00     0.293 C 
HETATM   20  O   UNL     1       7.724  23.964  52.229  1.00  0.00    -0.259 OA
BRANCH  19  21
HETATM   21  O   UNL     1       7.438  22.612  54.065  1.00  0.00    -0.318 OA
BRANCH  21  22
HETATM   22  C   UNL     1       8.558  21.753  53.804  1.00  0.00     0.174 C 
HETATM   23  C   UNL     1       8.145  20.583  52.930  1.00  0.00     0.034 C 
ENDBRANCH  21  22
ENDBRANCH  19  21
ENDBRANCH  16  19
ENDBRANCH  10  13
ENDBRANCH   8   9
ENDBRANCH   1   8
BRANCH   2  24
HETATM   24  C   UNL     1       7.469  30.954  59.548  1.00  0.00     0.168 C 
BRANCH  24  25
HETATM   25  C   UNL     1       8.655  30.628  58.676  1.00  0.00    -0.023 A 
HETATM   26  C   UNL     1       9.708  31.539  58.599  1.00  0.00     0.125 A 
HETATM   27  N   UNL     1      10.826  31.361  57.858  1.00  0.00    -0.273 NA
HETATM   28  C   UNL     1      10.901  30.221  57.141  1.00  0.00     0.116 A 
HETATM   29  C   UNL     1       9.925  29.241  57.156  1.00  0.00     0.020 A 
HETATM   30  C   UNL     1       8.796  29.442  57.949  1.00  0.00     0.012 A 
ENDBRANCH  24  25
ENDBRANCH   2  24
BRANCH   5  31
HETATM   31  C   UNL     1       3.827  34.291  59.120  1.00  0.00     0.047 A 
HETATM   32  C   UNL     1       2.619  34.051  59.802  1.00  0.00     0.037 A 
HETATM   33  C   UNL     1       1.736  35.087  60.158  1.00  0.00    -0.060 A 
HETATM   34  C   UNL     1       0.443  34.781  60.856  1.00  0.00     0.048 C 
HETATM   35  C   UNL     1       2.051  36.400  59.815  1.00  0.00     0.007 A 
HETATM   36  C   UNL     1       3.234  36.669  59.136  1.00  0.00     0.003 A 
HETATM   37  C   UNL     1       4.106  35.629  58.792  1.00  0.00     0.030 A 
ENDBRANCH   5  31
TORSDOF 9
ENDMDL
MODEL 10
REMARK VINA RESULT:      -8.7      1.379      2.053
REMARK  9 active torsions:
REMARK  status: ('A' for Active; 'I' for Inactive)
REMARK    1  A    between atoms: C_2  and  O_3 
REMARK    2  A    between atoms: O_3  and  C_4 
REMARK    3  A    between atoms: C_4  and  C_5 
REMARK    4  A    between atoms: C_8  and  N_9 
REMARK       I    between atoms: N_9  and  C_10 
REMARK    5  A    between atoms: C_10  and  C_11 
REMARK    6  A    between atoms: C_11  and  C_12 
REMARK    7  A    between atoms: N_13  and  C_14 
REMARK    8  A    between atoms: C_14  and  C_15 
REMARK    9  A    between atoms: N_23  and  C_24 
ROOT
HETATM    1  C   UNL     1       6.742  26.091  54.539  1.00  0.00     0.191 C 
HETATM    2  N   UNL     1       7.067  25.295  55.707  1.00  0.00    -0.315 N 
HETATM    3  C   UNL     1       7.367  26.122  56.791  1.00  0.00     0.333 C 
HETATM    4  O   UNL     1       7.323  25.727  57.946  1.00  0.00    -0.246 OA
HETATM    5  N   UNL     1       7.704  27.368  56.297  1.00  0.00    -0.232 N 
HETATM    6  C   UNL     1       7.487  27.370  54.932  1.00  0.00     0.256 C 
HETATM    7  O   UNL     1       7.760  28.231  54.106  1.00  0.00    -0.270 OA
ENDROOT
BRANCH   1   8
HETATM    8  C   UNL     1       5.240  26.353  54.451  1.00  0.00     0.138 C 
BRANCH   8   9
HETATM    9  C   UNL     1       4.901  27.438  53.451  1.00  0.00     0.224 C 
HETATM   10  N   UNL     1       5.490  27.249  52.211  1.00  0.00    -0.327 N 
HETATM   11  H   UNL     1       6.150  26.489  52.114  1.00  0.00     0.169 HD
HETATM   12  O   UNL     1       4.146  28.351  53.762  1.00  0.00    -0.273 OA
BRANCH  10  13
HETATM   13  C   UNL     1       5.216  27.964  51.022  1.00  0.00     0.034 A 
HETATM   14  C   UNL     1       5.542  29.307  50.823  1.00  0.00     0.030 A 
HETATM   15  C   UNL     1       5.194  29.963  49.632  1.00  0.00     0.020 A 
HETATM   16  C   UNL     1       4.515  29.277  48.619  1.00  0.00     0.039 A 
HETATM   17  C   UNL     1       4.196  27.928  48.810  1.00  0.00     0.020 A 
HETATM   18  C   UNL     1       4.540  27.279  50.002  1.00  0.00     0.030 A 
BRANCH  16  19
HETATM   19  C   UNL     1       4.123  29.923  47.337  1.00  0.00     0.293 C 
HETATM   20  O   UNL     1       4.639  30.947  46.918  1.00  0.00    -0.259 OA
BRANCH  19  21
HETATM   21  O   UNL     1       3.147  29.211  46.721  1.00  0.00    -0.318 OA
BRANCH  21  22
HETATM   22  C   UNL     1       1.883  29.876  46.576  1.00  0.00     0.174 C 
HETATM   23  C   UNL     1       0.740  28.944  46.935  1.00  0.00     0.034 C 
ENDBRANCH  21  22
ENDBRANCH  19  21
ENDBRANCH  16  19
ENDBRANCH  10  13
ENDBRANCH   8   9
ENDBRANCH   1   8
BRANCH   2  24
HETATM   24  C   UNL     1       6.629  23.916  55.861  1.00  0.00     0.168 C 
BRANCH  24  25
HETATM   25  C   UNL     1       7.466  22.885  55.149  1.00  0.00    -0.023 A 
HETATM   26  C   UNL     1       7.401  22.805  53.758  1.00  0.00     0.125 A 
HETATM   27  N   UNL     1       8.104  21.928  53.004  1.00  0.00    -0.273 NA
HETATM   28  C   UNL     1       8.909  21.071  53.665  1.00  0.00     0.116 A 
HETATM   29  C   UNL     1       9.065  21.074  55.040  1.00  0.00     0.020 A 
HETATM   30  C   UNL     1       8.346  22.005  55.788  1.00  0.00     0.012 A 
ENDBRANCH  24  25
ENDBRANCH   2  24
BRANCH   5  31
HETATM   31  C   UNL     1       8.255  28.443  57.065  1.00  0.00     0.047 A 
HETATM   32  C   UNL     1       9.608  28.818  56.951  1.00  0.00     0.037 A 
HETATM   33  C   UNL     1      10.156  29.891  57.678  1.00  0.00    -0.060 A 
HETATM   34  C   UNL     1      11.611  30.235  57.550  1.00  0.00     0.048 C 
HETATM   35  C   UNL     1       9.344  30.604  58.557  1.00  0.00     0.007 A 
HETATM   36  C   UNL     1       8.006  30.255  58.696  1.00  0.00     0.003 A 
HETATM   37  C   UNL     1       7.472  29.188  57.963  1.00  0.00     0.030 A 
ENDBRANCH   5  31
TORSDOF 9
ENDMDL
