MODEL 1
REMARK VINA RESULT:      -9.1      0.000      0.000
REMARK  4 active torsions:
REMARK  status: ('A' for Active; 'I' for Inactive)
REMARK    1  A    between atoms: C_5  and  C_6 
REMARK    2  A    between atoms: C_6  and  N_7 
REMARK    3  A    between atoms: C_6  and  C_18 
REMARK    4  A    between atoms: N_7  and  C_8 
ROOT
HETATM    1  C   UNL     1       7.314  24.128  55.358  1.00  0.00     0.288 C 
ENDROOT
BRANCH   1   2
HETATM    2  C   UNL     1       7.795  22.686  55.361  1.00  0.00    -0.003 A 
HETATM    3  C   UNL     1       8.310  22.054  56.490  1.00  0.00     0.126 A 
HETATM    4  N   UNL     1       8.760  20.779  56.518  1.00  0.00    -0.272 NA
HETATM    5  C   UNL     1       8.650  20.068  55.377  1.00  0.00     0.116 A 
HETATM    6  C   UNL     1       8.127  20.584  54.203  1.00  0.00     0.020 A 
HETATM    7  C   UNL     1       7.697  21.908  54.198  1.00  0.00     0.012 A 
ENDBRANCH   1   2
BRANCH   1   8
HETATM    8  N   UNL     1       6.333  24.474  56.405  1.00  0.00     0.101 N 
HETATM    9  H   UNL     1       6.248  23.682  57.043  1.00  0.00     0.317 HD
BRANCH   8  10
HETATM   10  C   UNL     1       6.527  25.738  57.118  1.00  0.00     0.225 C 
HETATM   11  C   UNL     1       7.908  26.368  56.840  1.00  0.00     0.069 C 
HETATM   12  C   UNL     1       7.987  27.736  57.494  1.00  0.00     0.190 C 
HETATM   13  N   UNL     1       6.888  28.600  56.940  1.00  0.00    -0.067 N 
HETATM   14  C   UNL     1       9.209  28.579  57.188  1.00  0.00     0.035 C 
HETATM   15  H   UNL     1       6.963  28.588  55.911  1.00  0.00     0.280 HD
HETATM   16  C   UNL     1       5.530  28.088  57.291  1.00  0.00     0.237 C 
HETATM   17  C   UNL     1       7.226  30.005  57.367  1.00  0.00     0.235 C 
HETATM   18  C   UNL     1       5.387  26.692  56.691  1.00  0.00     0.063 C 
HETATM   19  C   UNL     1       8.745  29.991  57.542  1.00  0.00     0.030 C 
ENDBRANCH   8  10
ENDBRANCH   1   8
BRANCH   1  20
HETATM   20  C   UNL     1       6.773  24.591  54.004  1.00  0.00    -0.021 A 
HETATM   21  C   UNL     1       7.678  25.007  53.007  1.00  0.00     0.012 A 
HETATM   22  C   UNL     1       7.219  25.460  51.768  1.00  0.00     0.043 A 
HETATM   23  C   UNL     1       5.856  25.512  51.520  1.00  0.00     0.116 A 
HETATM   24  F   UNL     1       5.416  25.949  50.334  1.00  0.00    -0.206 F 
HETATM   25  C   UNL     1       4.940  25.121  52.487  1.00  0.00     0.043 A 
HETATM   26  C   UNL     1       5.395  24.667  53.728  1.00  0.00     0.012 A 
ENDBRANCH   1  20
TORSDOF 4
ENDMDL
MODEL 2
REMARK VINA RESULT:      -8.4      3.163      6.524
REMARK  4 active torsions:
REMARK  status: ('A' for Active; 'I' for Inactive)
REMARK    1  A    between atoms: C_5  and  C_6 
REMARK    2  A    between atoms: C_6  and  N_7 
REMARK    3  A    between atoms: C_6  and  C_18 
REMARK    4  A    between atoms: N_7  and  C_8 
ROOT
HETATM    1  C   UNL     1       6.670  25.859  53.904  1.00  0.00     0.288 C 
ENDROOT
BRANCH   1   2
HETATM    2  C   UNL     1       6.717  26.658  55.195  1.00  0.00    -0.003 A 
HETATM    3  C   UNL     1       5.582  27.001  55.925  1.00  0.00     0.126 A 
HETATM    4  N   UNL     1       5.592  27.725  57.067  1.00  0.00    -0.272 NA
HETATM    5  C   UNL     1       6.799  28.091  57.546  1.00  0.00     0.116 A 
HETATM    6  C   UNL     1       7.994  27.781  56.921  1.00  0.00     0.020 A 
HETATM    7  C   UNL     1       7.950  27.057  55.732  1.00  0.00     0.012 A 
ENDBRANCH   1   2
BRANCH   1   8
HETATM    8  N   UNL     1       5.377  25.877  53.191  1.00  0.00     0.101 N 
HETATM    9  H   UNL     1       4.638  26.070  53.867  1.00  0.00     0.317 HD
BRANCH   8  10
HETATM   10  C   UNL     1       5.275  26.727  52.003  1.00  0.00     0.225 C 
HETATM   11  C   UNL     1       4.953  25.923  50.725  1.00  0.00     0.069 C 
HETATM   12  C   UNL     1       4.724  26.876  49.566  1.00  0.00     0.190 C 
HETATM   13  N   UNL     1       3.588  27.795  49.914  1.00  0.00    -0.067 N 
HETATM   14  C   UNL     1       4.231  26.275  48.265  1.00  0.00     0.035 C 
HETATM   15  H   UNL     1       2.780  27.214  50.185  1.00  0.00     0.280 HD
HETATM   16  C   UNL     1       3.906  28.679  51.076  1.00  0.00     0.237 C 
HETATM   17  C   UNL     1       3.204  28.469  48.622  1.00  0.00     0.235 C 
HETATM   18  C   UNL     1       4.182  27.785  52.281  1.00  0.00     0.063 C 
HETATM   19  C   UNL     1       3.635  27.480  47.539  1.00  0.00     0.030 C 
ENDBRANCH   8  10
ENDBRANCH   1   8
BRANCH   1  20
HETATM   20  C   UNL     1       7.122  24.406  54.066  1.00  0.00    -0.021 A 
HETATM   21  C   UNL     1       7.535  23.683  52.929  1.00  0.00     0.012 A 
HETATM   22  C   UNL     1       7.929  22.347  53.035  1.00  0.00     0.043 A 
HETATM   23  C   UNL     1       7.905  21.722  54.272  1.00  0.00     0.116 A 
HETATM   24  F   UNL     1       8.281  20.441  54.373  1.00  0.00    -0.206 F 
HETATM   25  C   UNL     1       7.491  22.405  55.408  1.00  0.00     0.043 A 
HETATM   26  C   UNL     1       7.095  23.741  55.307  1.00  0.00     0.012 A 
ENDBRANCH   1  20
TORSDOF 4
ENDMDL
MODEL 3
REMARK VINA RESULT:      -8.4      3.016      6.056
REMARK  4 active torsions:
REMARK  status: ('A' for Active; 'I' for Inactive)
REMARK    1  A    between atoms: C_5  and  C_6 
REMARK    2  A    between atoms: C_6  and  N_7 
REMARK    3  A    between atoms: C_6  and  C_18 
REMARK    4  A    between atoms: N_7  and  C_8 
ROOT
HETATM    1  C   UNL     1       6.434  25.951  54.120  1.00  0.00     0.288 C 
ENDROOT
BRANCH   1   2
HETATM    2  C   UNL     1       6.650  26.789  55.369  1.00  0.00    -0.003 A 
HETATM    3  C   UNL     1       5.621  27.153  56.234  1.00  0.00     0.126 A 
HETATM    4  N   UNL     1       5.781  27.911  57.342  1.00  0.00    -0.272 NA
HETATM    5  C   UNL     1       7.039  28.292  57.644  1.00  0.00     0.116 A 
HETATM    6  C   UNL     1       8.142  27.964  56.875  1.00  0.00     0.020 A 
HETATM    7  C   UNL     1       7.941  27.205  55.724  1.00  0.00     0.012 A 
ENDBRANCH   1   2
BRANCH   1   8
HETATM    8  N   UNL     1       5.032  25.826  53.672  1.00  0.00     0.101 N 
HETATM    9  H   UNL     1       4.421  26.049  54.458  1.00  0.00     0.317 HD
BRANCH   8  10
HETATM   10  C   UNL     1       4.649  26.542  52.453  1.00  0.00     0.225 C 
HETATM   11  C   UNL     1       5.286  27.945  52.367  1.00  0.00     0.069 C 
HETATM   12  C   UNL     1       4.963  28.572  51.022  1.00  0.00     0.190 C 
HETATM   13  N   UNL     1       5.494  27.680  49.935  1.00  0.00    -0.067 N 
HETATM   14  C   UNL     1       5.645  29.883  50.689  1.00  0.00     0.035 C 
HETATM   15  H   UNL     1       6.493  27.510  50.123  1.00  0.00     0.280 HD
HETATM   16  C   UNL     1       4.815  26.349  49.908  1.00  0.00     0.237 C 
HETATM   17  C   UNL     1       5.439  28.505  48.675  1.00  0.00     0.235 C 
HETATM   18  C   UNL     1       5.071  25.668  51.249  1.00  0.00     0.063 C 
HETATM   19  C   UNL     1       5.526  29.950  49.167  1.00  0.00     0.030 C 
ENDBRANCH   8  10
ENDBRANCH   1   8
BRANCH   1  20
HETATM   20  C   UNL     1       7.050  24.553  54.206  1.00  0.00    -0.021 A 
HETATM   21  C   UNL     1       7.636  23.988  53.057  1.00  0.00     0.012 A 
HETATM   22  C   UNL     1       8.185  22.704  53.091  1.00  0.00     0.043 A 
HETATM   23  C   UNL     1       8.143  21.972  54.268  1.00  0.00     0.116 A 
HETATM   24  F   UNL     1       8.666  20.741  54.300  1.00  0.00    -0.206 F 
HETATM   25  C   UNL     1       7.559  22.498  55.414  1.00  0.00     0.043 A 
HETATM   26  C   UNL     1       7.009  23.781  55.383  1.00  0.00     0.012 A 
ENDBRANCH   1  20
TORSDOF 4
ENDMDL
MODEL 4
REMARK VINA RESULT:      -8.4      3.057      7.034
REMARK  4 active torsions:
REMARK  status: ('A' for Active; 'I' for Inactive)
REMARK    1  A    between atoms: C_5  and  C_6 
REMARK    2  A    between atoms: C_6  and  N_7 
REMARK    3  A    between atoms: C_6  and  C_18 
REMARK    4  A    between atoms: N_7  and  C_8 
ROOT
HETATM    1  C   UNL     1       7.072  27.230  55.570  1.00  0.00     0.288 C 
ENDROOT
BRANCH   1   2
HETATM    2  C   UNL     1       6.158  27.910  54.564  1.00  0.00    -0.003 A 
HETATM    3  C   UNL     1       6.490  28.081  53.222  1.00  0.00     0.126 A 
HETATM    4  N   UNL     1       5.705  28.695  52.309  1.00  0.00    -0.272 NA
HETATM    5  C   UNL     1       4.498  29.124  52.732  1.00  0.00     0.116 A 
HETATM    6  C   UNL     1       4.050  28.981  54.034  1.00  0.00     0.020 A 
HETATM    7  C   UNL     1       4.892  28.368  54.958  1.00  0.00     0.012 A 
ENDBRANCH   1   2
BRANCH   1   8
HETATM    8  N   UNL     1       6.422  26.244  56.456  1.00  0.00     0.101 N 
HETATM    9  H   UNL     1       5.418  26.427  56.461  1.00  0.00     0.317 HD
BRANCH   8  10
HETATM   10  C   UNL     1       6.723  24.830  56.224  1.00  0.00     0.225 C 
HETATM   11  C   UNL     1       6.888  24.497  54.726  1.00  0.00     0.069 C 
HETATM   12  C   UNL     1       7.336  23.056  54.568  1.00  0.00     0.190 C 
HETATM   13  N   UNL     1       8.637  22.872  55.298  1.00  0.00    -0.067 N 
HETATM   14  C   UNL     1       7.711  22.597  53.174  1.00  0.00     0.035 C 
HETATM   15  H   UNL     1       9.297  23.587  54.957  1.00  0.00     0.280 HD
HETATM   16  C   UNL     1       8.495  23.067  56.772  1.00  0.00     0.237 C 
HETATM   17  C   UNL     1       9.178  21.546  54.829  1.00  0.00     0.235 C 
HETATM   18  C   UNL     1       8.013  24.496  57.010  1.00  0.00     0.063 C 
HETATM   19  C   UNL     1       8.564  21.358  53.441  1.00  0.00     0.030 C 
ENDBRANCH   8  10
ENDBRANCH   1   8
BRANCH   1  20
HETATM   20  C   UNL     1       7.874  28.210  56.428  1.00  0.00    -0.021 A 
HETATM   21  C   UNL     1       7.440  28.491  57.739  1.00  0.00     0.012 A 
HETATM   22  C   UNL     1       8.132  29.400  58.542  1.00  0.00     0.043 A 
HETATM   23  C   UNL     1       9.254  30.042  58.041  1.00  0.00     0.116 A 
HETATM   24  F   UNL     1       9.916  30.915  58.810  1.00  0.00    -0.206 F 
HETATM   25  C   UNL     1       9.699  29.795  56.748  1.00  0.00     0.043 A 
HETATM   26  C   UNL     1       9.009  28.887  55.941  1.00  0.00     0.012 A 
ENDBRANCH   1  20
TORSDOF 4
ENDMDL
MODEL 5
REMARK VINA RESULT:      -8.3      2.098      6.235
REMARK  4 active torsions:
REMARK  status: ('A' for Active; 'I' for Inactive)
REMARK    1  A    between atoms: C_5  and  C_6 
REMARK    2  A    between atoms: C_6  and  N_7 
REMARK    3  A    between atoms: C_6  and  C_18 
REMARK    4  A    between atoms: N_7  and  C_8 
ROOT
HETATM    1  C   UNL     1       6.579  26.836  55.392  1.00  0.00     0.288 C 
ENDROOT
BRANCH   1   2
HETATM    2  C   UNL     1       7.422  27.792  56.220  1.00  0.00    -0.003 A 
HETATM    3  C   UNL     1       7.354  27.865  57.609  1.00  0.00     0.126 A 
HETATM    4  N   UNL     1       8.078  28.715  58.370  1.00  0.00    -0.272 NA
HETATM    5  C   UNL     1       8.960  29.508  57.727  1.00  0.00     0.116 A 
HETATM    6  C   UNL     1       9.135  29.501  56.354  1.00  0.00     0.020 A 
HETATM    7  C   UNL     1       8.354  28.632  55.595  1.00  0.00     0.012 A 
ENDBRANCH   1   2
BRANCH   1   8
HETATM    8  N   UNL     1       7.335  25.898  54.537  1.00  0.00     0.101 N 
HETATM    9  H   UNL     1       8.284  26.255  54.427  1.00  0.00     0.317 HD
BRANCH   8  10
HETATM   10  C   UNL     1       7.316  24.483  54.911  1.00  0.00     0.225 C 
HETATM   11  C   UNL     1       7.683  23.555  53.734  1.00  0.00     0.069 C 
HETATM   12  C   UNL     1       7.781  22.121  54.224  1.00  0.00     0.190 C 
HETATM   13  N   UNL     1       8.827  22.050  55.301  1.00  0.00    -0.067 N 
HETATM   14  C   UNL     1       8.297  21.089  53.242  1.00  0.00     0.035 C 
HETATM   15  H   UNL     1       9.697  22.458  54.927  1.00  0.00     0.280 HD
HETATM   16  C   UNL     1       8.451  22.842  56.511  1.00  0.00     0.237 C 
HETATM   17  C   UNL     1       9.104  20.582  55.498  1.00  0.00     0.235 C 
HETATM   18  C   UNL     1       8.302  24.300  56.088  1.00  0.00     0.063 C 
HETATM   19  C   UNL     1       8.746  19.948  54.153  1.00  0.00     0.030 C 
ENDBRANCH   8  10
ENDBRANCH   1   8
BRANCH   1  20
HETATM   20  C   UNL     1       5.520  27.536  54.538  1.00  0.00    -0.021 A 
HETATM   21  C   UNL     1       5.308  27.104  53.214  1.00  0.00     0.012 A 
HETATM   22  C   UNL     1       4.367  27.736  52.397  1.00  0.00     0.043 A 
HETATM   23  C   UNL     1       3.641  28.809  52.892  1.00  0.00     0.116 A 
HETATM   24  F   UNL     1       2.742  29.416  52.107  1.00  0.00    -0.206 F 
HETATM   25  C   UNL     1       3.837  29.265  54.188  1.00  0.00     0.043 A 
HETATM   26  C   UNL     1       4.777  28.636  55.008  1.00  0.00     0.012 A 
ENDBRANCH   1  20
TORSDOF 4
ENDMDL
MODEL 6
REMARK VINA RESULT:      -8.3      3.049      7.071
REMARK  4 active torsions:
REMARK  status: ('A' for Active; 'I' for Inactive)
REMARK    1  A    between atoms: C_5  and  C_6 
REMARK    2  A    between atoms: C_6  and  N_7 
REMARK    3  A    between atoms: C_6  and  C_18 
REMARK    4  A    between atoms: N_7  and  C_8 
ROOT
HETATM    1  C   UNL     1       6.746  26.868  54.204  1.00  0.00     0.288 C 
ENDROOT
BRANCH   1   2
HETATM    2  C   UNL     1       5.653  27.644  53.487  1.00  0.00    -0.003 A 
HETATM    3  C   UNL     1       5.568  27.743  52.101  1.00  0.00     0.126 A 
HETATM    4  N   UNL     1       4.618  28.439  51.437  1.00  0.00    -0.272 NA
HETATM    5  C   UNL     1       3.664  29.033  52.183  1.00  0.00     0.116 A 
HETATM    6  C   UNL     1       3.631  28.976  53.566  1.00  0.00     0.020 A 
HETATM    7  C   UNL     1       4.639  28.274  54.223  1.00  0.00     0.012 A 
ENDBRANCH   1   2
BRANCH   1   8
HETATM    8  N   UNL     1       6.356  25.536  54.707  1.00  0.00     0.101 N 
HETATM    9  H   UNL     1       5.443  25.299  54.319  1.00  0.00     0.317 HD
BRANCH   8  10
HETATM   10  C   UNL     1       7.323  24.447  54.547  1.00  0.00     0.225 C 
HETATM   11  C   UNL     1       7.275  23.438  55.714  1.00  0.00     0.069 C 
HETATM   12  C   UNL     1       8.196  22.269  55.417  1.00  0.00     0.190 C 
HETATM   13  N   UNL     1       7.754  21.619  54.136  1.00  0.00    -0.067 N 
HETATM   14  C   UNL     1       8.154  21.095  56.374  1.00  0.00     0.035 C 
HETATM   15  H   UNL     1       6.752  21.391  54.224  1.00  0.00     0.280 HD
HETATM   16  C   UNL     1       7.898  22.527  52.958  1.00  0.00     0.237 C 
HETATM   17  C   UNL     1       8.480  20.300  54.081  1.00  0.00     0.235 C 
HETATM   18  C   UNL     1       7.019  23.750  53.200  1.00  0.00     0.063 C 
HETATM   19  C   UNL     1       8.754  19.960  55.546  1.00  0.00     0.030 C 
ENDBRANCH   8  10
ENDBRANCH   1   8
BRANCH   1  20
HETATM   20  C   UNL     1       7.407  27.650  55.341  1.00  0.00    -0.021 A 
HETATM   21  C   UNL     1       8.340  28.659  55.031  1.00  0.00     0.012 A 
HETATM   22  C   UNL     1       8.983  29.375  56.043  1.00  0.00     0.043 A 
HETATM   23  C   UNL     1       8.708  29.082  57.370  1.00  0.00     0.116 A 
HETATM   24  F   UNL     1       9.326  29.766  58.341  1.00  0.00    -0.206 F 
HETATM   25  C   UNL     1       7.803  28.083  57.707  1.00  0.00     0.043 A 
HETATM   26  C   UNL     1       7.158  27.364  56.697  1.00  0.00     0.012 A 
ENDBRANCH   1  20
TORSDOF 4
ENDMDL
MODEL 7
REMARK VINA RESULT:      -8.2      2.525      4.470
REMARK  4 active torsions:
REMARK  status: ('A' for Active; 'I' for Inactive)
REMARK    1  A    between atoms: C_5  and  C_6 
REMARK    2  A    between atoms: C_6  and  N_7 
REMARK    3  A    between atoms: C_6  and  C_18 
REMARK    4  A    between atoms: N_7  and  C_8 
ROOT
HETATM    1  C   UNL     1       6.921  25.376  55.047  1.00  0.00     0.288 C 
ENDROOT
BRANCH   1   2
HETATM    2  C   UNL     1       6.285  25.541  53.677  1.00  0.00    -0.003 A 
HETATM    3  C   UNL     1       6.708  26.486  52.745  1.00  0.00     0.126 A 
HETATM    4  N   UNL     1       6.152  26.666  51.527  1.00  0.00    -0.272 NA
HETATM    5  C   UNL     1       5.149  25.832  51.184  1.00  0.00     0.116 A 
HETATM    6  C   UNL     1       4.666  24.837  52.016  1.00  0.00     0.020 A 
HETATM    7  C   UNL     1       5.242  24.693  53.277  1.00  0.00     0.012 A 
ENDBRANCH   1   2
BRANCH   1   8
HETATM    8  N   UNL     1       7.824  26.466  55.465  1.00  0.00     0.101 N 
HETATM    9  H   UNL     1       8.069  27.017  54.642  1.00  0.00     0.317 HD
BRANCH   8  10
HETATM   10  C   UNL     1       7.391  27.307  56.584  1.00  0.00     0.225 C 
HETATM   11  C   UNL     1       8.525  28.204  57.123  1.00  0.00     0.069 C 
HETATM   12  C   UNL     1       7.974  29.145  58.180  1.00  0.00     0.190 C 
HETATM   13  N   UNL     1       6.886  29.978  57.564  1.00  0.00    -0.067 N 
HETATM   14  C   UNL     1       8.907  30.217  58.704  1.00  0.00     0.035 C 
HETATM   15  H   UNL     1       7.269  30.427  56.718  1.00  0.00     0.280 HD
HETATM   16  C   UNL     1       5.713  29.157  57.136  1.00  0.00     0.237 C 
HETATM   17  C   UNL     1       6.625  31.090  58.546  1.00  0.00     0.235 C 
HETATM   18  C   UNL     1       6.199  28.159  56.089  1.00  0.00     0.063 C 
HETATM   19  C   UNL     1       7.945  31.241  59.303  1.00  0.00     0.030 C 
ENDBRANCH   8  10
ENDBRANCH   1   8
BRANCH   1  20
HETATM   20  C   UNL     1       7.644  24.040  55.230  1.00  0.00    -0.021 A 
HETATM   21  C   UNL     1       7.731  23.475  56.518  1.00  0.00     0.012 A 
HETATM   22  C   UNL     1       8.406  22.270  56.727  1.00  0.00     0.043 A 
HETATM   23  C   UNL     1       9.007  21.627  55.656  1.00  0.00     0.116 A 
HETATM   24  F   UNL     1       9.656  20.474  55.857  1.00  0.00    -0.206 F 
HETATM   25  C   UNL     1       8.950  22.166  54.377  1.00  0.00     0.043 A 
HETATM   26  C   UNL     1       8.276  23.371  54.164  1.00  0.00     0.012 A 
ENDBRANCH   1  20
TORSDOF 4
ENDMDL
MODEL 8
REMARK VINA RESULT:      -8.2      2.547      6.858
REMARK  4 active torsions:
REMARK  status: ('A' for Active; 'I' for Inactive)
REMARK    1  A    between atoms: C_5  and  C_6 
REMARK    2  A    between atoms: C_6  and  N_7 
REMARK    3  A    between atoms: C_6  and  C_18 
REMARK    4  A    between atoms: N_7  and  C_8 
ROOT
HETATM    1  C   UNL     1       7.250  28.099  56.259  1.00  0.00     0.288 C 
ENDROOT
BRANCH   1   2
HETATM    2  C   UNL     1       8.443  28.959  56.641  1.00  0.00    -0.003 A 
HETATM    3  C   UNL     1       9.414  29.369  55.732  1.00  0.00     0.126 A 
HETATM    4  N   UNL     1      10.493  30.119  56.046  1.00  0.00    -0.272 NA
HETATM    5  C   UNL     1      10.596  30.534  57.325  1.00  0.00     0.116 A 
HETATM    6  C   UNL     1       9.676  30.214  58.308  1.00  0.00     0.020 A 
HETATM    7  C   UNL     1       8.588  29.417  57.959  1.00  0.00     0.012 A 
ENDBRANCH   1   2
BRANCH   1   8
HETATM    8  N   UNL     1       7.411  27.298  55.029  1.00  0.00     0.101 N 
HETATM    9  H   UNL     1       8.343  27.471  54.651  1.00  0.00     0.317 HD
BRANCH   8  10
HETATM   10  C   UNL     1       7.104  25.869  55.111  1.00  0.00     0.225 C 
HETATM   11  C   UNL     1       7.517  25.100  53.839  1.00  0.00     0.069 C 
HETATM   12  C   UNL     1       7.301  23.612  54.047  1.00  0.00     0.190 C 
HETATM   13  N   UNL     1       8.120  23.166  55.226  1.00  0.00    -0.067 N 
HETATM   14  C   UNL     1       7.809  22.682  52.964  1.00  0.00     0.035 C 
HETATM   15  H   UNL     1       9.095  23.461  55.065  1.00  0.00     0.280 HD
HETATM   16  C   UNL     1       7.672  23.799  56.502  1.00  0.00     0.237 C 
HETATM   17  C   UNL     1       8.123  21.661  55.168  1.00  0.00     0.235 C 
HETATM   18  C   UNL     1       7.831  25.309  56.356  1.00  0.00     0.063 C 
HETATM   19  C   UNL     1       7.907  21.340  53.688  1.00  0.00     0.030 C 
ENDBRANCH   8  10
ENDBRANCH   1   8
BRANCH   1  20
HETATM   20  C   UNL     1       5.936  28.878  56.171  1.00  0.00    -0.021 A 
HETATM   21  C   UNL     1       5.418  29.213  54.905  1.00  0.00     0.012 A 
HETATM   22  C   UNL     1       4.235  29.946  54.786  1.00  0.00     0.043 A 
HETATM   23  C   UNL     1       3.567  30.358  55.929  1.00  0.00     0.116 A 
HETATM   24  F   UNL     1       2.435  31.063  55.816  1.00  0.00    -0.206 F 
HETATM   25  C   UNL     1       4.060  30.054  57.192  1.00  0.00     0.043 A 
HETATM   26  C   UNL     1       5.244  29.322  57.314  1.00  0.00     0.012 A 
ENDBRANCH   1  20
TORSDOF 4
ENDMDL
MODEL 9
REMARK VINA RESULT:      -8.0      2.807      5.053
REMARK  4 active torsions:
REMARK  status: ('A' for Active; 'I' for Inactive)
REMARK    1  A    between atoms: C_5  and  C_6 
REMARK    2  A    between atoms: C_6  and  N_7 
REMARK    3  A    between atoms: C_6  and  C_18 
REMARK    4  A    between atoms: N_7  and  C_8 
ROOT
HETATM    1  C   UNL     1       6.643  27.198  54.366  1.00  0.00     0.288 C 
ENDROOT
BRANCH   1   2
HETATM    2  C   UNL     1       5.632  27.863  53.447  1.00  0.00    -0.003 A 
HETATM    3  C   UNL     1       5.990  28.600  52.321  1.00  0.00     0.126 A 
HETATM    4  N   UNL     1       5.114  29.215  51.496  1.00  0.00    -0.272 NA
HETATM    5  C   UNL     1       3.803  29.055  51.768  1.00  0.00     0.116 A 
HETATM    6  C   UNL     1       3.330  28.320  52.842  1.00  0.00     0.020 A 
HETATM    7  C   UNL     1       4.258  27.720  53.690  1.00  0.00     0.012 A 
ENDBRANCH   1   2
BRANCH   1   8
HETATM    8  N   UNL     1       7.876  27.970  54.620  1.00  0.00     0.101 N 
HETATM    9  H   UNL     1       7.918  28.741  53.954  1.00  0.00     0.317 HD
BRANCH   8  10
HETATM   10  C   UNL     1       8.121  28.414  55.994  1.00  0.00     0.225 C 
HETATM   11  C   UNL     1       9.315  29.386  56.098  1.00  0.00     0.069 C 
HETATM   12  C   UNL     1       9.423  29.913  57.518  1.00  0.00     0.190 C 
HETATM   13  N   UNL     1       8.139  30.609  57.873  1.00  0.00    -0.067 N 
HETATM   14  C   UNL     1      10.435  31.011  57.772  1.00  0.00     0.035 C 
HETATM   15  H   UNL     1       7.947  31.314  57.145  1.00  0.00     0.280 HD
HETATM   16  C   UNL     1       6.974  29.675  57.902  1.00  0.00     0.237 C 
HETATM   17  C   UNL     1       8.434  31.379  59.135  1.00  0.00     0.235 C 
HETATM   18  C   UNL     1       6.821  29.077  56.506  1.00  0.00     0.063 C 
HETATM   19  C   UNL     1       9.941  31.634  59.077  1.00  0.00     0.030 C 
ENDBRANCH   8  10
ENDBRANCH   1   8
BRANCH   1  20
HETATM   20  C   UNL     1       7.029  25.783  53.931  1.00  0.00    -0.021 A 
HETATM   21  C   UNL     1       7.644  25.592  52.677  1.00  0.00     0.012 A 
HETATM   22  C   UNL     1       7.986  24.312  52.235  1.00  0.00     0.043 A 
HETATM   23  C   UNL     1       7.708  23.214  53.035  1.00  0.00     0.116 A 
HETATM   24  F   UNL     1       8.033  21.987  52.610  1.00  0.00    -0.206 F 
HETATM   25  C   UNL     1       7.091  23.370  54.270  1.00  0.00     0.043 A 
HETATM   26  C   UNL     1       6.746  24.648  54.715  1.00  0.00     0.012 A 
ENDBRANCH   1  20
TORSDOF 4
ENDMDL
MODEL 10
REMARK VINA RESULT:      -7.9      2.189      4.516
REMARK  4 active torsions:
REMARK  status: ('A' for Active; 'I' for Inactive)
REMARK    1  A    between atoms: C_5  and  C_6 
REMARK    2  A    between atoms: C_6  and  N_7 
REMARK    3  A    between atoms: C_6  and  C_18 
REMARK    4  A    between atoms: N_7  and  C_8 
ROOT
HETATM    1  C   UNL     1       6.673  23.995  55.386  1.00  0.00     0.288 C 
ENDROOT
BRANCH   1   2
HETATM    2  C   UNL     1       6.483  24.758  54.085  1.00  0.00    -0.003 A 
HETATM    3  C   UNL     1       5.234  25.121  53.587  1.00  0.00     0.126 A 
HETATM    4  N   UNL     1       5.034  25.784  52.426  1.00  0.00    -0.272 NA
HETATM    5  C   UNL     1       6.133  26.156  51.738  1.00  0.00     0.116 A 
HETATM    6  C   UNL     1       7.424  25.876  52.152  1.00  0.00     0.020 A 
HETATM    7  C   UNL     1       7.597  25.167  53.339  1.00  0.00     0.012 A 
ENDBRANCH   1   2
BRANCH   1   8
HETATM    8  N   UNL     1       7.241  24.775  56.504  1.00  0.00     0.101 N 
HETATM    9  H   UNL     1       8.161  24.395  56.728  1.00  0.00     0.317 HD
BRANCH   8  10
HETATM   10  C   UNL     1       7.265  26.233  56.364  1.00  0.00     0.225 C 
HETATM   11  C   UNL     1       5.953  26.894  56.837  1.00  0.00     0.069 C 
HETATM   12  C   UNL     1       6.098  28.404  56.797  1.00  0.00     0.190 C 
HETATM   13  N   UNL     1       7.243  28.803  57.685  1.00  0.00    -0.067 N 
HETATM   14  C   UNL     1       4.967  29.223  57.387  1.00  0.00     0.035 C 
HETATM   15  H   UNL     1       7.082  28.391  58.617  1.00  0.00     0.280 HD
HETATM   16  C   UNL     1       8.553  28.281  57.192  1.00  0.00     0.237 C 
HETATM   17  C   UNL     1       7.118  30.294  57.859  1.00  0.00     0.235 C 
HETATM   18  C   UNL     1       8.473  26.758  57.174  1.00  0.00     0.063 C 
HETATM   19  C   UNL     1       5.629  30.574  57.652  1.00  0.00     0.030 C 
ENDBRANCH   8  10
ENDBRANCH   1   8
BRANCH   1  20
HETATM   20  C   UNL     1       7.478  22.704  55.227  1.00  0.00    -0.021 A 
HETATM   21  C   UNL     1       7.521  22.070  53.970  1.00  0.00     0.012 A 
HETATM   22  C   UNL     1       8.224  20.876  53.793  1.00  0.00     0.043 A 
HETATM   23  C   UNL     1       8.880  20.302  54.872  1.00  0.00     0.116 A 
HETATM   24  F   UNL     1       9.551  19.156  54.704  1.00  0.00    -0.206 F 
HETATM   25  C   UNL     1       8.844  20.896  56.127  1.00  0.00     0.043 A 
HETATM   26  C   UNL     1       8.142  22.090  56.307  1.00  0.00     0.012 A 
ENDBRANCH   1  20
TORSDOF 4
ENDMDL
