MODEL 1
REMARK VINA RESULT:      -8.5      0.000      0.000
REMARK  3 active torsions:
REMARK  status: ('A' for Active; 'I' for Inactive)
REMARK    1  A    between atoms: C_4  and  N_5 
REMARK       I    between atoms: N_5  and  C_6 
REMARK    2  A    between atoms: C_6  and  C_7 
REMARK    3  A    between atoms: C_7  and  C_8 
ROOT
HETATM    1  C   UNL     1       7.667  25.420  56.636  1.00  0.00     0.286 C 
HETATM    2  N   UNL     1       6.491  24.919  55.805  1.00  0.00    -0.056 N 
HETATM    3  H   UNL     1       5.793  24.579  56.501  1.00  0.00     0.278 HD
HETATM    4  H   UNL     1       6.033  25.689  55.304  1.00  0.00     0.278 HD
HETATM    5  C   UNL     1       6.804  23.773  54.883  1.00  0.00     0.209 C 
HETATM    6  C   UNL     1       7.490  22.637  55.683  1.00  0.00     0.115 C 
HETATM    7  N   UNL     1       8.587  23.113  56.525  1.00  0.00    -0.353 N 
HETATM    8  C   UNL     1       8.521  24.286  57.238  1.00  0.00     0.249 C 
HETATM    9  O   UNL     1       9.212  24.432  58.241  1.00  0.00    -0.271 OA
HETATM   10  C   UNL     1       7.633  24.270  53.697  1.00  0.00     0.035 C 
HETATM   11  C   UNL     1       8.046  23.111  52.794  1.00  0.00     0.002 C 
HETATM   12  C   UNL     1       8.794  22.036  53.578  1.00  0.00     0.002 C 
HETATM   13  C   UNL     1       7.965  21.516  54.752  1.00  0.00     0.027 C 
HETATM   14  H   UNL     1       9.147  22.410  57.006  1.00  0.00     0.163 HD
ENDROOT
BRANCH   1  15
HETATM   15  C   UNL     1       7.217  26.418  57.715  1.00  0.00     0.146 C 
BRANCH  15  16
HETATM   16  C   UNL     1       6.426  27.554  57.125  1.00  0.00     0.224 C 
HETATM   17  N   UNL     1       6.940  28.796  56.943  1.00  0.00    -0.327 N 
HETATM   18  H   UNL     1       6.251  29.421  56.532  1.00  0.00     0.169 HD
HETATM   19  O   UNL     1       5.278  27.322  56.715  1.00  0.00    -0.273 OA
BRANCH  17  20
HETATM   20  C   UNL     1       8.194  29.395  57.185  1.00  0.00     0.034 A 
HETATM   21  C   UNL     1       8.564  30.098  58.331  1.00  0.00     0.029 A 
HETATM   22  C   UNL     1       9.845  30.653  58.446  1.00  0.00     0.002 A 
HETATM   23  C   UNL     1      10.777  30.502  57.424  1.00  0.00     0.000 A 
HETATM   24  C   UNL     1      10.428  29.793  56.282  1.00  0.00     0.002 A 
HETATM   25  C   UNL     1       9.147  29.247  56.164  1.00  0.00     0.029 A 
ENDBRANCH  17  20
ENDBRANCH  15  16
ENDBRANCH   1  15
TORSDOF 3
ENDMDL
MODEL 2
REMARK VINA RESULT:      -8.2      4.647      7.196
REMARK  3 active torsions:
REMARK  status: ('A' for Active; 'I' for Inactive)
REMARK    1  A    between atoms: C_4  and  N_5 
REMARK       I    between atoms: N_5  and  C_6 
REMARK    2  A    between atoms: C_6  and  C_7 
REMARK    3  A    between atoms: C_7  and  C_8 
ROOT
HETATM    1  C   UNL     1       8.773  31.300  59.197  1.00  0.00     0.286 C 
HETATM    2  N   UNL     1       7.888  30.105  59.536  1.00  0.00    -0.056 N 
HETATM    3  H   UNL     1       8.475  29.499  60.151  1.00  0.00     0.278 HD
HETATM    4  H   UNL     1       7.083  30.386  60.107  1.00  0.00     0.278 HD
HETATM    5  C   UNL     1       7.464  29.272  58.357  1.00  0.00     0.209 C 
HETATM    6  C   UNL     1       8.710  28.871  57.529  1.00  0.00     0.115 C 
HETATM    7  N   UNL     1       9.593  30.000  57.242  1.00  0.00    -0.353 N 
HETATM    8  C   UNL     1       9.875  30.977  58.168  1.00  0.00     0.249 C 
HETATM    9  O   UNL     1      10.914  31.622  58.081  1.00  0.00    -0.271 OA
HETATM   10  C   UNL     1       6.406  30.022  57.544  1.00  0.00     0.035 C 
HETATM   11  C   UNL     1       6.025  29.241  56.289  1.00  0.00     0.002 C 
HETATM   12  C   UNL     1       7.253  28.923  55.440  1.00  0.00     0.002 C 
HETATM   13  C   UNL     1       8.306  28.153  56.237  1.00  0.00     0.027 C 
HETATM   14  H   UNL     1      10.383  29.831  56.621  1.00  0.00     0.163 HD
ENDROOT
BRANCH   1  15
HETATM   15  C   UNL     1       9.357  31.951  60.460  1.00  0.00     0.146 C 
BRANCH  15  16
HETATM   16  C   UNL     1       9.144  31.092  61.677  1.00  0.00     0.224 C 
HETATM   17  N   UNL     1       8.344  31.460  62.710  1.00  0.00    -0.327 N 
HETATM   18  H   UNL     1       8.331  30.746  63.434  1.00  0.00     0.169 HD
HETATM   19  O   UNL     1       9.659  29.964  61.700  1.00  0.00    -0.273 OA
BRANCH  17  20
HETATM   20  C   UNL     1       7.541  32.585  62.991  1.00  0.00     0.034 A 
HETATM   21  C   UNL     1       6.679  33.224  62.102  1.00  0.00     0.029 A 
HETATM   22  C   UNL     1       5.937  34.343  62.505  1.00  0.00     0.002 A 
HETATM   23  C   UNL     1       6.039  34.828  63.805  1.00  0.00     0.000 A 
HETATM   24  C   UNL     1       6.883  34.194  64.707  1.00  0.00     0.002 A 
HETATM   25  C   UNL     1       7.629  33.084  64.301  1.00  0.00     0.029 A 
ENDBRANCH  17  20
ENDBRANCH  15  16
ENDBRANCH   1  15
TORSDOF 3
ENDMDL
MODEL 3
REMARK VINA RESULT:      -8.1      3.186      6.250
REMARK  3 active torsions:
REMARK  status: ('A' for Active; 'I' for Inactive)
REMARK    1  A    between atoms: C_4  and  N_5 
REMARK       I    between atoms: N_5  and  C_6 
REMARK    2  A    between atoms: C_6  and  C_7 
REMARK    3  A    between atoms: C_7  and  C_8 
ROOT
HETATM    1  C   UNL     1       6.051  25.466  55.344  1.00  0.00     0.286 C 
HETATM    2  N   UNL     1       7.144  25.517  54.281  1.00  0.00    -0.056 N 
HETATM    3  H   UNL     1       7.951  25.987  54.745  1.00  0.00     0.278 HD
HETATM    4  H   UNL     1       7.472  24.575  54.037  1.00  0.00     0.278 HD
HETATM    5  C   UNL     1       6.802  26.316  53.054  1.00  0.00     0.209 C 
HETATM    6  C   UNL     1       6.316  27.726  53.472  1.00  0.00     0.115 C 
HETATM    7  N   UNL     1       5.305  27.693  54.527  1.00  0.00    -0.353 N 
HETATM    8  C   UNL     1       5.373  26.828  55.594  1.00  0.00     0.249 C 
HETATM    9  O   UNL     1       4.810  27.108  56.646  1.00  0.00    -0.271 OA
HETATM   10  C   UNL     1       5.790  25.550  52.199  1.00  0.00     0.035 C 
HETATM   11  C   UNL     1       5.353  26.379  50.994  1.00  0.00     0.002 C 
HETATM   12  C   UNL     1       4.799  27.734  51.425  1.00  0.00     0.002 C 
HETATM   13  C   UNL     1       5.812  28.517  52.259  1.00  0.00     0.027 C 
HETATM   14  H   UNL     1       4.869  28.576  54.786  1.00  0.00     0.163 HD
ENDROOT
BRANCH   1  15
HETATM   15  C   UNL     1       6.560  24.842  56.653  1.00  0.00     0.146 C 
BRANCH  15  16
HETATM   16  C   UNL     1       8.057  24.942  56.771  1.00  0.00     0.224 C 
HETATM   17  N   UNL     1       8.894  23.932  56.425  1.00  0.00    -0.327 N 
HETATM   18  H   UNL     1       9.865  24.193  56.576  1.00  0.00     0.169 HD
HETATM   19  O   UNL     1       8.549  26.024  57.124  1.00  0.00    -0.273 OA
BRANCH  17  20
HETATM   20  C   UNL     1       8.718  22.632  55.908  1.00  0.00     0.034 A 
HETATM   21  C   UNL     1       8.393  21.490  56.640  1.00  0.00     0.029 A 
HETATM   22  C   UNL     1       8.252  20.249  56.003  1.00  0.00     0.002 A 
HETATM   23  C   UNL     1       8.421  20.137  54.627  1.00  0.00     0.000 A 
HETATM   24  C   UNL     1       8.731  21.267  53.882  1.00  0.00     0.002 A 
HETATM   25  C   UNL     1       8.880  22.502  54.518  1.00  0.00     0.029 A 
ENDBRANCH  17  20
ENDBRANCH  15  16
ENDBRANCH   1  15
TORSDOF 3
ENDMDL
MODEL 4
REMARK VINA RESULT:      -8.1      2.538      3.788
REMARK  3 active torsions:
REMARK  status: ('A' for Active; 'I' for Inactive)
REMARK    1  A    between atoms: C_4  and  N_5 
REMARK       I    between atoms: N_5  and  C_6 
REMARK    2  A    between atoms: C_6  and  C_7 
REMARK    3  A    between atoms: C_7  and  C_8 
ROOT
HETATM    1  C   UNL     1       6.815  24.432  56.327  1.00  0.00     0.286 C 
HETATM    2  N   UNL     1       8.278  24.030  56.475  1.00  0.00    -0.056 N 
HETATM    3  H   UNL     1       8.822  24.856  56.142  1.00  0.00     0.278 HD
HETATM    4  H   UNL     1       8.534  23.907  57.462  1.00  0.00     0.278 HD
HETATM    5  C   UNL     1       8.701  22.849  55.646  1.00  0.00     0.209 C 
HETATM    6  C   UNL     1       8.298  23.080  54.169  1.00  0.00     0.115 C 
HETATM    7  N   UNL     1       6.911  23.517  54.017  1.00  0.00    -0.353 N 
HETATM    8  C   UNL     1       6.320  24.423  54.867  1.00  0.00     0.249 C 
HETATM    9  O   UNL     1       5.369  25.093  54.481  1.00  0.00    -0.271 OA
HETATM   10  C   UNL     1       8.125  21.562  56.242  1.00  0.00     0.035 C 
HETATM   11  C   UNL     1       8.460  20.356  55.367  1.00  0.00     0.002 C 
HETATM   12  C   UNL     1       7.983  20.564  53.932  1.00  0.00     0.002 C 
HETATM   13  C   UNL     1       8.573  21.834  53.320  1.00  0.00     0.027 C 
HETATM   14  H   UNL     1       6.546  23.597  53.069  1.00  0.00     0.163 HD
ENDROOT
BRANCH   1  15
HETATM   15  C   UNL     1       6.523  25.778  57.010  1.00  0.00     0.146 C 
BRANCH  15  16
HETATM   16  C   UNL     1       7.637  26.765  56.790  1.00  0.00     0.224 C 
HETATM   17  N   UNL     1       7.568  27.765  55.876  1.00  0.00    -0.327 N 
HETATM   18  H   UNL     1       8.418  28.324  55.880  1.00  0.00     0.169 HD
HETATM   19  O   UNL     1       8.629  26.711  57.534  1.00  0.00    -0.273 OA
BRANCH  17  20
HETATM   20  C   UNL     1       6.598  28.194  54.947  1.00  0.00     0.034 A 
HETATM   21  C   UNL     1       5.390  28.823  55.248  1.00  0.00     0.029 A 
HETATM   22  C   UNL     1       4.505  29.196  54.227  1.00  0.00     0.002 A 
HETATM   23  C   UNL     1       4.821  28.958  52.894  1.00  0.00     0.000 A 
HETATM   24  C   UNL     1       6.026  28.345  52.577  1.00  0.00     0.002 A 
HETATM   25  C   UNL     1       6.905  27.965  53.595  1.00  0.00     0.029 A 
ENDBRANCH  17  20
ENDBRANCH  15  16
ENDBRANCH   1  15
TORSDOF 3
ENDMDL
MODEL 5
REMARK VINA RESULT:      -8.1      3.055      4.370
REMARK  3 active torsions:
REMARK  status: ('A' for Active; 'I' for Inactive)
REMARK    1  A    between atoms: C_4  and  N_5 
REMARK       I    between atoms: N_5  and  C_6 
REMARK    2  A    between atoms: C_6  and  C_7 
REMARK    3  A    between atoms: C_7  and  C_8 
ROOT
HETATM    1  C   UNL     1       7.911  24.547  55.252  1.00  0.00     0.286 C 
HETATM    2  N   UNL     1       6.856  23.660  54.599  1.00  0.00    -0.056 N 
HETATM    3  H   UNL     1       6.029  23.711  55.233  1.00  0.00     0.278 HD
HETATM    4  H   UNL     1       6.545  24.048  53.702  1.00  0.00     0.278 HD
HETATM    5  C   UNL     1       7.235  22.210  54.470  1.00  0.00     0.209 C 
HETATM    6  C   UNL     1       7.695  21.669  55.846  1.00  0.00     0.115 C 
HETATM    7  N   UNL     1       8.668  22.538  56.506  1.00  0.00    -0.353 N 
HETATM    8  C   UNL     1       8.568  23.909  56.492  1.00  0.00     0.249 C 
HETATM    9  O   UNL     1       9.091  24.570  57.383  1.00  0.00    -0.271 OA
HETATM   10  C   UNL     1       8.283  22.042  53.367  1.00  0.00     0.035 C 
HETATM   11  C   UNL     1       8.756  20.594  53.278  1.00  0.00     0.002 C 
HETATM   12  C   UNL     1       9.284  20.099  54.622  1.00  0.00     0.002 C 
HETATM   13  C   UNL     1       8.236  20.240  55.725  1.00  0.00     0.027 C 
HETATM   14  H   UNL     1       9.087  22.200  57.371  1.00  0.00     0.163 HD
ENDROOT
BRANCH   1  15
HETATM   15  C   UNL     1       7.360  25.947  55.565  1.00  0.00     0.146 C 
BRANCH  15  16
HETATM   16  C   UNL     1       5.868  25.927  55.760  1.00  0.00     0.224 C 
HETATM   17  N   UNL     1       4.992  26.278  54.786  1.00  0.00    -0.327 N 
HETATM   18  H   UNL     1       4.032  26.197  55.111  1.00  0.00     0.169 HD
HETATM   19  O   UNL     1       5.420  25.494  56.832  1.00  0.00    -0.273 OA
BRANCH  17  20
HETATM   20  C   UNL     1       5.116  26.713  53.450  1.00  0.00     0.034 A 
HETATM   21  C   UNL     1       5.305  28.028  53.025  1.00  0.00     0.029 A 
HETATM   22  C   UNL     1       5.408  28.331  51.661  1.00  0.00     0.002 A 
HETATM   23  C   UNL     1       5.335  27.323  50.705  1.00  0.00     0.000 A 
HETATM   24  C   UNL     1       5.160  26.006  51.112  1.00  0.00     0.002 A 
HETATM   25  C   UNL     1       5.050  25.706  52.472  1.00  0.00     0.029 A 
ENDBRANCH  17  20
ENDBRANCH  15  16
ENDBRANCH   1  15
TORSDOF 3
ENDMDL
MODEL 6
REMARK VINA RESULT:      -8.1      1.849      6.731
REMARK  3 active torsions:
REMARK  status: ('A' for Active; 'I' for Inactive)
REMARK    1  A    between atoms: C_4  and  N_5 
REMARK       I    between atoms: N_5  and  C_6 
REMARK    2  A    between atoms: C_6  and  C_7 
REMARK    3  A    between atoms: C_7  and  C_8 
ROOT
HETATM    1  C   UNL     1       7.176  28.559  55.611  1.00  0.00     0.286 C 
HETATM    2  N   UNL     1       8.133  27.750  56.481  1.00  0.00    -0.056 N 
HETATM    3  H   UNL     1       7.518  27.192  57.113  1.00  0.00     0.278 HD
HETATM    4  H   UNL     1       8.656  27.065  55.924  1.00  0.00     0.278 HD
HETATM    5  C   UNL     1       9.048  28.567  57.351  1.00  0.00     0.209 C 
HETATM    6  C   UNL     1       8.215  29.582  58.172  1.00  0.00     0.115 C 
HETATM    7  N   UNL     1       7.257  30.327  57.357  1.00  0.00    -0.353 N 
HETATM    8  C   UNL     1       6.522  29.742  56.352  1.00  0.00     0.249 C 
HETATM    9  O   UNL     1       5.453  30.234  56.009  1.00  0.00    -0.271 OA
HETATM   10  C   UNL     1      10.134  29.222  56.493  1.00  0.00     0.035 C 
HETATM   11  C   UNL     1      11.022  30.134  57.335  1.00  0.00     0.002 C 
HETATM   12  C   UNL     1      10.195  31.182  58.075  1.00  0.00     0.002 C 
HETATM   13  C   UNL     1       9.124  30.537  58.954  1.00  0.00     0.027 C 
HETATM   14  H   UNL     1       6.741  31.080  57.810  1.00  0.00     0.163 HD
ENDROOT
BRANCH   1  15
HETATM   15  C   UNL     1       6.122  27.663  54.942  1.00  0.00     0.146 C 
BRANCH  15  16
HETATM   16  C   UNL     1       5.583  26.631  55.896  1.00  0.00     0.224 C 
HETATM   17  N   UNL     1       5.855  25.307  55.782  1.00  0.00    -0.327 N 
HETATM   18  H   UNL     1       5.401  24.775  56.520  1.00  0.00     0.169 HD
HETATM   19  O   UNL     1       4.928  27.018  56.875  1.00  0.00    -0.273 OA
BRANCH  17  20
HETATM   20  C   UNL     1       6.616  24.524  54.889  1.00  0.00     0.034 A 
HETATM   21  C   UNL     1       6.378  24.363  53.525  1.00  0.00     0.029 A 
HETATM   22  C   UNL     1       7.210  23.548  52.745  1.00  0.00     0.002 A 
HETATM   23  C   UNL     1       8.298  22.895  53.316  1.00  0.00     0.000 A 
HETATM   24  C   UNL     1       8.557  23.056  54.671  1.00  0.00     0.002 A 
HETATM   25  C   UNL     1       7.721  23.862  55.450  1.00  0.00     0.029 A 
ENDBRANCH  17  20
ENDBRANCH  15  16
ENDBRANCH   1  15
TORSDOF 3
ENDMDL
MODEL 7
REMARK VINA RESULT:      -8.0      1.854      6.828
REMARK  3 active torsions:
REMARK  status: ('A' for Active; 'I' for Inactive)
REMARK    1  A    between atoms: C_4  and  N_5 
REMARK       I    between atoms: N_5  and  C_6 
REMARK    2  A    between atoms: C_6  and  C_7 
REMARK    3  A    between atoms: C_7  and  C_8 
ROOT
HETATM    1  C   UNL     1       6.721  26.490  55.925  1.00  0.00     0.286 C 
HETATM    2  N   UNL     1       6.735  27.840  55.218  1.00  0.00    -0.056 N 
HETATM    3  H   UNL     1       7.414  27.729  54.434  1.00  0.00     0.278 HD
HETATM    4  H   UNL     1       5.830  28.041  54.778  1.00  0.00     0.278 HD
HETATM    5  C   UNL     1       7.206  28.995  56.059  1.00  0.00     0.209 C 
HETATM    6  C   UNL     1       8.572  28.648  56.700  1.00  0.00     0.115 C 
HETATM    7  N   UNL     1       8.588  27.332  57.336  1.00  0.00    -0.353 N 
HETATM    8  C   UNL     1       7.977  26.231  56.782  1.00  0.00     0.249 C 
HETATM    9  O   UNL     1       8.368  25.105  57.069  1.00  0.00    -0.271 OA
HETATM   10  C   UNL     1       6.129  29.366  57.082  1.00  0.00     0.035 C 
HETATM   11  C   UNL     1       6.617  30.474  58.012  1.00  0.00     0.002 C 
HETATM   12  C   UNL     1       7.923  30.085  58.700  1.00  0.00     0.002 C 
HETATM   13  C   UNL     1       9.012  29.736  57.686  1.00  0.00     0.027 C 
HETATM   14  H   UNL     1       9.422  27.075  57.861  1.00  0.00     0.163 HD
ENDROOT
BRANCH   1  15
HETATM   15  C   UNL     1       6.465  25.336  54.943  1.00  0.00     0.146 C 
BRANCH  15  16
HETATM   16  C   UNL     1       7.436  25.359  53.793  1.00  0.00     0.224 C 
HETATM   17  N   UNL     1       8.168  24.278  53.423  1.00  0.00    -0.327 N 
HETATM   18  H   UNL     1       8.762  24.494  52.627  1.00  0.00     0.169 HD
HETATM   19  O   UNL     1       7.510  26.388  53.105  1.00  0.00    -0.273 OA
BRANCH  17  20
HETATM   20  C   UNL     1       8.278  22.950  53.885  1.00  0.00     0.034 A 
HETATM   21  C   UNL     1       8.758  22.548  55.131  1.00  0.00     0.029 A 
HETATM   22  C   UNL     1       8.823  21.188  55.467  1.00  0.00     0.002 A 
HETATM   23  C   UNL     1       8.396  20.216  54.568  1.00  0.00     0.000 A 
HETATM   24  C   UNL     1       7.902  20.601  53.329  1.00  0.00     0.002 A 
HETATM   25  C   UNL     1       7.846  21.956  52.991  1.00  0.00     0.029 A 
ENDBRANCH  17  20
ENDBRANCH  15  16
ENDBRANCH   1  15
TORSDOF 3
ENDMDL
MODEL 8
REMARK VINA RESULT:      -8.0      2.644      6.992
REMARK  3 active torsions:
REMARK  status: ('A' for Active; 'I' for Inactive)
REMARK    1  A    between atoms: C_4  and  N_5 
REMARK       I    between atoms: N_5  and  C_6 
REMARK    2  A    between atoms: C_6  and  C_7 
REMARK    3  A    between atoms: C_7  and  C_8 
ROOT
HETATM    1  C   UNL     1       6.376  25.816  54.458  1.00  0.00     0.286 C 
HETATM    2  N   UNL     1       6.266  25.435  55.931  1.00  0.00    -0.056 N 
HETATM    3  H   UNL     1       5.348  24.947  56.017  1.00  0.00     0.278 HD
HETATM    4  H   UNL     1       6.976  24.741  56.191  1.00  0.00     0.278 HD
HETATM    5  C   UNL     1       6.253  26.594  56.889  1.00  0.00     0.209 C 
HETATM    6  C   UNL     1       5.167  27.611  56.458  1.00  0.00     0.115 C 
HETATM    7  N   UNL     1       5.229  27.944  55.036  1.00  0.00    -0.353 N 
HETATM    8  C   UNL     1       5.479  27.006  54.063  1.00  0.00     0.249 C 
HETATM    9  O   UNL     1       5.091  27.195  52.915  1.00  0.00    -0.271 OA
HETATM   10  C   UNL     1       7.654  27.202  56.990  1.00  0.00     0.035 C 
HETATM   11  C   UNL     1       7.650  28.440  57.883  1.00  0.00     0.002 C 
HETATM   12  C   UNL     1       6.633  29.470  57.399  1.00  0.00     0.002 C 
HETATM   13  C   UNL     1       5.226  28.878  57.318  1.00  0.00     0.027 C 
HETATM   14  H   UNL     1       4.608  28.679  54.699  1.00  0.00     0.163 HD
ENDROOT
BRANCH   1  15
HETATM   15  C   UNL     1       6.142  24.606  53.539  1.00  0.00     0.146 C 
BRANCH  15  16
HETATM   16  C   UNL     1       7.366  24.279  52.728  1.00  0.00     0.224 C 
HETATM   17  N   UNL     1       8.209  23.263  53.040  1.00  0.00    -0.327 N 
HETATM   18  H   UNL     1       8.974  23.203  52.372  1.00  0.00     0.169 HD
HETATM   19  O   UNL     1       7.569  24.917  51.683  1.00  0.00    -0.273 OA
BRANCH  17  20
HETATM   20  C   UNL     1       8.254  22.289  54.059  1.00  0.00     0.034 A 
HETATM   21  C   UNL     1       8.152  20.909  53.886  1.00  0.00     0.029 A 
HETATM   22  C   UNL     1       8.205  20.045  54.988  1.00  0.00     0.002 A 
HETATM   23  C   UNL     1       8.374  20.547  56.274  1.00  0.00     0.000 A 
HETATM   24  C   UNL     1       8.491  21.918  56.462  1.00  0.00     0.002 A 
HETATM   25  C   UNL     1       8.429  22.781  55.364  1.00  0.00     0.029 A 
ENDBRANCH  17  20
ENDBRANCH  15  16
ENDBRANCH   1  15
TORSDOF 3
ENDMDL
MODEL 9
REMARK VINA RESULT:      -8.0      2.664      6.836
REMARK  3 active torsions:
REMARK  status: ('A' for Active; 'I' for Inactive)
REMARK    1  A    between atoms: C_4  and  N_5 
REMARK       I    between atoms: N_5  and  C_6 
REMARK    2  A    between atoms: C_6  and  C_7 
REMARK    3  A    between atoms: C_7  and  C_8 
ROOT
HETATM    1  C   UNL     1       5.408  25.766  54.340  1.00  0.00     0.286 C 
HETATM    2  N   UNL     1       5.727  27.131  53.739  1.00  0.00    -0.056 N 
HETATM    3  H   UNL     1       6.702  27.048  53.379  1.00  0.00     0.278 HD
HETATM    4  H   UNL     1       5.141  27.324  52.919  1.00  0.00     0.278 HD
HETATM    5  C   UNL     1       5.703  28.277  54.714  1.00  0.00     0.209 C 
HETATM    6  C   UNL     1       6.600  27.941  55.931  1.00  0.00     0.115 C 
HETATM    7  N   UNL     1       6.340  26.613  56.484  1.00  0.00    -0.353 N 
HETATM    8  C   UNL     1       6.102  25.513  55.694  1.00  0.00     0.249 C 
HETATM    9  O   UNL     1       6.334  24.389  56.124  1.00  0.00    -0.271 OA
HETATM   10  C   UNL     1       4.257  28.607  55.093  1.00  0.00     0.035 C 
HETATM   11  C   UNL     1       4.207  29.704  56.153  1.00  0.00     0.002 C 
HETATM   12  C   UNL     1       5.029  29.325  57.382  1.00  0.00     0.002 C 
HETATM   13  C   UNL     1       6.480  29.017  57.017  1.00  0.00     0.027 C 
HETATM   14  H   UNL     1       6.824  26.361  57.344  1.00  0.00     0.163 HD
ENDROOT
BRANCH   1  15
HETATM   15  C   UNL     1       5.687  24.628  53.345  1.00  0.00     0.146 C 
BRANCH  15  16
HETATM   16  C   UNL     1       7.006  24.814  52.644  1.00  0.00     0.224 C 
HETATM   17  N   UNL     1       8.060  23.978  52.821  1.00  0.00    -0.327 N 
HETATM   18  H   UNL     1       8.857  24.271  52.261  1.00  0.00     0.169 HD
HETATM   19  O   UNL     1       7.107  25.725  51.809  1.00  0.00    -0.273 OA
BRANCH  17  20
HETATM   20  C   UNL     1       8.287  22.816  53.586  1.00  0.00     0.034 A 
HETATM   21  C   UNL     1       8.868  22.763  54.852  1.00  0.00     0.029 A 
HETATM   22  C   UNL     1       9.043  21.536  55.508  1.00  0.00     0.002 A 
HETATM   23  C   UNL     1       8.628  20.350  54.912  1.00  0.00     0.000 A 
HETATM   24  C   UNL     1       8.034  20.387  53.657  1.00  0.00     0.002 A 
HETATM   25  C   UNL     1       7.868  21.609  53.000  1.00  0.00     0.029 A 
ENDBRANCH  17  20
ENDBRANCH  15  16
ENDBRANCH   1  15
TORSDOF 3
ENDMDL
MODEL 10
REMARK VINA RESULT:      -7.9      4.422      6.256
REMARK  3 active torsions:
REMARK  status: ('A' for Active; 'I' for Inactive)
REMARK    1  A    between atoms: C_4  and  N_5 
REMARK       I    between atoms: N_5  and  C_6 
REMARK    2  A    between atoms: C_6  and  C_7 
REMARK    3  A    between atoms: C_7  and  C_8 
ROOT
HETATM    1  C   UNL     1       6.746  26.798  53.142  1.00  0.00     0.286 C 
HETATM    2  N   UNL     1       5.912  25.564  52.816  1.00  0.00    -0.056 N 
HETATM    3  H   UNL     1       4.979  25.746  53.244  1.00  0.00     0.278 HD
HETATM    4  H   UNL     1       5.745  25.481  51.806  1.00  0.00     0.278 HD
HETATM    5  C   UNL     1       6.429  24.275  53.394  1.00  0.00     0.209 C 
HETATM    6  C   UNL     1       6.664  24.447  54.916  1.00  0.00     0.115 C 
HETATM    7  N   UNL     1       7.417  25.655  55.245  1.00  0.00    -0.353 N 
HETATM    8  C   UNL     1       7.208  26.857  54.611  1.00  0.00     0.249 C 
HETATM    9  O   UNL     1       7.495  27.906  55.177  1.00  0.00    -0.271 OA
HETATM   10  C   UNL     1       7.677  23.826  52.631  1.00  0.00     0.035 C 
HETATM   11  C   UNL     1       8.278  22.570  53.257  1.00  0.00     0.002 C 
HETATM   12  C   UNL     1       8.581  22.779  54.738  1.00  0.00     0.002 C 
HETATM   13  C   UNL     1       7.335  23.205  55.514  1.00  0.00     0.027 C 
HETATM   14  H   UNL     1       7.692  25.785  56.217  1.00  0.00     0.163 HD
ENDROOT
BRANCH   1  15
HETATM   15  C   UNL     1       6.031  28.093  52.725  1.00  0.00     0.146 C 
BRANCH  15  16
HETATM   16  C   UNL     1       4.547  27.888  52.583  1.00  0.00     0.224 C 
HETATM   17  N   UNL     1       3.925  27.794  51.381  1.00  0.00    -0.327 N 
HETATM   18  H   UNL     1       2.925  27.656  51.496  1.00  0.00     0.169 HD
HETATM   19  O   UNL     1       3.875  27.716  53.612  1.00  0.00    -0.273 OA
BRANCH  17  20
HETATM   20  C   UNL     1       4.353  27.840  50.038  1.00  0.00     0.034 A 
HETATM   21  C   UNL     1       4.774  28.973  49.344  1.00  0.00     0.029 A 
HETATM   22  C   UNL     1       5.170  28.884  48.003  1.00  0.00     0.002 A 
HETATM   23  C   UNL     1       5.162  27.660  47.342  1.00  0.00     0.000 A 
HETATM   24  C   UNL     1       4.758  26.519  48.023  1.00  0.00     0.002 A 
HETATM   25  C   UNL     1       4.355  26.610  49.358  1.00  0.00     0.029 A 
ENDBRANCH  17  20
ENDBRANCH  15  16
ENDBRANCH   1  15
TORSDOF 3
ENDMDL
