MODEL 1
REMARK VINA RESULT:      -8.5      0.000      0.000
REMARK  9 active torsions:
REMARK  status: ('A' for Active; 'I' for Inactive)
REMARK    1  A    between atoms: C_2  and  N_3 
REMARK       I    between atoms: N_3  and  C_4 
REMARK    2  A    between atoms: C_4  and  C_5 
REMARK    3  A    between atoms: C_5  and  S_6 
REMARK    4  A    between atoms: S_6  and  C_7 
REMARK    5  A    between atoms: N_8  and  C_9 
REMARK    6  A    between atoms: C_9  and  C_10 
REMARK    7  A    between atoms: C_10  and  C_11 
REMARK    8  A    between atoms: C_17  and  C_18 
REMARK    9  A    between atoms: C_21  and  O_22 
ROOT
HETATM    1  C   UNL     1       7.484  28.060  57.281  1.00  0.00     0.192 A 
HETATM    2  N   UNL     1       7.314  27.409  56.086  1.00  0.00    -0.307 N 
HETATM    3  C   UNL     1       7.690  26.097  56.326  1.00  0.00     0.164 A 
HETATM    4  N   UNL     1       8.015  25.993  57.605  1.00  0.00    -0.128 NA
HETATM    5  N   UNL     1       7.883  27.216  58.198  1.00  0.00    -0.122 NA
ENDROOT
BRANCH   1   6
HETATM    6  S   UNL     1       7.190  29.746  57.530  1.00  0.00    -0.081 SA
BRANCH   6   7
HETATM    7  C   UNL     1       8.690  30.247  58.419  1.00  0.00     0.185 C 
BRANCH   7   8
HETATM    8  C   UNL     1       8.398  31.331  59.444  1.00  0.00     0.227 C 
HETATM    9  N   UNL     1       7.616  30.914  60.501  1.00  0.00    -0.361 N 
HETATM   10  H   UNL     1       7.620  29.914  60.703  1.00  0.00     0.162 HD
HETATM   11  O   UNL     1       8.807  32.482  59.315  1.00  0.00    -0.273 OA
BRANCH   9  12
HETATM   12  C   UNL     1       7.274  31.797  61.596  1.00  0.00     0.118 C 
HETATM   13  C   UNL     1       8.405  31.916  62.601  1.00  0.00     0.026 C 
ENDBRANCH   9  12
ENDBRANCH   7   8
ENDBRANCH   6   7
ENDBRANCH   1   6
BRANCH   2  14
HETATM   14  C   UNL     1       6.695  27.949  54.891  1.00  0.00     0.137 C 
BRANCH  14  15
HETATM   15  C   UNL     1       5.267  27.449  54.668  1.00  0.00     0.059 C 
BRANCH  15  16
HETATM   16  C   UNL     1       5.120  26.803  53.312  1.00  0.00    -0.057 A 
HETATM   17  C   UNL     1       4.762  25.450  53.209  1.00  0.00     0.007 A 
HETATM   18  C   UNL     1       4.653  24.841  51.959  1.00  0.00     0.001 A 
HETATM   19  C   UNL     1       4.900  25.576  50.800  1.00  0.00     0.000 A 
HETATM   20  C   UNL     1       5.256  26.920  50.892  1.00  0.00     0.001 A 
HETATM   21  C   UNL     1       5.367  27.532  52.142  1.00  0.00     0.007 A 
ENDBRANCH  15  16
ENDBRANCH  14  15
ENDBRANCH   2  14
BRANCH   3  22
HETATM   22  C   UNL     1       7.683  24.963  55.396  1.00  0.00     0.012 A 
HETATM   23  C   UNL     1       8.092  25.061  54.064  1.00  0.00     0.018 A 
HETATM   24  C   UNL     1       8.096  23.934  53.233  1.00  0.00     0.037 A 
HETATM   25  C   UNL     1       7.723  22.683  53.726  1.00  0.00     0.068 A 
HETATM   26  C   UNL     1       7.324  22.568  55.054  1.00  0.00     0.037 A 
HETATM   27  C   UNL     1       7.309  23.700  55.880  1.00  0.00     0.018 A 
BRANCH  25  28
HETATM   28  O   UNL     1       7.791  21.663  52.818  1.00  0.00    -0.356 OA
HETATM   29  C   UNL     1       8.578  20.536  53.185  1.00  0.00     0.210 C 
ENDBRANCH  25  28
ENDBRANCH   3  22
TORSDOF 9
ENDMDL
MODEL 2
REMARK VINA RESULT:      -8.3      3.002      8.178
REMARK  9 active torsions:
REMARK  status: ('A' for Active; 'I' for Inactive)
REMARK    1  A    between atoms: C_2  and  N_3 
REMARK       I    between atoms: N_3  and  C_4 
REMARK    2  A    between atoms: C_4  and  C_5 
REMARK    3  A    between atoms: C_5  and  S_6 
REMARK    4  A    between atoms: S_6  and  C_7 
REMARK    5  A    between atoms: N_8  and  C_9 
REMARK    6  A    between atoms: C_9  and  C_10 
REMARK    7  A    between atoms: C_10  and  C_11 
REMARK    8  A    between atoms: C_17  and  C_18 
REMARK    9  A    between atoms: C_21  and  O_22 
ROOT
HETATM    1  C   UNL     1       5.205  26.519  53.666  1.00  0.00     0.192 A 
HETATM    2  N   UNL     1       6.399  26.656  54.327  1.00  0.00    -0.307 N 
HETATM    3  C   UNL     1       6.284  27.831  55.053  1.00  0.00     0.164 A 
HETATM    4  N   UNL     1       5.069  28.317  54.853  1.00  0.00    -0.128 NA
HETATM    5  N   UNL     1       4.398  27.497  53.992  1.00  0.00    -0.122 NA
ENDROOT
BRANCH   1   6
HETATM    6  S   UNL     1       4.828  25.227  52.581  1.00  0.00    -0.081 SA
BRANCH   6   7
HETATM    7  C   UNL     1       5.592  25.812  51.043  1.00  0.00     0.185 C 
BRANCH   7   8
HETATM    8  C   UNL     1       4.625  26.649  50.220  1.00  0.00     0.227 C 
HETATM    9  N   UNL     1       4.037  25.969  49.174  1.00  0.00    -0.361 N 
HETATM   10  H   UNL     1       3.995  24.953  49.259  1.00  0.00     0.162 HD
HETATM   11  O   UNL     1       4.417  27.835  50.461  1.00  0.00    -0.273 OA
BRANCH   9  12
HETATM   12  C   UNL     1       3.056  26.590  48.311  1.00  0.00     0.118 C 
HETATM   13  C   UNL     1       2.731  25.723  47.109  1.00  0.00     0.026 C 
ENDBRANCH   9  12
ENDBRANCH   7   8
ENDBRANCH   6   7
ENDBRANCH   1   6
BRANCH   2  14
HETATM   14  C   UNL     1       7.467  25.678  54.389  1.00  0.00     0.137 C 
BRANCH  14  15
HETATM   15  C   UNL     1       7.230  24.584  55.431  1.00  0.00     0.059 C 
BRANCH  15  16
HETATM   16  C   UNL     1       7.528  23.217  54.866  1.00  0.00    -0.057 A 
HETATM   17  C   UNL     1       7.706  23.047  53.485  1.00  0.00     0.007 A 
HETATM   18  C   UNL     1       7.953  21.781  52.954  1.00  0.00     0.001 A 
HETATM   19  C   UNL     1       8.024  20.673  53.797  1.00  0.00     0.000 A 
HETATM   20  C   UNL     1       7.849  20.831  55.170  1.00  0.00     0.001 A 
HETATM   21  C   UNL     1       7.600  22.097  55.704  1.00  0.00     0.007 A 
ENDBRANCH  15  16
ENDBRANCH  14  15
ENDBRANCH   2  14
BRANCH   3  22
HETATM   22  C   UNL     1       7.264  28.443  55.956  1.00  0.00     0.012 A 
HETATM   23  C   UNL     1       8.499  28.935  55.527  1.00  0.00     0.018 A 
HETATM   24  C   UNL     1       9.379  29.542  56.432  1.00  0.00     0.037 A 
HETATM   25  C   UNL     1       9.029  29.697  57.774  1.00  0.00     0.068 A 
HETATM   26  C   UNL     1       7.797  29.221  58.212  1.00  0.00     0.037 A 
HETATM   27  C   UNL     1       6.923  28.603  57.308  1.00  0.00     0.018 A 
BRANCH  25  28
HETATM   28  O   UNL     1       9.969  30.323  58.545  1.00  0.00    -0.356 OA
HETATM   29  C   UNL     1       9.486  31.271  59.490  1.00  0.00     0.210 C 
ENDBRANCH  25  28
ENDBRANCH   3  22
TORSDOF 9
ENDMDL
MODEL 3
REMARK VINA RESULT:      -8.1      3.646      8.603
REMARK  9 active torsions:
REMARK  status: ('A' for Active; 'I' for Inactive)
REMARK    1  A    between atoms: C_2  and  N_3 
REMARK       I    between atoms: N_3  and  C_4 
REMARK    2  A    between atoms: C_4  and  C_5 
REMARK    3  A    between atoms: C_5  and  S_6 
REMARK    4  A    between atoms: S_6  and  C_7 
REMARK    5  A    between atoms: N_8  and  C_9 
REMARK    6  A    between atoms: C_9  and  C_10 
REMARK    7  A    between atoms: C_10  and  C_11 
REMARK    8  A    between atoms: C_17  and  C_18 
REMARK    9  A    between atoms: C_21  and  O_22 
ROOT
HETATM    1  C   UNL     1       5.366  27.101  51.762  1.00  0.00     0.192 A 
HETATM    2  N   UNL     1       5.935  26.777  52.967  1.00  0.00    -0.307 N 
HETATM    3  C   UNL     1       6.128  27.984  53.619  1.00  0.00     0.164 A 
HETATM    4  N   UNL     1       5.651  28.946  52.845  1.00  0.00    -0.128 NA
HETATM    5  N   UNL     1       5.174  28.393  51.691  1.00  0.00    -0.122 NA
ENDROOT
BRANCH   1   6
HETATM    6  S   UNL     1       4.948  25.956  50.536  1.00  0.00    -0.081 SA
BRANCH   6   7
HETATM    7  C   UNL     1       4.812  27.025  49.076  1.00  0.00     0.185 C 
BRANCH   7   8
HETATM    8  C   UNL     1       3.638  26.625  48.196  1.00  0.00     0.227 C 
HETATM    9  N   UNL     1       2.427  27.149  48.596  1.00  0.00    -0.361 N 
HETATM   10  H   UNL     1       2.463  27.998  49.160  1.00  0.00     0.162 HD
HETATM   11  O   UNL     1       3.768  25.875  47.231  1.00  0.00    -0.273 OA
BRANCH   9  12
HETATM   12  C   UNL     1       1.207  26.914  47.854  1.00  0.00     0.118 C 
HETATM   13  C   UNL     1       0.931  28.022  46.854  1.00  0.00     0.026 C 
ENDBRANCH   9  12
ENDBRANCH   7   8
ENDBRANCH   6   7
ENDBRANCH   1   6
BRANCH   2  14
HETATM   14  C   UNL     1       6.117  25.442  53.504  1.00  0.00     0.137 C 
BRANCH  14  15
HETATM   15  C   UNL     1       7.552  24.928  53.383  1.00  0.00     0.059 C 
BRANCH  15  16
HETATM   16  C   UNL     1       7.653  23.484  53.811  1.00  0.00    -0.057 A 
HETATM   17  C   UNL     1       7.573  23.144  55.170  1.00  0.00     0.007 A 
HETATM   18  C   UNL     1       7.694  21.814  55.573  1.00  0.00     0.001 A 
HETATM   19  C   UNL     1       7.897  20.812  54.625  1.00  0.00     0.000 A 
HETATM   20  C   UNL     1       7.978  21.140  53.273  1.00  0.00     0.001 A 
HETATM   21  C   UNL     1       7.859  22.471  52.866  1.00  0.00     0.007 A 
ENDBRANCH  15  16
ENDBRANCH  14  15
ENDBRANCH   2  14
BRANCH   3  22
HETATM   22  C   UNL     1       6.686  28.219  54.954  1.00  0.00     0.012 A 
HETATM   23  C   UNL     1       8.024  28.554  55.179  1.00  0.00     0.018 A 
HETATM   24  C   UNL     1       8.490  28.802  56.475  1.00  0.00     0.037 A 
HETATM   25  C   UNL     1       7.624  28.751  57.568  1.00  0.00     0.068 A 
HETATM   26  C   UNL     1       6.286  28.430  57.358  1.00  0.00     0.037 A 
HETATM   27  C   UNL     1       5.824  28.170  56.061  1.00  0.00     0.018 A 
BRANCH  25  28
HETATM   28  O   UNL     1       8.201  29.033  58.775  1.00  0.00    -0.356 OA
HETATM   29  C   UNL     1       8.906  30.266  58.870  1.00  0.00     0.210 C 
ENDBRANCH  25  28
ENDBRANCH   3  22
TORSDOF 9
ENDMDL
MODEL 4
REMARK VINA RESULT:      -8.1      2.928      5.753
REMARK  9 active torsions:
REMARK  status: ('A' for Active; 'I' for Inactive)
REMARK    1  A    between atoms: C_2  and  N_3 
REMARK       I    between atoms: N_3  and  C_4 
REMARK    2  A    between atoms: C_4  and  C_5 
REMARK    3  A    between atoms: C_5  and  S_6 
REMARK    4  A    between atoms: S_6  and  C_7 
REMARK    5  A    between atoms: N_8  and  C_9 
REMARK    6  A    between atoms: C_9  and  C_10 
REMARK    7  A    between atoms: C_10  and  C_11 
REMARK    8  A    between atoms: C_17  and  C_18 
REMARK    9  A    between atoms: C_21  and  O_22 
ROOT
HETATM    1  C   UNL     1       5.806  26.934  55.055  1.00  0.00     0.192 A 
HETATM    2  N   UNL     1       5.614  26.286  53.862  1.00  0.00    -0.307 N 
HETATM    3  C   UNL     1       5.381  27.287  52.933  1.00  0.00     0.164 A 
HETATM    4  N   UNL     1       5.479  28.451  53.555  1.00  0.00    -0.128 NA
HETATM    5  N   UNL     1       5.747  28.229  54.875  1.00  0.00    -0.122 NA
ENDROOT
BRANCH   1   6
HETATM    6  S   UNL     1       6.102  26.143  56.564  1.00  0.00    -0.081 SA
BRANCH   6   7
HETATM    7  C   UNL     1       7.897  26.349  56.733  1.00  0.00     0.185 C 
BRANCH   7   8
HETATM    8  C   UNL     1       8.249  27.671  57.397  1.00  0.00     0.227 C 
HETATM    9  N   UNL     1       9.314  28.329  56.820  1.00  0.00    -0.361 N 
HETATM   10  H   UNL     1       9.516  28.100  55.846  1.00  0.00     0.162 HD
HETATM   11  O   UNL     1       7.644  28.091  58.381  1.00  0.00    -0.273 OA
BRANCH   9  12
HETATM   12  C   UNL     1       9.763  29.623  57.289  1.00  0.00     0.118 C 
HETATM   13  C   UNL     1      11.268  29.777  57.167  1.00  0.00     0.026 C 
ENDBRANCH   9  12
ENDBRANCH   7   8
ENDBRANCH   6   7
ENDBRANCH   1   6
BRANCH   2  14
HETATM   14  C   UNL     1       5.805  24.870  53.609  1.00  0.00     0.137 C 
BRANCH  14  15
HETATM   15  C   UNL     1       7.269  24.484  53.392  1.00  0.00     0.059 C 
BRANCH  15  16
HETATM   16  C   UNL     1       7.536  23.074  53.860  1.00  0.00    -0.057 A 
HETATM   17  C   UNL     1       7.501  22.765  55.228  1.00  0.00     0.007 A 
HETATM   18  C   UNL     1       7.775  21.470  55.668  1.00  0.00     0.001 A 
HETATM   19  C   UNL     1       8.086  20.471  54.746  1.00  0.00     0.000 A 
HETATM   20  C   UNL     1       8.123  20.768  53.385  1.00  0.00     0.001 A 
HETATM   21  C   UNL     1       7.851  22.064  52.943  1.00  0.00     0.007 A 
ENDBRANCH  15  16
ENDBRANCH  14  15
ENDBRANCH   2  14
BRANCH   3  22
HETATM   22  C   UNL     1       5.136  27.155  51.493  1.00  0.00     0.012 A 
HETATM   23  C   UNL     1       4.894  25.930  50.866  1.00  0.00     0.018 A 
HETATM   24  C   UNL     1       4.631  25.872  49.492  1.00  0.00     0.037 A 
HETATM   25  C   UNL     1       4.574  27.037  48.725  1.00  0.00     0.068 A 
HETATM   26  C   UNL     1       4.802  28.264  49.339  1.00  0.00     0.037 A 
HETATM   27  C   UNL     1       5.077  28.320  50.712  1.00  0.00     0.018 A 
BRANCH  25  28
HETATM   28  O   UNL     1       4.289  26.842  47.402  1.00  0.00    -0.356 OA
HETATM   29  C   UNL     1       2.929  27.003  47.014  1.00  0.00     0.210 C 
ENDBRANCH  25  28
ENDBRANCH   3  22
TORSDOF 9
ENDMDL
MODEL 5
REMARK VINA RESULT:      -8.0      1.898      4.403
REMARK  9 active torsions:
REMARK  status: ('A' for Active; 'I' for Inactive)
REMARK    1  A    between atoms: C_2  and  N_3 
REMARK       I    between atoms: N_3  and  C_4 
REMARK    2  A    between atoms: C_4  and  C_5 
REMARK    3  A    between atoms: C_5  and  S_6 
REMARK    4  A    between atoms: S_6  and  C_7 
REMARK    5  A    between atoms: N_8  and  C_9 
REMARK    6  A    between atoms: C_9  and  C_10 
REMARK    7  A    between atoms: C_10  and  C_11 
REMARK    8  A    between atoms: C_17  and  C_18 
REMARK    9  A    between atoms: C_21  and  O_22 
ROOT
HETATM    1  C   UNL     1       6.540  28.368  56.208  1.00  0.00     0.192 A 
HETATM    2  N   UNL     1       6.605  27.491  55.156  1.00  0.00    -0.307 N 
HETATM    3  C   UNL     1       5.789  28.031  54.175  1.00  0.00     0.164 A 
HETATM    4  N   UNL     1       5.317  29.182  54.627  1.00  0.00    -0.128 NA
HETATM    5  N   UNL     1       5.788  29.391  55.891  1.00  0.00    -0.122 NA
ENDROOT
BRANCH   1   6
HETATM    6  S   UNL     1       7.354  28.151  57.718  1.00  0.00    -0.081 SA
BRANCH   6   7
HETATM    7  C   UNL     1       8.845  29.154  57.471  1.00  0.00     0.185 C 
BRANCH   7   8
HETATM    8  C   UNL     1       8.963  30.249  58.520  1.00  0.00     0.227 C 
HETATM    9  N   UNL     1       8.165  30.059  59.629  1.00  0.00    -0.361 N 
HETATM   10  H   UNL     1       7.882  29.099  59.825  1.00  0.00     0.162 HD
HETATM   11  O   UNL     1       9.689  31.228  58.366  1.00  0.00    -0.273 OA
BRANCH   9  12
HETATM   12  C   UNL     1       8.179  30.975  60.750  1.00  0.00     0.118 C 
HETATM   13  C   UNL     1       9.212  30.580  61.790  1.00  0.00     0.026 C 
ENDBRANCH   9  12
ENDBRANCH   7   8
ENDBRANCH   6   7
ENDBRANCH   1   6
BRANCH   2  14
HETATM   14  C   UNL     1       7.490  26.347  55.041  1.00  0.00     0.137 C 
BRANCH  14  15
HETATM   15  C   UNL     1       6.898  25.061  55.620  1.00  0.00     0.059 C 
BRANCH  15  16
HETATM   16  C   UNL     1       7.324  23.855  54.819  1.00  0.00    -0.057 A 
HETATM   17  C   UNL     1       7.462  22.606  55.442  1.00  0.00     0.007 A 
HETATM   18  C   UNL     1       7.884  21.494  54.712  1.00  0.00     0.001 A 
HETATM   19  C   UNL     1       8.171  21.619  53.354  1.00  0.00     0.000 A 
HETATM   20  C   UNL     1       8.037  22.855  52.725  1.00  0.00     0.001 A 
HETATM   21  C   UNL     1       7.617  23.970  53.454  1.00  0.00     0.007 A 
ENDBRANCH  15  16
ENDBRANCH  14  15
ENDBRANCH   2  14
BRANCH   3  22
HETATM   22  C   UNL     1       5.513  27.512  52.832  1.00  0.00     0.012 A 
HETATM   23  C   UNL     1       5.110  26.197  52.586  1.00  0.00     0.018 A 
HETATM   24  C   UNL     1       4.827  25.769  51.283  1.00  0.00     0.037 A 
HETATM   25  C   UNL     1       4.908  26.654  50.207  1.00  0.00     0.068 A 
HETATM   26  C   UNL     1       5.296  27.970  50.439  1.00  0.00     0.037 A 
HETATM   27  C   UNL     1       5.592  28.393  51.742  1.00  0.00     0.018 A 
BRANCH  25  28
HETATM   28  O   UNL     1       4.585  26.115  48.993  1.00  0.00    -0.356 OA
HETATM   29  C   UNL     1       3.337  26.507  48.434  1.00  0.00     0.210 C 
ENDBRANCH  25  28
ENDBRANCH   3  22
TORSDOF 9
ENDMDL
MODEL 6
REMARK VINA RESULT:      -7.9      4.294      8.890
REMARK  9 active torsions:
REMARK  status: ('A' for Active; 'I' for Inactive)
REMARK    1  A    between atoms: C_2  and  N_3 
REMARK       I    between atoms: N_3  and  C_4 
REMARK    2  A    between atoms: C_4  and  C_5 
REMARK    3  A    between atoms: C_5  and  S_6 
REMARK    4  A    between atoms: S_6  and  C_7 
REMARK    5  A    between atoms: N_8  and  C_9 
REMARK    6  A    between atoms: C_9  and  C_10 
REMARK    7  A    between atoms: C_10  and  C_11 
REMARK    8  A    between atoms: C_17  and  C_18 
REMARK    9  A    between atoms: C_21  and  O_22 
ROOT
HETATM    1  C   UNL     1       4.750  27.426  50.990  1.00  0.00     0.192 A 
HETATM    2  N   UNL     1       5.629  27.024  51.963  1.00  0.00    -0.307 N 
HETATM    3  C   UNL     1       5.436  27.901  53.019  1.00  0.00     0.164 A 
HETATM    4  N   UNL     1       4.464  28.734  52.684  1.00  0.00    -0.128 NA
HETATM    5  N   UNL     1       4.036  28.435  51.422  1.00  0.00    -0.122 NA
ENDROOT
BRANCH   1   6
HETATM    6  S   UNL     1       4.603  26.686  49.435  1.00  0.00    -0.081 SA
BRANCH   6   7
HETATM    7  C   UNL     1       3.381  27.764  48.637  1.00  0.00     0.185 C 
BRANCH   7   8
HETATM    8  C   UNL     1       2.394  26.967  47.798  1.00  0.00     0.227 C 
HETATM    9  N   UNL     1       1.477  27.739  47.116  1.00  0.00    -0.361 N 
HETATM   10  H   UNL     1       1.747  28.705  46.929  1.00  0.00     0.162 HD
HETATM   11  O   UNL     1       2.408  25.739  47.762  1.00  0.00    -0.273 OA
BRANCH   9  12
HETATM   12  C   UNL     1       0.491  27.157  46.232  1.00  0.00     0.118 C 
HETATM   13  C   UNL     1      -0.763  28.007  46.146  1.00  0.00     0.026 C 
ENDBRANCH   9  12
ENDBRANCH   7   8
ENDBRANCH   6   7
ENDBRANCH   1   6
BRANCH   2  14
HETATM   14  C   UNL     1       6.443  25.824  51.947  1.00  0.00     0.137 C 
BRANCH  14  15
HETATM   15  C   UNL     1       5.872  24.691  52.800  1.00  0.00     0.059 C 
BRANCH  15  16
HETATM   16  C   UNL     1       6.958  24.001  53.590  1.00  0.00    -0.057 A 
HETATM   17  C   UNL     1       7.684  22.946  53.020  1.00  0.00     0.007 A 
HETATM   18  C   UNL     1       8.670  22.287  53.756  1.00  0.00     0.001 A 
HETATM   19  C   UNL     1       8.939  22.676  55.067  1.00  0.00     0.000 A 
HETATM   20  C   UNL     1       8.223  23.724  55.642  1.00  0.00     0.001 A 
HETATM   21  C   UNL     1       7.235  24.384  54.909  1.00  0.00     0.007 A 
ENDBRANCH  15  16
ENDBRANCH  14  15
ENDBRANCH   2  14
BRANCH   3  22
HETATM   22  C   UNL     1       6.101  27.914  54.325  1.00  0.00     0.012 A 
HETATM   23  C   UNL     1       7.452  28.230  54.495  1.00  0.00     0.018 A 
HETATM   24  C   UNL     1       8.023  28.261  55.773  1.00  0.00     0.037 A 
HETATM   25  C   UNL     1       7.250  28.008  56.907  1.00  0.00     0.068 A 
HETATM   26  C   UNL     1       5.901  27.704  56.754  1.00  0.00     0.037 A 
HETATM   27  C   UNL     1       5.334  27.661  55.473  1.00  0.00     0.018 A 
BRANCH  25  28
HETATM   28  O   UNL     1       7.924  28.091  58.093  1.00  0.00    -0.356 OA
HETATM   29  C   UNL     1       8.231  29.399  58.561  1.00  0.00     0.210 C 
ENDBRANCH  25  28
ENDBRANCH   3  22
TORSDOF 9
ENDMDL
MODEL 7
REMARK VINA RESULT:      -7.9      3.863      7.437
REMARK  9 active torsions:
REMARK  status: ('A' for Active; 'I' for Inactive)
REMARK    1  A    between atoms: C_2  and  N_3 
REMARK       I    between atoms: N_3  and  C_4 
REMARK    2  A    between atoms: C_4  and  C_5 
REMARK    3  A    between atoms: C_5  and  S_6 
REMARK    4  A    between atoms: S_6  and  C_7 
REMARK    5  A    between atoms: N_8  and  C_9 
REMARK    6  A    between atoms: C_9  and  C_10 
REMARK    7  A    between atoms: C_10  and  C_11 
REMARK    8  A    between atoms: C_17  and  C_18 
REMARK    9  A    between atoms: C_21  and  O_22 
ROOT
HETATM    1  C   UNL     1       5.569  27.271  52.012  1.00  0.00     0.192 A 
HETATM    2  N   UNL     1       6.447  26.730  52.917  1.00  0.00    -0.307 N 
HETATM    3  C   UNL     1       6.296  25.358  52.801  1.00  0.00     0.164 A 
HETATM    4  N   UNL     1       5.410  25.124  51.846  1.00  0.00    -0.128 NA
HETATM    5  N   UNL     1       4.961  26.316  51.354  1.00  0.00    -0.122 NA
ENDROOT
BRANCH   1   6
HETATM    6  S   UNL     1       5.328  28.965  51.771  1.00  0.00    -0.081 SA
BRANCH   6   7
HETATM    7  C   UNL     1       3.592  29.012  51.246  1.00  0.00     0.185 C 
BRANCH   7   8
HETATM    8  C   UNL     1       3.449  28.723  49.760  1.00  0.00     0.227 C 
HETATM    9  N   UNL     1       2.928  27.478  49.474  1.00  0.00    -0.361 N 
HETATM   10  H   UNL     1       2.366  27.042  50.204  1.00  0.00     0.162 HD
HETATM   11  O   UNL     1       3.797  29.527  48.899  1.00  0.00    -0.273 OA
BRANCH   9  12
HETATM   12  C   UNL     1       2.678  27.045  48.115  1.00  0.00     0.118 C 
HETATM   13  C   UNL     1       3.114  25.609  47.890  1.00  0.00     0.026 C 
ENDBRANCH   9  12
ENDBRANCH   7   8
ENDBRANCH   6   7
ENDBRANCH   1   6
BRANCH   2  14
HETATM   14  C   UNL     1       7.444  27.450  53.686  1.00  0.00     0.137 C 
BRANCH  14  15
HETATM   15  C   UNL     1       6.966  27.841  55.085  1.00  0.00     0.059 C 
BRANCH  15  16
HETATM   16  C   UNL     1       8.056  28.543  55.858  1.00  0.00    -0.057 A 
HETATM   17  C   UNL     1       7.933  28.727  57.243  1.00  0.00     0.007 A 
HETATM   18  C   UNL     1       8.925  29.400  57.957  1.00  0.00     0.001 A 
HETATM   19  C   UNL     1      10.047  29.896  57.295  1.00  0.00     0.000 A 
HETATM   20  C   UNL     1      10.178  29.719  55.920  1.00  0.00     0.001 A 
HETATM   21  C   UNL     1       9.186  29.047  55.202  1.00  0.00     0.007 A 
ENDBRANCH  15  16
ENDBRANCH  14  15
ENDBRANCH   2  14
BRANCH   3  22
HETATM   22  C   UNL     1       7.009  24.299  53.522  1.00  0.00     0.012 A 
HETATM   23  C   UNL     1       7.991  23.497  52.933  1.00  0.00     0.018 A 
HETATM   24  C   UNL     1       8.663  22.525  53.683  1.00  0.00     0.037 A 
HETATM   25  C   UNL     1       8.391  22.356  55.042  1.00  0.00     0.068 A 
HETATM   26  C   UNL     1       7.424  23.155  55.644  1.00  0.00     0.037 A 
HETATM   27  C   UNL     1       6.744  24.120  54.888  1.00  0.00     0.018 A 
BRANCH  25  28
HETATM   28  O   UNL     1       9.131  21.387  55.661  1.00  0.00    -0.356 OA
HETATM   29  C   UNL     1       8.547  20.773  56.804  1.00  0.00     0.210 C 
ENDBRANCH  25  28
ENDBRANCH   3  22
TORSDOF 9
ENDMDL
MODEL 8
REMARK VINA RESULT:      -7.8      2.768      5.077
REMARK  9 active torsions:
REMARK  status: ('A' for Active; 'I' for Inactive)
REMARK    1  A    between atoms: C_2  and  N_3 
REMARK       I    between atoms: N_3  and  C_4 
REMARK    2  A    between atoms: C_4  and  C_5 
REMARK    3  A    between atoms: C_5  and  S_6 
REMARK    4  A    between atoms: S_6  and  C_7 
REMARK    5  A    between atoms: N_8  and  C_9 
REMARK    6  A    between atoms: C_9  and  C_10 
REMARK    7  A    between atoms: C_10  and  C_11 
REMARK    8  A    between atoms: C_17  and  C_18 
REMARK    9  A    between atoms: C_21  and  O_22 
ROOT
HETATM    1  C   UNL     1       4.925  28.063  54.162  1.00  0.00     0.192 A 
HETATM    2  N   UNL     1       5.888  27.211  54.639  1.00  0.00    -0.307 N 
HETATM    3  C   UNL     1       5.782  26.066  53.865  1.00  0.00     0.164 A 
HETATM    4  N   UNL     1       4.836  26.271  52.962  1.00  0.00    -0.128 NA
HETATM    5  N   UNL     1       4.307  27.516  53.146  1.00  0.00    -0.122 NA
ENDROOT
BRANCH   1   6
HETATM    6  S   UNL     1       4.601  29.635  54.805  1.00  0.00    -0.081 SA
BRANCH   6   7
HETATM    7  C   UNL     1       3.709  29.225  56.330  1.00  0.00     0.185 C 
BRANCH   7   8
HETATM    8  C   UNL     1       3.355  30.471  57.125  1.00  0.00     0.227 C 
HETATM    9  N   UNL     1       3.756  30.434  58.445  1.00  0.00    -0.361 N 
HETATM   10  H   UNL     1       4.528  29.806  58.667  1.00  0.00     0.162 HD
HETATM   11  O   UNL     1       2.741  31.413  56.629  1.00  0.00    -0.273 OA
BRANCH   9  12
HETATM   12  C   UNL     1       3.546  31.550  59.342  1.00  0.00     0.118 C 
HETATM   13  C   UNL     1       4.800  32.391  59.501  1.00  0.00     0.026 C 
ENDBRANCH   9  12
ENDBRANCH   7   8
ENDBRANCH   6   7
ENDBRANCH   1   6
BRANCH   2  14
HETATM   14  C   UNL     1       6.911  27.527  55.617  1.00  0.00     0.137 C 
BRANCH  14  15
HETATM   15  C   UNL     1       8.047  28.381  55.053  1.00  0.00     0.059 C 
BRANCH  15  16
HETATM   16  C   UNL     1       8.753  29.143  56.149  1.00  0.00    -0.057 A 
HETATM   17  C   UNL     1      10.056  29.622  55.949  1.00  0.00     0.007 A 
HETATM   18  C   UNL     1      10.723  30.302  56.968  1.00  0.00     0.001 A 
HETATM   19  C   UNL     1      10.096  30.509  58.196  1.00  0.00     0.000 A 
HETATM   20  C   UNL     1       8.802  30.037  58.404  1.00  0.00     0.001 A 
HETATM   21  C   UNL     1       8.132  29.355  57.386  1.00  0.00     0.007 A 
ENDBRANCH  15  16
ENDBRANCH  14  15
ENDBRANCH   2  14
BRANCH   3  22
HETATM   22  C   UNL     1       6.587  24.843  53.933  1.00  0.00     0.012 A 
HETATM   23  C   UNL     1       6.685  24.052  55.081  1.00  0.00     0.018 A 
HETATM   24  C   UNL     1       7.442  22.875  55.074  1.00  0.00     0.037 A 
HETATM   25  C   UNL     1       8.089  22.448  53.913  1.00  0.00     0.068 A 
HETATM   26  C   UNL     1       7.990  23.220  52.760  1.00  0.00     0.037 A 
HETATM   27  C   UNL     1       7.243  24.405  52.772  1.00  0.00     0.018 A 
BRANCH  25  28
HETATM   28  O   UNL     1       8.776  21.272  54.036  1.00  0.00    -0.356 OA
HETATM   29  C   UNL     1       8.349  20.390  55.067  1.00  0.00     0.210 C 
ENDBRANCH  25  28
ENDBRANCH   3  22
TORSDOF 9
ENDMDL
MODEL 9
REMARK VINA RESULT:      -7.7      8.065     11.120
REMARK  9 active torsions:
REMARK  status: ('A' for Active; 'I' for Inactive)
REMARK    1  A    between atoms: C_2  and  N_3 
REMARK       I    between atoms: N_3  and  C_4 
REMARK    2  A    between atoms: C_4  and  C_5 
REMARK    3  A    between atoms: C_5  and  S_6 
REMARK    4  A    between atoms: S_6  and  C_7 
REMARK    5  A    between atoms: N_8  and  C_9 
REMARK    6  A    between atoms: C_9  and  C_10 
REMARK    7  A    between atoms: C_10  and  C_11 
REMARK    8  A    between atoms: C_17  and  C_18 
REMARK    9  A    between atoms: C_21  and  O_22 
ROOT
HETATM    1  C   UNL     1       5.103  33.977  65.354  1.00  0.00     0.192 A 
HETATM    2  N   UNL     1       5.444  33.744  64.046  1.00  0.00    -0.307 N 
HETATM    3  C   UNL     1       4.241  33.617  63.370  1.00  0.00     0.164 A 
HETATM    4  N   UNL     1       3.262  33.813  64.239  1.00  0.00    -0.128 NA
HETATM    5  N   UNL     1       3.801  34.040  65.473  1.00  0.00    -0.122 NA
ENDROOT
BRANCH   1   6
HETATM    6  S   UNL     1       6.239  34.177  66.642  1.00  0.00    -0.081 SA
BRANCH   6   7
HETATM    7  C   UNL     1       5.135  34.408  68.064  1.00  0.00     0.185 C 
BRANCH   7   8
HETATM    8  C   UNL     1       5.906  34.804  69.313  1.00  0.00     0.227 C 
HETATM    9  N   UNL     1       7.145  35.356  69.062  1.00  0.00    -0.361 N 
HETATM   10  H   UNL     1       7.276  35.779  68.143  1.00  0.00     0.162 HD
HETATM   11  O   UNL     1       5.462  34.618  70.443  1.00  0.00    -0.273 OA
BRANCH   9  12
HETATM   12  C   UNL     1       8.001  35.834  70.126  1.00  0.00     0.118 C 
HETATM   13  C   UNL     1       8.784  34.706  70.772  1.00  0.00     0.026 C 
ENDBRANCH   9  12
ENDBRANCH   7   8
ENDBRANCH   6   7
ENDBRANCH   1   6
BRANCH   2  14
HETATM   14  C   UNL     1       6.776  33.807  63.478  1.00  0.00     0.137 C 
BRANCH  14  15
HETATM   15  C   UNL     1       7.451  32.440  63.358  1.00  0.00     0.059 C 
BRANCH  15  16
HETATM   16  C   UNL     1       7.978  32.211  61.962  1.00  0.00    -0.057 A 
HETATM   17  C   UNL     1       9.353  32.034  61.747  1.00  0.00     0.007 A 
HETATM   18  C   UNL     1       9.848  31.851  60.455  1.00  0.00     0.001 A 
HETATM   19  C   UNL     1       8.976  31.842  59.368  1.00  0.00     0.000 A 
HETATM   20  C   UNL     1       7.608  32.017  59.572  1.00  0.00     0.001 A 
HETATM   21  C   UNL     1       7.110  32.202  60.863  1.00  0.00     0.007 A 
ENDBRANCH  15  16
ENDBRANCH  14  15
ENDBRANCH   2  14
BRANCH   3  22
HETATM   22  C   UNL     1       4.020  33.382  61.940  1.00  0.00     0.012 A 
HETATM   23  C   UNL     1       3.609  32.152  61.419  1.00  0.00     0.018 A 
HETATM   24  C   UNL     1       3.380  31.999  60.046  1.00  0.00     0.037 A 
HETATM   25  C   UNL     1       3.527  33.077  59.172  1.00  0.00     0.068 A 
HETATM   26  C   UNL     1       3.925  34.310  59.679  1.00  0.00     0.037 A 
HETATM   27  C   UNL     1       4.166  34.459  61.051  1.00  0.00     0.018 A 
BRANCH  25  28
HETATM   28  O   UNL     1       3.253  32.798  57.862  1.00  0.00    -0.356 OA
HETATM   29  C   UNL     1       4.186  31.967  57.180  1.00  0.00     0.210 C 
ENDBRANCH  25  28
ENDBRANCH   3  22
TORSDOF 9
ENDMDL
MODEL 10
REMARK VINA RESULT:      -7.5      7.675     13.101
REMARK  9 active torsions:
REMARK  status: ('A' for Active; 'I' for Inactive)
REMARK    1  A    between atoms: C_2  and  N_3 
REMARK       I    between atoms: N_3  and  C_4 
REMARK    2  A    between atoms: C_4  and  C_5 
REMARK    3  A    between atoms: C_5  and  S_6 
REMARK    4  A    between atoms: S_6  and  C_7 
REMARK    5  A    between atoms: N_8  and  C_9 
REMARK    6  A    between atoms: C_9  and  C_10 
REMARK    7  A    between atoms: C_10  and  C_11 
REMARK    8  A    between atoms: C_17  and  C_18 
REMARK    9  A    between atoms: C_21  and  O_22 
ROOT
HETATM    1  C   UNL     1       4.715  33.094  61.295  1.00  0.00     0.192 A 
HETATM    2  N   UNL     1       5.161  33.946  62.272  1.00  0.00    -0.307 N 
HETATM    3  C   UNL     1       4.894  33.305  63.470  1.00  0.00     0.164 A 
HETATM    4  N   UNL     1       4.363  32.124  63.191  1.00  0.00    -0.128 NA
HETATM    5  N   UNL     1       4.255  31.994  61.836  1.00  0.00    -0.122 NA
ENDROOT
BRANCH   1   6
HETATM    6  S   UNL     1       4.776  33.427  59.599  1.00  0.00    -0.081 SA
BRANCH   6   7
HETATM    7  C   UNL     1       5.658  31.968  58.977  1.00  0.00     0.185 C 
BRANCH   7   8
HETATM    8  C   UNL     1       7.066  31.881  59.543  1.00  0.00     0.227 C 
HETATM    9  N   UNL     1       7.137  31.310  60.797  1.00  0.00    -0.361 N 
HETATM   10  H   UNL     1       6.370  30.691  61.059  1.00  0.00     0.162 HD
HETATM   11  O   UNL     1       8.044  32.311  58.937  1.00  0.00    -0.273 OA
BRANCH   9  12
HETATM   12  C   UNL     1       8.399  31.102  61.475  1.00  0.00     0.118 C 
HETATM   13  C   UNL     1       8.459  31.845  62.797  1.00  0.00     0.026 C 
ENDBRANCH   9  12
ENDBRANCH   7   8
ENDBRANCH   6   7
ENDBRANCH   1   6
BRANCH   2  14
HETATM   14  C   UNL     1       5.917  35.167  62.071  1.00  0.00     0.137 C 
BRANCH  14  15
HETATM   15  C   UNL     1       5.037  36.408  61.911  1.00  0.00     0.059 C 
BRANCH  15  16
HETATM   16  C   UNL     1       5.641  37.600  62.612  1.00  0.00    -0.057 A 
HETATM   17  C   UNL     1       6.481  38.479  61.914  1.00  0.00     0.007 A 
HETATM   18  C   UNL     1       7.065  39.566  62.565  1.00  0.00     0.001 A 
HETATM   19  C   UNL     1       6.814  39.786  63.918  1.00  0.00     0.000 A 
HETATM   20  C   UNL     1       5.980  38.919  64.621  1.00  0.00     0.001 A 
HETATM   21  C   UNL     1       5.396  37.829  63.972  1.00  0.00     0.007 A 
ENDBRANCH  15  16
ENDBRANCH  14  15
ENDBRANCH   2  14
BRANCH   3  22
HETATM   22  C   UNL     1       5.186  33.760  64.833  1.00  0.00     0.012 A 
HETATM   23  C   UNL     1       4.198  34.150  65.740  1.00  0.00     0.018 A 
HETATM   24  C   UNL     1       4.537  34.542  67.041  1.00  0.00     0.037 A 
HETATM   25  C   UNL     1       5.865  34.523  67.469  1.00  0.00     0.068 A 
HETATM   26  C   UNL     1       6.859  34.126  66.580  1.00  0.00     0.037 A 
HETATM   27  C   UNL     1       6.519  33.745  65.275  1.00  0.00     0.018 A 
BRANCH  25  28
HETATM   28  O   UNL     1       6.057  34.909  68.767  1.00  0.00    -0.356 OA
HETATM   29  C   UNL     1       7.368  34.740  69.293  1.00  0.00     0.210 C 
ENDBRANCH  25  28
ENDBRANCH   3  22
TORSDOF 9
ENDMDL
