MODEL 1
REMARK VINA RESULT:      -8.9      0.000      0.000
REMARK  5 active torsions:
REMARK  status: ('A' for Active; 'I' for Inactive)
REMARK    1  A    between atoms: O_2  and  C_3 
REMARK    2  A    between atoms: C_5  and  C_15 
REMARK    3  A    between atoms: C_8  and  C_9 
REMARK       I    between atoms: C_15  and  N_17 
REMARK    4  A    between atoms: N_17  and  C_18 
REMARK    5  A    between atoms: C_20  and  C_21 
ROOT
HETATM    1  C   UNL     1       5.987  27.892  56.320  1.00  0.00     0.080 A 
HETATM    2  C   UNL     1       6.077  29.009  57.161  1.00  0.00     0.054 A 
HETATM    3  C   UNL     1       7.285  29.338  57.792  1.00  0.00     0.034 A 
HETATM    4  C   UNL     1       8.418  28.553  57.572  1.00  0.00     0.018 A 
HETATM    5  C   UNL     1       8.334  27.432  56.743  1.00  0.00     0.016 A 
HETATM    6  C   UNL     1       7.126  27.084  56.112  1.00  0.00     0.010 A 
ENDROOT
BRANCH   3   7
HETATM    7  C   UNL     1       7.321  30.556  58.649  1.00  0.00     0.252 C 
HETATM    8  O   UNL     1       6.911  31.623  58.203  1.00  0.00    -0.268 OA
HETATM    9  N   UNL     1       7.804  30.391  59.932  1.00  0.00    -0.352 N 
HETATM   10  H   UNL     1       7.958  29.458  60.294  1.00  0.00     0.163 HD
BRANCH   9  11
HETATM   11  C   UNL     1       7.893  31.489  60.848  1.00  0.00     0.094 A 
HETATM   12  C   UNL     1       9.154  31.715  61.629  1.00  0.00     0.037 A 
HETATM   13  C   UNL     1       7.907  31.256  62.346  1.00  0.00     0.043 A 
BRANCH  13  14
HETATM   14  C   UNL     1       7.185  32.208  63.271  1.00  0.00    -0.052 A 
HETATM   15  C   UNL     1       5.782  32.243  63.338  1.00  0.00     0.007 A 
HETATM   16  C   UNL     1       5.116  33.117  64.203  1.00  0.00     0.001 A 
HETATM   17  C   UNL     1       5.843  33.970  65.027  1.00  0.00     0.000 A 
HETATM   18  C   UNL     1       7.235  33.947  64.989  1.00  0.00     0.001 A 
HETATM   19  C   UNL     1       7.894  33.072  64.122  1.00  0.00     0.007 A 
ENDBRANCH  13  14
ENDBRANCH   9  11
ENDBRANCH   3   7
BRANCH   1  20
HETATM   20  O   UNL     1       4.832  27.525  55.675  1.00  0.00    -0.355 OA
HETATM   21  C   UNL     1       4.346  28.389  54.654  1.00  0.00     0.210 C 
ENDBRANCH   1  20
BRANCH   6  22
HETATM   22  C   UNL     1       7.089  25.904  55.257  1.00  0.00     0.013 A 
HETATM   23  C   UNL     1       6.755  24.558  55.540  1.00  0.00     0.152 A 
HETATM   24  N   UNL     1       6.848  23.764  54.469  1.00  0.00    -0.187 NA
HETATM   25  N   UNL     1       7.217  24.603  53.490  1.00  0.00    -0.289 N 
HETATM   26  H   UNL     1       7.336  24.226  52.556  1.00  0.00     0.188 HD
HETATM   27  C   UNL     1       7.384  25.891  53.909  1.00  0.00     0.123 A 
ENDBRANCH   6  22
TORSDOF 5
ENDMDL
MODEL 2
REMARK VINA RESULT:      -8.7      2.153      3.526
REMARK  5 active torsions:
REMARK  status: ('A' for Active; 'I' for Inactive)
REMARK    1  A    between atoms: O_2  and  C_3 
REMARK    2  A    between atoms: C_5  and  C_15 
REMARK    3  A    between atoms: C_8  and  C_9 
REMARK       I    between atoms: C_15  and  N_17 
REMARK    4  A    between atoms: N_17  and  C_18 
REMARK    5  A    between atoms: C_20  and  C_21 
ROOT
HETATM    1  C   UNL     1       6.799  24.752  55.024  1.00  0.00     0.080 A 
HETATM    2  C   UNL     1       6.541  25.991  55.626  1.00  0.00     0.054 A 
HETATM    3  C   UNL     1       7.209  26.374  56.798  1.00  0.00     0.034 A 
HETATM    4  C   UNL     1       8.154  25.519  57.367  1.00  0.00     0.018 A 
HETATM    5  C   UNL     1       8.409  24.277  56.780  1.00  0.00     0.016 A 
HETATM    6  C   UNL     1       7.738  23.876  55.611  1.00  0.00     0.010 A 
ENDROOT
BRANCH   3   7
HETATM    7  C   UNL     1       6.912  27.716  57.369  1.00  0.00     0.252 C 
HETATM    8  O   UNL     1       5.758  28.134  57.367  1.00  0.00    -0.268 OA
HETATM    9  N   UNL     1       7.981  28.410  57.901  1.00  0.00    -0.352 N 
HETATM   10  H   UNL     1       8.868  27.939  58.032  1.00  0.00     0.163 HD
BRANCH   9  11
HETATM   11  C   UNL     1       7.821  29.713  58.473  1.00  0.00     0.094 A 
HETATM   12  C   UNL     1       8.726  30.834  58.053  1.00  0.00     0.037 A 
HETATM   13  C   UNL     1       8.843  30.268  59.447  1.00  0.00     0.043 A 
BRANCH  13  14
HETATM   14  C   UNL     1       8.396  31.096  60.629  1.00  0.00    -0.052 A 
HETATM   15  C   UNL     1       8.708  30.722  61.947  1.00  0.00     0.007 A 
HETATM   16  C   UNL     1       8.302  31.496  63.039  1.00  0.00     0.001 A 
HETATM   17  C   UNL     1       7.581  32.668  62.833  1.00  0.00     0.000 A 
HETATM   18  C   UNL     1       7.268  33.067  61.536  1.00  0.00     0.001 A 
HETATM   19  C   UNL     1       7.676  32.289  60.450  1.00  0.00     0.007 A 
ENDBRANCH  13  14
ENDBRANCH   9  11
ENDBRANCH   3   7
BRANCH   1  20
HETATM   20  O   UNL     1       6.176  24.327  53.877  1.00  0.00    -0.355 OA
HETATM   21  C   UNL     1       5.023  25.043  53.450  1.00  0.00     0.210 C 
ENDBRANCH   1  20
BRANCH   6  22
HETATM   22  C   UNL     1       8.039  22.570  55.035  1.00  0.00     0.013 A 
HETATM   23  C   UNL     1       8.748  22.209  53.866  1.00  0.00     0.152 A 
HETATM   24  N   UNL     1       8.804  20.886  53.680  1.00  0.00    -0.187 NA
HETATM   25  N   UNL     1       8.151  20.394  54.744  1.00  0.00    -0.289 N 
HETATM   26  H   UNL     1       8.075  19.387  54.837  1.00  0.00     0.188 HD
HETATM   27  C   UNL     1       7.666  21.358  55.580  1.00  0.00     0.123 A 
ENDBRANCH   6  22
TORSDOF 5
ENDMDL
MODEL 3
REMARK VINA RESULT:      -8.6      3.362      9.896
REMARK  5 active torsions:
REMARK  status: ('A' for Active; 'I' for Inactive)
REMARK    1  A    between atoms: O_2  and  C_3 
REMARK    2  A    between atoms: C_5  and  C_15 
REMARK    3  A    between atoms: C_8  and  C_9 
REMARK       I    between atoms: C_15  and  N_17 
REMARK    4  A    between atoms: N_17  and  C_18 
REMARK    5  A    between atoms: C_20  and  C_21 
ROOT
HETATM    1  C   UNL     1       6.523  29.948  57.771  1.00  0.00     0.080 A 
HETATM    2  C   UNL     1       7.190  28.793  57.341  1.00  0.00     0.054 A 
HETATM    3  C   UNL     1       6.533  27.836  56.555  1.00  0.00     0.034 A 
HETATM    4  C   UNL     1       5.203  28.038  56.182  1.00  0.00     0.018 A 
HETATM    5  C   UNL     1       4.528  29.182  56.616  1.00  0.00     0.016 A 
HETATM    6  C   UNL     1       5.171  30.145  57.414  1.00  0.00     0.010 A 
ENDROOT
BRANCH   3   7
HETATM    7  C   UNL     1       7.308  26.646  56.105  1.00  0.00     0.252 C 
HETATM    8  O   UNL     1       8.080  26.096  56.883  1.00  0.00    -0.268 OA
HETATM    9  N   UNL     1       7.078  26.214  54.813  1.00  0.00    -0.352 N 
HETATM   10  H   UNL     1       6.304  26.599  54.287  1.00  0.00     0.163 HD
BRANCH   9  11
HETATM   11  C   UNL     1       7.768  25.085  54.266  1.00  0.00     0.094 A 
HETATM   12  C   UNL     1       7.647  24.767  52.804  1.00  0.00     0.037 A 
HETATM   13  C   UNL     1       7.010  23.849  53.820  1.00  0.00     0.043 A 
BRANCH  13  14
HETATM   14  C   UNL     1       7.592  22.474  54.052  1.00  0.00    -0.052 A 
HETATM   15  C   UNL     1       8.065  21.688  52.988  1.00  0.00     0.007 A 
HETATM   16  C   UNL     1       8.612  20.420  53.207  1.00  0.00     0.001 A 
HETATM   17  C   UNL     1       8.706  19.915  54.500  1.00  0.00     0.000 A 
HETATM   18  C   UNL     1       8.255  20.679  55.574  1.00  0.00     0.001 A 
HETATM   19  C   UNL     1       7.709  21.944  55.348  1.00  0.00     0.007 A 
ENDBRANCH  13  14
ENDBRANCH   9  11
ENDBRANCH   3   7
BRANCH   1  20
HETATM   20  O   UNL     1       7.116  30.919  58.539  1.00  0.00    -0.355 OA
HETATM   21  C   UNL     1       8.169  30.519  59.408  1.00  0.00     0.210 C 
ENDBRANCH   1  20
BRANCH   6  22
HETATM   22  C   UNL     1       4.424  31.322  57.842  1.00  0.00     0.013 A 
HETATM   23  C   UNL     1       3.658  31.566  59.006  1.00  0.00     0.152 A 
HETATM   24  N   UNL     1       3.119  32.790  59.026  1.00  0.00    -0.187 NA
HETATM   25  N   UNL     1       3.559  33.342  57.885  1.00  0.00    -0.289 N 
HETATM   26  H   UNL     1       3.290  34.299  57.681  1.00  0.00     0.188 HD
HETATM   27  C   UNL     1       4.334  32.505  57.136  1.00  0.00     0.123 A 
ENDBRANCH   6  22
TORSDOF 5
ENDMDL
MODEL 4
REMARK VINA RESULT:      -8.6      2.710      9.505
REMARK  5 active torsions:
REMARK  status: ('A' for Active; 'I' for Inactive)
REMARK    1  A    between atoms: O_2  and  C_3 
REMARK    2  A    between atoms: C_5  and  C_15 
REMARK    3  A    between atoms: C_8  and  C_9 
REMARK       I    between atoms: C_15  and  N_17 
REMARK    4  A    between atoms: N_17  and  C_18 
REMARK    5  A    between atoms: C_20  and  C_21 
ROOT
HETATM    1  C   UNL     1       6.407  32.652  61.574  1.00  0.00     0.080 A 
HETATM    2  C   UNL     1       6.865  31.986  60.428  1.00  0.00     0.054 A 
HETATM    3  C   UNL     1       7.983  31.141  60.488  1.00  0.00     0.034 A 
HETATM    4  C   UNL     1       8.641  30.947  61.703  1.00  0.00     0.018 A 
HETATM    5  C   UNL     1       8.197  31.615  62.846  1.00  0.00     0.016 A 
HETATM    6  C   UNL     1       7.084  32.474  62.799  1.00  0.00     0.010 A 
ENDROOT
BRANCH   3   7
HETATM    7  C   UNL     1       8.400  30.440  59.242  1.00  0.00     0.252 C 
HETATM    8  O   UNL     1       9.340  30.877  58.586  1.00  0.00    -0.268 OA
HETATM    9  N   UNL     1       7.696  29.298  58.913  1.00  0.00    -0.352 N 
HETATM   10  H   UNL     1       7.054  28.895  59.584  1.00  0.00     0.163 HD
BRANCH   9  11
HETATM   11  C   UNL     1       8.000  28.542  57.735  1.00  0.00     0.094 A 
HETATM   12  C   UNL     1       7.253  28.804  56.461  1.00  0.00     0.037 A 
HETATM   13  C   UNL     1       7.028  27.508  57.201  1.00  0.00     0.043 A 
BRANCH  13  14
HETATM   14  C   UNL     1       7.541  26.214  56.612  1.00  0.00    -0.052 A 
HETATM   15  C   UNL     1       7.280  25.860  55.278  1.00  0.00     0.007 A 
HETATM   16  C   UNL     1       7.765  24.667  54.733  1.00  0.00     0.001 A 
HETATM   17  C   UNL     1       8.531  23.805  55.512  1.00  0.00     0.000 A 
HETATM   18  C   UNL     1       8.813  24.138  56.834  1.00  0.00     0.001 A 
HETATM   19  C   UNL     1       8.325  25.331  57.373  1.00  0.00     0.007 A 
ENDBRANCH  13  14
ENDBRANCH   9  11
ENDBRANCH   3   7
BRANCH   1  20
HETATM   20  O   UNL     1       5.317  33.487  61.574  1.00  0.00    -0.355 OA
HETATM   21  C   UNL     1       4.080  32.956  61.112  1.00  0.00     0.210 C 
ENDBRANCH   1  20
BRANCH   6  22
HETATM   22  C   UNL     1       6.659  33.149  64.020  1.00  0.00     0.013 A 
HETATM   23  C   UNL     1       5.390  33.244  64.638  1.00  0.00     0.152 A 
HETATM   24  N   UNL     1       5.413  33.966  65.763  1.00  0.00    -0.187 NA
HETATM   25  N   UNL     1       6.703  34.315  65.883  1.00  0.00    -0.289 N 
HETATM   26  H   UNL     1       6.978  34.865  66.689  1.00  0.00     0.188 HD
HETATM   27  C   UNL     1       7.488  33.861  64.863  1.00  0.00     0.123 A 
ENDBRANCH   6  22
TORSDOF 5
ENDMDL
MODEL 5
REMARK VINA RESULT:      -8.6      8.033     11.049
REMARK  5 active torsions:
REMARK  status: ('A' for Active; 'I' for Inactive)
REMARK    1  A    between atoms: O_2  and  C_3 
REMARK    2  A    between atoms: C_5  and  C_15 
REMARK    3  A    between atoms: C_8  and  C_9 
REMARK       I    between atoms: C_15  and  N_17 
REMARK    4  A    between atoms: N_17  and  C_18 
REMARK    5  A    between atoms: C_20  and  C_21 
ROOT
HETATM    1  C   UNL     1       4.289  27.409  48.607  1.00  0.00     0.080 A 
HETATM    2  C   UNL     1       4.615  26.715  49.780  1.00  0.00     0.054 A 
HETATM    3  C   UNL     1       4.704  27.384  51.009  1.00  0.00     0.034 A 
HETATM    4  C   UNL     1       4.451  28.755  51.072  1.00  0.00     0.018 A 
HETATM    5  C   UNL     1       4.135  29.456  49.905  1.00  0.00     0.016 A 
HETATM    6  C   UNL     1       4.053  28.799  48.664  1.00  0.00     0.010 A 
ENDROOT
BRANCH   3   7
HETATM    7  C   UNL     1       5.025  26.583  52.223  1.00  0.00     0.252 C 
HETATM    8  O   UNL     1       4.488  26.858  53.291  1.00  0.00    -0.268 OA
HETATM    9  N   UNL     1       5.912  25.538  52.053  1.00  0.00    -0.352 N 
HETATM   10  H   UNL     1       6.180  25.254  51.119  1.00  0.00     0.163 HD
BRANCH   9  11
HETATM   11  C   UNL     1       6.303  24.700  53.148  1.00  0.00     0.094 A 
HETATM   12  C   UNL     1       7.271  25.211  54.175  1.00  0.00     0.037 A 
HETATM   13  C   UNL     1       7.703  24.121  53.224  1.00  0.00     0.043 A 
BRANCH  13  14
HETATM   14  C   UNL     1       7.918  22.718  53.744  1.00  0.00    -0.052 A 
HETATM   15  C   UNL     1       8.170  21.644  52.874  1.00  0.00     0.007 A 
HETATM   16  C   UNL     1       8.380  20.349  53.359  1.00  0.00     0.001 A 
HETATM   17  C   UNL     1       8.350  20.104  54.728  1.00  0.00     0.000 A 
HETATM   18  C   UNL     1       8.114  21.153  55.612  1.00  0.00     0.001 A 
HETATM   19  C   UNL     1       7.905  22.444  55.122  1.00  0.00     0.007 A 
ENDBRANCH  13  14
ENDBRANCH   9  11
ENDBRANCH   3   7
BRANCH   1  20
HETATM   20  O   UNL     1       4.185  26.804  47.378  1.00  0.00    -0.355 OA
HETATM   21  C   UNL     1       3.101  25.906  47.176  1.00  0.00     0.210 C 
ENDBRANCH   1  20
BRANCH   6  22
HETATM   22  C   UNL     1       3.721  29.574  47.474  1.00  0.00     0.013 A 
HETATM   23  C   UNL     1       4.521  30.390  46.640  1.00  0.00     0.152 A 
HETATM   24  N   UNL     1       3.831  30.940  45.636  1.00  0.00    -0.187 NA
HETATM   25  N   UNL     1       2.591  30.459  45.809  1.00  0.00    -0.289 N 
HETATM   26  H   UNL     1       1.875  30.727  45.142  1.00  0.00     0.188 HD
HETATM   27  C   UNL     1       2.468  29.646  46.898  1.00  0.00     0.123 A 
ENDBRANCH   6  22
TORSDOF 5
ENDMDL
MODEL 6
REMARK VINA RESULT:      -8.3      2.814     10.098
REMARK  5 active torsions:
REMARK  status: ('A' for Active; 'I' for Inactive)
REMARK    1  A    between atoms: O_2  and  C_3 
REMARK    2  A    between atoms: C_5  and  C_15 
REMARK    3  A    between atoms: C_8  and  C_9 
REMARK       I    between atoms: C_15  and  N_17 
REMARK    4  A    between atoms: N_17  and  C_18 
REMARK    5  A    between atoms: C_20  and  C_21 
ROOT
HETATM    1  C   UNL     1       8.916  29.878  57.635  1.00  0.00     0.080 A 
HETATM    2  C   UNL     1       8.859  28.904  56.628  1.00  0.00     0.054 A 
HETATM    3  C   UNL     1       7.659  28.239  56.340  1.00  0.00     0.034 A 
HETATM    4  C   UNL     1       6.502  28.558  57.051  1.00  0.00     0.018 A 
HETATM    5  C   UNL     1       6.552  29.519  58.064  1.00  0.00     0.016 A 
HETATM    6  C   UNL     1       7.752  30.186  58.371  1.00  0.00     0.010 A 
ENDROOT
BRANCH   3   7
HETATM    7  C   UNL     1       7.659  27.238  55.238  1.00  0.00     0.252 C 
HETATM    8  O   UNL     1       7.701  27.618  54.072  1.00  0.00    -0.268 OA
HETATM    9  N   UNL     1       7.638  25.909  55.614  1.00  0.00    -0.352 N 
HETATM   10  H   UNL     1       7.784  25.661  56.585  1.00  0.00     0.163 HD
BRANCH   9  11
HETATM   11  C   UNL     1       7.629  24.854  54.645  1.00  0.00     0.094 A 
HETATM   12  C   UNL     1       6.348  24.469  53.965  1.00  0.00     0.037 A 
HETATM   13  C   UNL     1       6.981  23.518  54.952  1.00  0.00     0.043 A 
BRANCH  13  14
HETATM   14  C   UNL     1       7.608  22.236  54.457  1.00  0.00    -0.052 A 
HETATM   15  C   UNL     1       7.819  22.003  53.087  1.00  0.00     0.007 A 
HETATM   16  C   UNL     1       8.410  20.820  52.632  1.00  0.00     0.001 A 
HETATM   17  C   UNL     1       8.810  19.846  53.541  1.00  0.00     0.000 A 
HETATM   18  C   UNL     1       8.622  20.057  54.905  1.00  0.00     0.001 A 
HETATM   19  C   UNL     1       8.031  21.241  55.353  1.00  0.00     0.007 A 
ENDBRANCH  13  14
ENDBRANCH   9  11
ENDBRANCH   3   7
BRANCH   1  20
HETATM   20  O   UNL     1      10.062  30.562  57.958  1.00  0.00    -0.355 OA
HETATM   21  C   UNL     1      11.292  30.068  57.440  1.00  0.00     0.210 C 
ENDBRANCH   1  20
BRANCH   6  22
HETATM   22  C   UNL     1       7.754  31.182  59.437  1.00  0.00     0.013 A 
HETATM   23  C   UNL     1       6.921  32.303  59.666  1.00  0.00     0.152 A 
HETATM   24  N   UNL     1       7.254  32.979  60.770  1.00  0.00    -0.187 NA
HETATM   25  N   UNL     1       8.286  32.280  61.265  1.00  0.00    -0.289 N 
HETATM   26  H   UNL     1       8.708  32.596  62.132  1.00  0.00     0.188 HD
HETATM   27  C   UNL     1       8.631  31.202  60.502  1.00  0.00     0.123 A 
ENDBRANCH   6  22
TORSDOF 5
ENDMDL
MODEL 7
REMARK VINA RESULT:      -8.2      4.275      9.790
REMARK  5 active torsions:
REMARK  status: ('A' for Active; 'I' for Inactive)
REMARK    1  A    between atoms: O_2  and  C_3 
REMARK    2  A    between atoms: C_5  and  C_15 
REMARK    3  A    between atoms: C_8  and  C_9 
REMARK       I    between atoms: C_15  and  N_17 
REMARK    4  A    between atoms: N_17  and  C_18 
REMARK    5  A    between atoms: C_20  and  C_21 
ROOT
HETATM    1  C   UNL     1       4.999  29.645  55.548  1.00  0.00     0.080 A 
HETATM    2  C   UNL     1       5.692  28.472  55.219  1.00  0.00     0.054 A 
HETATM    3  C   UNL     1       6.715  27.987  56.047  1.00  0.00     0.034 A 
HETATM    4  C   UNL     1       7.041  28.671  57.219  1.00  0.00     0.018 A 
HETATM    5  C   UNL     1       6.362  29.847  57.548  1.00  0.00     0.016 A 
HETATM    6  C   UNL     1       5.341  30.350  56.722  1.00  0.00     0.010 A 
ENDROOT
BRANCH   3   7
HETATM    7  C   UNL     1       7.392  26.719  55.657  1.00  0.00     0.252 C 
HETATM    8  O   UNL     1       8.007  26.076  56.500  1.00  0.00    -0.268 OA
HETATM    9  N   UNL     1       7.255  26.329  54.339  1.00  0.00    -0.352 N 
HETATM   10  H   UNL     1       6.591  26.806  53.742  1.00  0.00     0.163 HD
BRANCH   9  11
HETATM   11  C   UNL     1       7.865  25.131  53.843  1.00  0.00     0.094 A 
HETATM   12  C   UNL     1       7.584  24.669  52.443  1.00  0.00     0.037 A 
HETATM   13  C   UNL     1       7.045  23.878  53.610  1.00  0.00     0.043 A 
BRANCH  13  14
HETATM   14  C   UNL     1       7.626  22.519  53.923  1.00  0.00    -0.052 A 
HETATM   15  C   UNL     1       7.732  22.051  55.244  1.00  0.00     0.007 A 
HETATM   16  C   UNL     1       8.261  20.789  55.530  1.00  0.00     0.001 A 
HETATM   17  C   UNL     1       8.688  19.962  54.496  1.00  0.00     0.000 A 
HETATM   18  C   UNL     1       8.584  20.396  53.177  1.00  0.00     0.001 A 
HETATM   19  C   UNL     1       8.055  21.658  52.898  1.00  0.00     0.007 A 
ENDBRANCH  13  14
ENDBRANCH   9  11
ENDBRANCH   3   7
BRANCH   1  20
HETATM   20  O   UNL     1       3.988  30.163  54.777  1.00  0.00    -0.355 OA
HETATM   21  C   UNL     1       3.747  29.557  53.512  1.00  0.00     0.210 C 
ENDBRANCH   1  20
BRANCH   6  22
HETATM   22  C   UNL     1       4.662  31.581  57.108  1.00  0.00     0.013 A 
HETATM   23  C   UNL     1       3.614  31.818  58.029  1.00  0.00     0.152 A 
HETATM   24  N   UNL     1       3.263  33.106  58.097  1.00  0.00    -0.187 NA
HETATM   25  N   UNL     1       4.102  33.703  57.238  1.00  0.00    -0.289 N 
HETATM   26  H   UNL     1       4.040  34.709  57.127  1.00  0.00     0.188 HD
HETATM   27  C   UNL     1       4.952  32.836  56.613  1.00  0.00     0.123 A 
ENDBRANCH   6  22
TORSDOF 5
ENDMDL
MODEL 8
REMARK VINA RESULT:      -8.2      8.069     10.947
REMARK  5 active torsions:
REMARK  status: ('A' for Active; 'I' for Inactive)
REMARK    1  A    between atoms: O_2  and  C_3 
REMARK    2  A    between atoms: C_5  and  C_15 
REMARK    3  A    between atoms: C_8  and  C_9 
REMARK       I    between atoms: C_15  and  N_17 
REMARK    4  A    between atoms: N_17  and  C_18 
REMARK    5  A    between atoms: C_20  and  C_21 
ROOT
HETATM    1  C   UNL     1       4.388  29.595  49.892  1.00  0.00     0.080 A 
HETATM    2  C   UNL     1       4.670  28.807  51.016  1.00  0.00     0.054 A 
HETATM    3  C   UNL     1       4.768  27.412  50.909  1.00  0.00     0.034 A 
HETATM    4  C   UNL     1       4.596  26.799  49.668  1.00  0.00     0.018 A 
HETATM    5  C   UNL     1       4.303  27.576  48.544  1.00  0.00     0.016 A 
HETATM    6  C   UNL     1       4.192  28.975  48.639  1.00  0.00     0.010 A 
ENDROOT
BRANCH   3   7
HETATM    7  C   UNL     1       5.101  26.636  52.136  1.00  0.00     0.252 C 
HETATM    8  O   UNL     1       4.561  26.922  53.199  1.00  0.00    -0.268 OA
HETATM    9  N   UNL     1       6.002  25.600  51.983  1.00  0.00    -0.352 N 
HETATM   10  H   UNL     1       6.272  25.305  51.053  1.00  0.00     0.163 HD
BRANCH   9  11
HETATM   11  C   UNL     1       6.405  24.787  53.090  1.00  0.00     0.094 A 
HETATM   12  C   UNL     1       7.438  25.290  54.055  1.00  0.00     0.037 A 
HETATM   13  C   UNL     1       7.780  24.148  53.128  1.00  0.00     0.043 A 
BRANCH  13  14
HETATM   14  C   UNL     1       7.957  22.757  53.691  1.00  0.00    -0.052 A 
HETATM   15  C   UNL     1       8.117  21.640  52.854  1.00  0.00     0.007 A 
HETATM   16  C   UNL     1       8.292  20.356  53.378  1.00  0.00     0.001 A 
HETATM   17  C   UNL     1       8.320  20.163  54.755  1.00  0.00     0.000 A 
HETATM   18  C   UNL     1       8.175  21.254  55.608  1.00  0.00     0.001 A 
HETATM   19  C   UNL     1       8.000  22.535  55.078  1.00  0.00     0.007 A 
ENDBRANCH  13  14
ENDBRANCH   9  11
ENDBRANCH   3   7
BRANCH   1  20
HETATM   20  O   UNL     1       4.284  30.963  49.938  1.00  0.00    -0.355 OA
HETATM   21  C   UNL     1       5.443  31.700  50.310  1.00  0.00     0.210 C 
ENDBRANCH   1  20
BRANCH   6  22
HETATM   22  C   UNL     1       3.885  29.743  47.438  1.00  0.00     0.013 A 
HETATM   23  C   UNL     1       4.700  30.564  46.623  1.00  0.00     0.152 A 
HETATM   24  N   UNL     1       4.033  31.104  45.598  1.00  0.00    -0.187 NA
HETATM   25  N   UNL     1       2.793  30.611  45.739  1.00  0.00    -0.289 N 
HETATM   26  H   UNL     1       2.094  30.870  45.052  1.00  0.00     0.188 HD
HETATM   27  C   UNL     1       2.648  29.800  46.827  1.00  0.00     0.123 A 
ENDBRANCH   6  22
TORSDOF 5
ENDMDL
MODEL 9
REMARK VINA RESULT:      -8.2      2.931      4.577
REMARK  5 active torsions:
REMARK  status: ('A' for Active; 'I' for Inactive)
REMARK    1  A    between atoms: O_2  and  C_3 
REMARK    2  A    between atoms: C_5  and  C_15 
REMARK    3  A    between atoms: C_8  and  C_9 
REMARK       I    between atoms: C_15  and  N_17 
REMARK    4  A    between atoms: N_17  and  C_18 
REMARK    5  A    between atoms: C_20  and  C_21 
ROOT
HETATM    1  C   UNL     1       6.968  24.155  54.584  1.00  0.00     0.080 A 
HETATM    2  C   UNL     1       6.780  25.323  55.336  1.00  0.00     0.054 A 
HETATM    3  C   UNL     1       7.483  25.527  56.532  1.00  0.00     0.034 A 
HETATM    4  C   UNL     1       8.392  24.565  56.976  1.00  0.00     0.018 A 
HETATM    5  C   UNL     1       8.576  23.393  56.237  1.00  0.00     0.016 A 
HETATM    6  C   UNL     1       7.870  23.171  55.041  1.00  0.00     0.010 A 
ENDROOT
BRANCH   3   7
HETATM    7  C   UNL     1       7.261  26.803  57.268  1.00  0.00     0.252 C 
HETATM    8  O   UNL     1       7.909  27.038  58.282  1.00  0.00    -0.268 OA
HETATM    9  N   UNL     1       6.331  27.670  56.729  1.00  0.00    -0.352 N 
HETATM   10  H   UNL     1       5.964  27.497  55.801  1.00  0.00     0.163 HD
BRANCH   9  11
HETATM   11  C   UNL     1       6.026  28.924  57.349  1.00  0.00     0.094 A 
HETATM   12  C   UNL     1       5.699  30.121  56.504  1.00  0.00     0.037 A 
HETATM   13  C   UNL     1       6.997  30.087  57.276  1.00  0.00     0.043 A 
BRANCH  13  14
HETATM   14  C   UNL     1       7.182  31.000  58.465  1.00  0.00    -0.052 A 
HETATM   15  C   UNL     1       6.128  31.791  58.955  1.00  0.00     0.007 A 
HETATM   16  C   UNL     1       6.299  32.627  60.063  1.00  0.00     0.001 A 
HETATM   17  C   UNL     1       7.529  32.682  60.711  1.00  0.00     0.000 A 
HETATM   18  C   UNL     1       8.587  31.900  60.253  1.00  0.00     0.001 A 
HETATM   19  C   UNL     1       8.409  31.068  59.145  1.00  0.00     0.007 A 
ENDBRANCH  13  14
ENDBRANCH   9  11
ENDBRANCH   3   7
BRANCH   1  20
HETATM   20  O   UNL     1       6.310  23.904  53.406  1.00  0.00    -0.355 OA
HETATM   21  C   UNL     1       5.196  24.729  53.085  1.00  0.00     0.210 C 
ENDBRANCH   1  20
BRANCH   6  22
HETATM   22  C   UNL     1       8.098  21.932  54.306  1.00  0.00     0.013 A 
HETATM   23  C   UNL     1       8.420  20.628  54.753  1.00  0.00     0.152 A 
HETATM   24  N   UNL     1       8.550  19.753  53.751  1.00  0.00    -0.187 NA
HETATM   25  N   UNL     1       8.288  20.487  52.660  1.00  0.00    -0.289 N 
HETATM   26  H   UNL     1       8.308  20.027  51.756  1.00  0.00     0.188 HD
HETATM   27  C   UNL     1       8.021  21.798  52.934  1.00  0.00     0.123 A 
ENDBRANCH   6  22
TORSDOF 5
ENDMDL
MODEL 10
REMARK VINA RESULT:      -7.9      3.638      9.542
REMARK  5 active torsions:
REMARK  status: ('A' for Active; 'I' for Inactive)
REMARK    1  A    between atoms: O_2  and  C_3 
REMARK    2  A    between atoms: C_5  and  C_15 
REMARK    3  A    between atoms: C_8  and  C_9 
REMARK       I    between atoms: C_15  and  N_17 
REMARK    4  A    between atoms: N_17  and  C_18 
REMARK    5  A    between atoms: C_20  and  C_21 
ROOT
HETATM    1  C   UNL     1       4.376  29.771  56.962  1.00  0.00     0.080 A 
HETATM    2  C   UNL     1       4.643  28.441  56.608  1.00  0.00     0.054 A 
HETATM    3  C   UNL     1       5.902  27.873  56.851  1.00  0.00     0.034 A 
HETATM    4  C   UNL     1       6.899  28.633  57.465  1.00  0.00     0.018 A 
HETATM    5  C   UNL     1       6.644  29.962  57.810  1.00  0.00     0.016 A 
HETATM    6  C   UNL     1       5.389  30.548  57.563  1.00  0.00     0.010 A 
ENDROOT
BRANCH   3   7
HETATM    7  C   UNL     1       6.112  26.446  56.479  1.00  0.00     0.252 C 
HETATM    8  O   UNL     1       5.428  25.944  55.593  1.00  0.00    -0.268 OA
HETATM    9  N   UNL     1       7.108  25.773  57.159  1.00  0.00    -0.352 N 
HETATM   10  H   UNL     1       7.749  26.289  57.747  1.00  0.00     0.163 HD
BRANCH   9  11
HETATM   11  C   UNL     1       7.398  24.396  56.894  1.00  0.00     0.094 A 
HETATM   12  C   UNL     1       8.660  23.779  57.424  1.00  0.00     0.037 A 
HETATM   13  C   UNL     1       8.508  24.003  55.938  1.00  0.00     0.043 A 
BRANCH  13  14
HETATM   14  C   UNL     1       8.337  22.818  55.018  1.00  0.00    -0.052 A 
HETATM   15  C   UNL     1       8.004  22.982  53.663  1.00  0.00     0.007 A 
HETATM   16  C   UNL     1       7.856  21.884  52.810  1.00  0.00     0.001 A 
HETATM   17  C   UNL     1       8.048  20.594  53.296  1.00  0.00     0.000 A 
HETATM   18  C   UNL     1       8.389  20.403  54.632  1.00  0.00     0.001 A 
HETATM   19  C   UNL     1       8.535  21.505  55.479  1.00  0.00     0.007 A 
ENDBRANCH  13  14
ENDBRANCH   9  11
ENDBRANCH   3   7
BRANCH   1  20
HETATM   20  O   UNL     1       3.162  30.377  56.751  1.00  0.00    -0.355 OA
HETATM   21  C   UNL     1       2.907  30.906  55.455  1.00  0.00     0.210 C 
ENDBRANCH   1  20
BRANCH   6  22
HETATM   22  C   UNL     1       5.172  31.939  57.942  1.00  0.00     0.013 A 
HETATM   23  C   UNL     1       5.188  33.128  57.174  1.00  0.00     0.152 A 
HETATM   24  N   UNL     1       4.940  34.220  57.904  1.00  0.00    -0.187 NA
HETATM   25  N   UNL     1       4.738  33.733  59.137  1.00  0.00    -0.289 N 
HETATM   26  H   UNL     1       4.510  34.386  59.879  1.00  0.00     0.188 HD
HETATM   27  C   UNL     1       4.874  32.377  59.217  1.00  0.00     0.123 A 
ENDBRANCH   6  22
TORSDOF 5
ENDMDL
