MODEL 1
REMARK VINA RESULT:     -10.7      0.000      0.000
REMARK  5 active torsions:
REMARK  status: ('A' for Active; 'I' for Inactive)
REMARK    1  A    between atoms: C_6  and  S_7 
REMARK    2  A    between atoms: S_7  and  C_8 
REMARK    3  A    between atoms: C_8  and  C_9 
REMARK       I    between atoms: C_9  and  N_10 
REMARK    4  A    between atoms: N_10  and  C_11 
REMARK    5  A    between atoms: N_22  and  C_23 
ROOT
HETATM    1  C   UNL     1       8.519  20.468  56.091  1.00  0.00     0.001 A 
HETATM    2  C   UNL     1       8.430  21.697  56.743  1.00  0.00     0.019 A 
HETATM    3  C   UNL     1       8.168  22.856  56.004  1.00  0.00     0.061 A 
HETATM    4  C   UNL     1       7.995  22.800  54.624  1.00  0.00     0.075 A 
HETATM    5  N   UNL     1       7.725  23.937  53.857  1.00  0.00    -0.223 NA
HETATM    6  C   UNL     1       7.646  25.082  54.455  1.00  0.00     0.177 A 
HETATM    7  N   UNL     1       7.790  25.260  55.824  1.00  0.00    -0.255 N 
HETATM    8  C   UNL     1       8.083  24.176  56.656  1.00  0.00     0.267 A 
HETATM    9  O   UNL     1       8.313  24.250  57.862  1.00  0.00    -0.267 OA
HETATM   10  C   UNL     1       8.091  21.563  53.980  1.00  0.00     0.032 A 
HETATM   11  C   UNL     1       8.351  20.401  54.709  1.00  0.00     0.002 A 
ENDROOT
BRANCH   6  12
HETATM   12  S   UNL     1       7.245  26.453  53.430  1.00  0.00    -0.082 SA
BRANCH  12  13
HETATM   13  C   UNL     1       7.037  25.616  51.826  1.00  0.00     0.185 C 
BRANCH  13  14
HETATM   14  C   UNL     1       5.627  25.735  51.254  1.00  0.00     0.231 C 
HETATM   15  N   UNL     1       5.511  26.607  50.190  1.00  0.00    -0.326 N 
HETATM   16  H   UNL     1       6.383  27.034  49.881  1.00  0.00     0.169 HD
HETATM   17  O   UNL     1       4.696  25.132  51.785  1.00  0.00    -0.272 OA
BRANCH  15  18
HETATM   18  C   UNL     1       4.353  26.986  49.486  1.00  0.00     0.037 A 
HETATM   19  C   UNL     1       3.887  26.322  48.346  1.00  0.00     0.061 A 
HETATM   20  C   UNL     1       2.721  26.792  47.783  1.00  0.00     0.065 A 
HETATM   21  C   UNL     1       2.027  27.884  48.299  1.00  0.00     0.063 A 
HETATM   22  N   UNL     1       2.019  26.325  46.677  1.00  0.00    -0.306 N 
HETATM   23  N   UNL     1       0.905  28.093  47.508  1.00  0.00    -0.307 N 
HETATM   24  C   UNL     1       2.460  28.565  49.407  1.00  0.00     0.034 A 
HETATM   25  C   UNL     1       0.882  27.125  46.493  1.00  0.00     0.325 A 
HETATM   26  H   UNL     1       0.200  28.804  47.617  1.00  0.00     0.170 HD
HETATM   27  O   UNL     1       0.037  27.003  45.625  1.00  0.00    -0.247 OA
HETATM   28  C   UNL     1       3.637  28.098  50.006  1.00  0.00     0.032 A 
HETATM   29  H   UNL     1       2.260  25.543  46.091  1.00  0.00     0.170 HD
ENDBRANCH  15  18
ENDBRANCH  13  14
ENDBRANCH  12  13
ENDBRANCH   6  12
BRANCH   7  30
HETATM   30  C   UNL     1       7.668  26.534  56.455  1.00  0.00     0.066 A 
HETATM   31  C   UNL     1       6.421  27.019  56.888  1.00  0.00     0.061 A 
HETATM   32 CL   UNL     1       4.948  26.173  56.560  1.00  0.00    -0.082 Cl
HETATM   33  C   UNL     1       6.336  28.249  57.544  1.00  0.00     0.026 A 
HETATM   34  C   UNL     1       7.488  29.001  57.773  1.00  0.00     0.002 A 
HETATM   35  C   UNL     1       8.728  28.528  57.346  1.00  0.00     0.002 A 
HETATM   36  C   UNL     1       8.822  27.298  56.691  1.00  0.00     0.032 A 
ENDBRANCH   7  30
TORSDOF 5
ENDMDL
MODEL 2
REMARK VINA RESULT:     -10.0      5.044     10.833
REMARK  5 active torsions:
REMARK  status: ('A' for Active; 'I' for Inactive)
REMARK    1  A    between atoms: C_6  and  S_7 
REMARK    2  A    between atoms: S_7  and  C_8 
REMARK    3  A    between atoms: C_8  and  C_9 
REMARK       I    between atoms: C_9  and  N_10 
REMARK    4  A    between atoms: N_10  and  C_11 
REMARK    5  A    between atoms: N_22  and  C_23 
ROOT
HETATM    1  C   UNL     1       3.040  31.551  54.864  1.00  0.00     0.001 A 
HETATM    2  C   UNL     1       3.448  30.285  54.447  1.00  0.00     0.019 A 
HETATM    3  C   UNL     1       4.625  29.730  54.965  1.00  0.00     0.061 A 
HETATM    4  C   UNL     1       5.395  30.426  55.892  1.00  0.00     0.075 A 
HETATM    5  N   UNL     1       6.572  29.899  56.433  1.00  0.00    -0.223 NA
HETATM    6  C   UNL     1       6.958  28.726  56.048  1.00  0.00     0.177 A 
HETATM    7  N   UNL     1       6.269  27.935  55.138  1.00  0.00    -0.255 N 
HETATM    8  C   UNL     1       5.096  28.401  54.535  1.00  0.00     0.267 A 
HETATM    9  O   UNL     1       4.468  27.810  53.659  1.00  0.00    -0.267 OA
HETATM   10  C   UNL     1       4.980  31.697  56.300  1.00  0.00     0.032 A 
HETATM   11  C   UNL     1       3.807  32.258  55.789  1.00  0.00     0.002 A 
ENDROOT
BRANCH   6  12
HETATM   12  S   UNL     1       8.413  28.108  56.819  1.00  0.00    -0.082 SA
BRANCH  12  13
HETATM   13  C   UNL     1       9.534  29.524  56.589  1.00  0.00     0.185 C 
BRANCH  13  14
HETATM   14  C   UNL     1       9.635  30.428  57.815  1.00  0.00     0.231 C 
HETATM   15  N   UNL     1       8.654  30.221  58.763  1.00  0.00    -0.326 N 
HETATM   16  H   UNL     1       8.006  29.462  58.559  1.00  0.00     0.169 HD
HETATM   17  O   UNL     1      10.500  31.301  57.865  1.00  0.00    -0.272 OA
BRANCH  15  18
HETATM   18  C   UNL     1       8.430  30.920  59.964  1.00  0.00     0.037 A 
HETATM   19  C   UNL     1       7.471  31.929  60.106  1.00  0.00     0.061 A 
HETATM   20  C   UNL     1       7.348  32.502  61.352  1.00  0.00     0.065 A 
HETATM   21  C   UNL     1       8.139  32.122  62.433  1.00  0.00     0.063 A 
HETATM   22  N   UNL     1       6.478  33.496  61.789  1.00  0.00    -0.306 N 
HETATM   23  N   UNL     1       7.762  32.884  63.531  1.00  0.00    -0.307 N 
HETATM   24  C   UNL     1       9.096  31.145  62.328  1.00  0.00     0.034 A 
HETATM   25  C   UNL     1       6.723  33.744  63.148  1.00  0.00     0.325 A 
HETATM   26  H   UNL     1       8.143  32.849  64.463  1.00  0.00     0.170 HD
HETATM   27  O   UNL     1       6.146  34.547  63.858  1.00  0.00    -0.247 OA
HETATM   28  C   UNL     1       9.231  30.537  61.073  1.00  0.00     0.032 A 
HETATM   29  H   UNL     1       5.778  33.972  61.246  1.00  0.00     0.170 HD
ENDBRANCH  15  18
ENDBRANCH  13  14
ENDBRANCH  12  13
ENDBRANCH   6  12
BRANCH   7  30
HETATM   30  C   UNL     1       6.709  26.633  54.756  1.00  0.00     0.066 A 
HETATM   31  C   UNL     1       6.324  25.490  55.479  1.00  0.00     0.061 A 
HETATM   32 CL   UNL     1       5.416  25.599  56.947  1.00  0.00    -0.082 Cl
HETATM   33  C   UNL     1       6.732  24.222  55.056  1.00  0.00     0.026 A 
HETATM   34  C   UNL     1       7.522  24.086  53.914  1.00  0.00     0.002 A 
HETATM   35  C   UNL     1       7.908  25.215  53.192  1.00  0.00     0.002 A 
HETATM   36  C   UNL     1       7.503  26.485  53.607  1.00  0.00     0.032 A 
ENDBRANCH   7  30
TORSDOF 5
ENDMDL
MODEL 3
REMARK VINA RESULT:      -9.9      4.206      6.705
REMARK  5 active torsions:
REMARK  status: ('A' for Active; 'I' for Inactive)
REMARK    1  A    between atoms: C_6  and  S_7 
REMARK    2  A    between atoms: S_7  and  C_8 
REMARK    3  A    between atoms: C_8  and  C_9 
REMARK       I    between atoms: C_9  and  N_10 
REMARK    4  A    between atoms: N_10  and  C_11 
REMARK    5  A    between atoms: N_22  and  C_23 
ROOT
HETATM    1  C   UNL     1       8.976  20.189  53.802  1.00  0.00     0.001 A 
HETATM    2  C   UNL     1       8.625  21.418  53.246  1.00  0.00     0.019 A 
HETATM    3  C   UNL     1       8.000  22.386  54.041  1.00  0.00     0.061 A 
HETATM    4  C   UNL     1       7.724  22.139  55.383  1.00  0.00     0.075 A 
HETATM    5  N   UNL     1       7.108  23.085  56.207  1.00  0.00    -0.223 NA
HETATM    6  C   UNL     1       6.775  24.226  55.696  1.00  0.00     0.177 A 
HETATM    7  N   UNL     1       7.008  24.590  54.376  1.00  0.00    -0.255 N 
HETATM    8  C   UNL     1       7.600  23.691  53.484  1.00  0.00     0.267 A 
HETATM    9  O   UNL     1       7.765  23.892  52.282  1.00  0.00    -0.267 OA
HETATM   10  C   UNL     1       8.076  20.901  55.930  1.00  0.00     0.032 A 
HETATM   11  C   UNL     1       8.701  19.930  55.144  1.00  0.00     0.002 A 
ENDROOT
BRANCH   6  12
HETATM   12  S   UNL     1       6.060  25.384  56.810  1.00  0.00    -0.082 SA
BRANCH  12  13
HETATM   13  C   UNL     1       7.563  26.120  57.528  1.00  0.00     0.185 C 
BRANCH  13  14
HETATM   14  C   UNL     1       7.533  27.646  57.574  1.00  0.00     0.231 C 
HETATM   15  N   UNL     1       6.311  28.205  57.255  1.00  0.00    -0.326 N 
HETATM   16  H   UNL     1       5.563  27.540  57.073  1.00  0.00     0.169 HD
HETATM   17  O   UNL     1       8.563  28.273  57.811  1.00  0.00    -0.272 OA
BRANCH  15  18
HETATM   18  C   UNL     1       5.970  29.566  57.145  1.00  0.00     0.037 A 
HETATM   19  C   UNL     1       5.244  30.099  56.074  1.00  0.00     0.061 A 
HETATM   20  C   UNL     1       4.962  31.446  56.121  1.00  0.00     0.065 A 
HETATM   21  C   UNL     1       5.380  32.264  57.168  1.00  0.00     0.063 A 
HETATM   22  N   UNL     1       4.248  32.234  55.224  1.00  0.00    -0.306 N 
HETATM   23  N   UNL     1       4.931  33.553  56.913  1.00  0.00    -0.307 N 
HETATM   24  C   UNL     1       6.102  31.778  58.227  1.00  0.00     0.034 A 
HETATM   25  C   UNL     1       4.218  33.551  55.704  1.00  0.00     0.325 A 
HETATM   26  H   UNL     1       5.068  34.375  57.478  1.00  0.00     0.170 HD
HETATM   27  O   UNL     1       3.678  34.507  55.179  1.00  0.00    -0.247 OA
HETATM   28  C   UNL     1       6.391  30.408  58.210  1.00  0.00     0.032 A 
HETATM   29  H   UNL     1       3.811  31.936  54.367  1.00  0.00     0.170 HD
ENDBRANCH  15  18
ENDBRANCH  13  14
ENDBRANCH  12  13
ENDBRANCH   6  12
BRANCH   7  30
HETATM   30  C   UNL     1       6.653  25.869  53.852  1.00  0.00     0.066 A 
HETATM   31  C   UNL     1       5.409  26.086  53.234  1.00  0.00     0.061 A 
HETATM   32 CL   UNL     1       4.294  24.796  52.945  1.00  0.00    -0.082 Cl
HETATM   33  C   UNL     1       5.069  27.359  52.771  1.00  0.00     0.026 A 
HETATM   34  C   UNL     1       5.963  28.420  52.920  1.00  0.00     0.002 A 
HETATM   35  C   UNL     1       7.198  28.212  53.531  1.00  0.00     0.002 A 
HETATM   36  C   UNL     1       7.545  26.943  53.999  1.00  0.00     0.032 A 
ENDBRANCH   7  30
TORSDOF 5
ENDMDL
MODEL 4
REMARK VINA RESULT:      -9.9      3.101      5.946
REMARK  5 active torsions:
REMARK  status: ('A' for Active; 'I' for Inactive)
REMARK    1  A    between atoms: C_6  and  S_7 
REMARK    2  A    between atoms: S_7  and  C_8 
REMARK    3  A    between atoms: C_8  and  C_9 
REMARK       I    between atoms: C_9  and  N_10 
REMARK    4  A    between atoms: N_10  and  C_11 
REMARK    5  A    between atoms: N_22  and  C_23 
ROOT
HETATM    1  C   UNL     1       9.657  31.773  59.788  1.00  0.00     0.001 A 
HETATM    2  C   UNL     1       9.754  30.725  58.873  1.00  0.00     0.019 A 
HETATM    3  C   UNL     1       8.602  30.261  58.227  1.00  0.00     0.061 A 
HETATM    4  C   UNL     1       7.359  30.831  58.485  1.00  0.00     0.075 A 
HETATM    5  N   UNL     1       6.190  30.396  57.853  1.00  0.00    -0.223 NA
HETATM    6  C   UNL     1       6.272  29.422  57.006  1.00  0.00     0.177 A 
HETATM    7  N   UNL     1       7.455  28.783  56.661  1.00  0.00    -0.255 N 
HETATM    8  C   UNL     1       8.662  29.145  57.266  1.00  0.00     0.267 A 
HETATM    9  O   UNL     1       9.741  28.580  57.088  1.00  0.00    -0.267 OA
HETATM   10  C   UNL     1       7.272  31.878  59.408  1.00  0.00     0.032 A 
HETATM   11  C   UNL     1       8.417  32.348  60.057  1.00  0.00     0.002 A 
ENDROOT
BRANCH   6  12
HETATM   12  S   UNL     1       4.769  28.974  56.209  1.00  0.00    -0.082 SA
BRANCH  12  13
HETATM   13  C   UNL     1       4.419  30.504  55.285  1.00  0.00     0.185 C 
BRANCH  13  14
HETATM   14  C   UNL     1       4.081  30.265  53.816  1.00  0.00     0.231 C 
HETATM   15  N   UNL     1       4.916  29.373  53.173  1.00  0.00    -0.326 N 
HETATM   16  H   UNL     1       5.628  28.944  53.760  1.00  0.00     0.169 HD
HETATM   17  O   UNL     1       3.172  30.900  53.284  1.00  0.00    -0.272 OA
BRANCH  15  18
HETATM   18  C   UNL     1       4.914  28.987  51.819  1.00  0.00     0.037 A 
HETATM   19  C   UNL     1       4.367  27.786  51.356  1.00  0.00     0.061 A 
HETATM   20  C   UNL     1       4.414  27.561  49.998  1.00  0.00     0.065 A 
HETATM   21  C   UNL     1       4.986  28.466  49.108  1.00  0.00     0.063 A 
HETATM   22  N   UNL     1       3.936  26.483  49.261  1.00  0.00    -0.306 N 
HETATM   23  N   UNL     1       4.867  27.944  47.827  1.00  0.00    -0.307 N 
HETATM   24  C   UNL     1       5.542  29.648  49.528  1.00  0.00     0.034 A 
HETATM   25  C   UNL     1       4.209  26.708  47.904  1.00  0.00     0.325 A 
HETATM   26  H   UNL     1       5.181  28.356  46.964  1.00  0.00     0.170 HD
HETATM   27  O   UNL     1       3.929  25.976  46.972  1.00  0.00    -0.247 OA
HETATM   28  C   UNL     1       5.494  29.906  50.904  1.00  0.00     0.032 A 
HETATM   29  H   UNL     1       3.464  25.667  49.614  1.00  0.00     0.170 HD
ENDBRANCH  15  18
ENDBRANCH  13  14
ENDBRANCH  12  13
ENDBRANCH   6  12
BRANCH   7  30
HETATM   30  C   UNL     1       7.513  27.729  55.701  1.00  0.00     0.066 A 
HETATM   31  C   UNL     1       7.348  26.385  56.079  1.00  0.00     0.061 A 
HETATM   32 CL   UNL     1       7.206  25.913  57.737  1.00  0.00    -0.082 Cl
HETATM   33  C   UNL     1       7.364  25.377  55.112  1.00  0.00     0.026 A 
HETATM   34  C   UNL     1       7.543  25.700  53.767  1.00  0.00     0.002 A 
HETATM   35  C   UNL     1       7.708  27.030  53.384  1.00  0.00     0.002 A 
HETATM   36  C   UNL     1       7.691  28.044  54.344  1.00  0.00     0.032 A 
ENDBRANCH   7  30
TORSDOF 5
ENDMDL
MODEL 5
REMARK VINA RESULT:      -9.7      2.161      4.945
REMARK  5 active torsions:
REMARK  status: ('A' for Active; 'I' for Inactive)
REMARK    1  A    between atoms: C_6  and  S_7 
REMARK    2  A    between atoms: S_7  and  C_8 
REMARK    3  A    between atoms: C_8  and  C_9 
REMARK       I    between atoms: C_9  and  N_10 
REMARK    4  A    between atoms: N_10  and  C_11 
REMARK    5  A    between atoms: N_22  and  C_23 
ROOT
HETATM    1  C   UNL     1       7.599  30.320  58.644  1.00  0.00     0.001 A 
HETATM    2  C   UNL     1       7.936  29.138  57.987  1.00  0.00     0.019 A 
HETATM    3  C   UNL     1       7.209  28.740  56.860  1.00  0.00     0.061 A 
HETATM    4  C   UNL     1       6.151  29.508  56.383  1.00  0.00     0.075 A 
HETATM    5  N   UNL     1       5.408  29.143  55.256  1.00  0.00    -0.223 NA
HETATM    6  C   UNL     1       5.713  28.045  54.644  1.00  0.00     0.177 A 
HETATM    7  N   UNL     1       6.751  27.203  55.020  1.00  0.00    -0.255 N 
HETATM    8  C   UNL     1       7.526  27.487  56.148  1.00  0.00     0.267 A 
HETATM    9  O   UNL     1       8.406  26.759  56.605  1.00  0.00    -0.267 OA
HETATM   10  C   UNL     1       5.818  30.690  57.052  1.00  0.00     0.032 A 
HETATM   11  C   UNL     1       6.539  31.096  58.177  1.00  0.00     0.002 A 
ENDROOT
BRANCH   6  12
HETATM   12  S   UNL     1       4.772  27.687  53.202  1.00  0.00    -0.082 SA
BRANCH  12  13
HETATM   13  C   UNL     1       5.658  28.697  51.973  1.00  0.00     0.185 C 
BRANCH  13  14
HETATM   14  C   UNL     1       5.068  28.604  50.568  1.00  0.00     0.231 C 
HETATM   15  N   UNL     1       3.898  27.876  50.484  1.00  0.00    -0.326 N 
HETATM   16  H   UNL     1       3.540  27.525  51.370  1.00  0.00     0.169 HD
HETATM   17  O   UNL     1       5.669  29.098  49.616  1.00  0.00    -0.272 OA
BRANCH  15  18
HETATM   18  C   UNL     1       3.144  27.552  49.340  1.00  0.00     0.037 A 
HETATM   19  C   UNL     1       1.949  28.191  48.993  1.00  0.00     0.061 A 
HETATM   20  C   UNL     1       1.340  27.784  47.827  1.00  0.00     0.065 A 
HETATM   21  C   UNL     1       1.863  26.777  47.020  1.00  0.00     0.063 A 
HETATM   22  N   UNL     1       0.173  28.247  47.227  1.00  0.00    -0.306 N 
HETATM   23  N   UNL     1       1.018  26.615  45.930  1.00  0.00    -0.307 N 
HETATM   24  C   UNL     1       3.026  26.122  47.334  1.00  0.00     0.034 A 
HETATM   25  C   UNL     1      -0.041  27.529  46.042  1.00  0.00     0.325 A 
HETATM   26  H   UNL     1       1.117  25.967  45.166  1.00  0.00     0.170 HD
HETATM   27  O   UNL     1      -0.962  27.671  45.259  1.00  0.00    -0.247 OA
HETATM   28  C   UNL     1       3.672  26.527  48.510  1.00  0.00     0.032 A 
HETATM   29  H   UNL     1      -0.434  28.977  47.563  1.00  0.00     0.170 HD
ENDBRANCH  15  18
ENDBRANCH  13  14
ENDBRANCH  12  13
ENDBRANCH   6  12
BRANCH   7  30
HETATM   30  C   UNL     1       7.079  26.013  54.305  1.00  0.00     0.066 A 
HETATM   31  C   UNL     1       6.659  24.749  54.757  1.00  0.00     0.061 A 
HETATM   32 CL   UNL     1       5.846  24.543  56.270  1.00  0.00    -0.082 Cl
HETATM   33  C   UNL     1       6.955  23.604  54.013  1.00  0.00     0.026 A 
HETATM   34  C   UNL     1       7.667  23.710  52.818  1.00  0.00     0.002 A 
HETATM   35  C   UNL     1       8.087  24.959  52.364  1.00  0.00     0.002 A 
HETATM   36  C   UNL     1       7.794  26.109  53.100  1.00  0.00     0.032 A 
ENDBRANCH   7  30
TORSDOF 5
ENDMDL
MODEL 6
REMARK VINA RESULT:      -9.7      4.726      9.869
REMARK  5 active torsions:
REMARK  status: ('A' for Active; 'I' for Inactive)
REMARK    1  A    between atoms: C_6  and  S_7 
REMARK    2  A    between atoms: S_7  and  C_8 
REMARK    3  A    between atoms: C_8  and  C_9 
REMARK       I    between atoms: C_9  and  N_10 
REMARK    4  A    between atoms: N_10  and  C_11 
REMARK    5  A    between atoms: N_22  and  C_23 
ROOT
HETATM    1  C   UNL     1       7.725  22.524  55.696  1.00  0.00     0.001 A 
HETATM    2  C   UNL     1       6.945  23.399  54.940  1.00  0.00     0.019 A 
HETATM    3  C   UNL     1       7.020  24.776  55.179  1.00  0.00     0.061 A 
HETATM    4  C   UNL     1       7.864  25.286  56.161  1.00  0.00     0.075 A 
HETATM    5  N   UNL     1       7.969  26.657  56.419  1.00  0.00    -0.223 NA
HETATM    6  C   UNL     1       7.245  27.474  55.725  1.00  0.00     0.177 A 
HETATM    7  N   UNL     1       6.376  27.084  54.715  1.00  0.00    -0.255 N 
HETATM    8  C   UNL     1       6.199  25.730  54.411  1.00  0.00     0.267 A 
HETATM    9  O   UNL     1       5.391  25.287  53.596  1.00  0.00    -0.267 OA
HETATM   10  C   UNL     1       8.638  24.401  56.915  1.00  0.00     0.032 A 
HETATM   11  C   UNL     1       8.570  23.025  56.684  1.00  0.00     0.002 A 
ENDROOT
BRANCH   6  12
HETATM   12  S   UNL     1       7.478  29.183  56.069  1.00  0.00    -0.082 SA
BRANCH  12  13
HETATM   13  C   UNL     1       9.185  29.161  56.701  1.00  0.00     0.185 C 
BRANCH  13  14
HETATM   14  C   UNL     1       9.399  30.066  57.911  1.00  0.00     0.231 C 
HETATM   15  N   UNL     1       8.366  30.053  58.827  1.00  0.00    -0.326 N 
HETATM   16  H   UNL     1       7.606  29.411  58.615  1.00  0.00     0.169 HD
HETATM   17  O   UNL     1      10.399  30.779  57.975  1.00  0.00    -0.272 OA
BRANCH  15  18
HETATM   18  C   UNL     1       8.226  30.811  60.004  1.00  0.00     0.037 A 
HETATM   19  C   UNL     1       7.256  31.804  60.176  1.00  0.00     0.061 A 
HETATM   20  C   UNL     1       7.224  32.442  61.397  1.00  0.00     0.065 A 
HETATM   21  C   UNL     1       8.114  32.138  62.424  1.00  0.00     0.063 A 
HETATM   22  N   UNL     1       6.368  33.438  61.855  1.00  0.00    -0.306 N 
HETATM   23  N   UNL     1       7.811  32.950  63.509  1.00  0.00    -0.307 N 
HETATM   24  C   UNL     1       9.084  31.179  62.287  1.00  0.00     0.034 A 
HETATM   25  C   UNL     1       6.720  33.765  63.172  1.00  0.00     0.325 A 
HETATM   26  H   UNL     1       8.270  32.974  64.405  1.00  0.00     0.170 HD
HETATM   27  O   UNL     1       6.184  34.591  63.887  1.00  0.00    -0.247 OA
HETATM   28  C   UNL     1       9.129  30.507  61.059  1.00  0.00     0.032 A 
HETATM   29  H   UNL     1       5.611  33.868  61.349  1.00  0.00     0.170 HD
ENDBRANCH  15  18
ENDBRANCH  13  14
ENDBRANCH  12  13
ENDBRANCH   6  12
BRANCH   7  30
HETATM   30  C   UNL     1       5.613  28.014  53.949  1.00  0.00     0.066 A 
HETATM   31  C   UNL     1       4.503  28.679  54.500  1.00  0.00     0.061 A 
HETATM   32 CL   UNL     1       3.910  28.310  56.083  1.00  0.00    -0.082 Cl
HETATM   33  C   UNL     1       3.801  29.619  53.743  1.00  0.00     0.026 A 
HETATM   34  C   UNL     1       4.199  29.904  52.436  1.00  0.00     0.002 A 
HETATM   35  C   UNL     1       5.298  29.249  51.882  1.00  0.00     0.002 A 
HETATM   36  C   UNL     1       6.007  28.309  52.634  1.00  0.00     0.032 A 
ENDBRANCH   7  30
TORSDOF 5
ENDMDL
MODEL 7
REMARK VINA RESULT:      -9.6      5.480      9.056
REMARK  5 active torsions:
REMARK  status: ('A' for Active; 'I' for Inactive)
REMARK    1  A    between atoms: C_6  and  S_7 
REMARK    2  A    between atoms: S_7  and  C_8 
REMARK    3  A    between atoms: C_8  and  C_9 
REMARK       I    between atoms: C_9  and  N_10 
REMARK    4  A    between atoms: N_10  and  C_11 
REMARK    5  A    between atoms: N_22  and  C_23 
ROOT
HETATM    1  C   UNL     1       7.636  32.784  62.605  1.00  0.00     0.001 A 
HETATM    2  C   UNL     1       6.711  33.062  61.599  1.00  0.00     0.019 A 
HETATM    3  C   UNL     1       6.738  32.326  60.409  1.00  0.00     0.061 A 
HETATM    4  C   UNL     1       7.677  31.317  60.214  1.00  0.00     0.075 A 
HETATM    5  N   UNL     1       7.728  30.558  59.041  1.00  0.00    -0.223 NA
HETATM    6  C   UNL     1       6.876  30.814  58.102  1.00  0.00     0.177 A 
HETATM    7  N   UNL     1       5.889  31.787  58.186  1.00  0.00    -0.255 N 
HETATM    8  C   UNL     1       5.787  32.603  59.317  1.00  0.00     0.267 A 
HETATM    9  O   UNL     1       5.004  33.543  59.444  1.00  0.00    -0.267 OA
HETATM   10  C   UNL     1       8.603  31.049  61.227  1.00  0.00     0.032 A 
HETATM   11  C   UNL     1       8.583  31.779  62.418  1.00  0.00     0.002 A 
ENDROOT
BRANCH   6  12
HETATM   12  S   UNL     1       6.966  29.777  56.684  1.00  0.00    -0.082 SA
BRANCH  12  13
HETATM   13  C   UNL     1       6.493  28.178  57.416  1.00  0.00     0.185 C 
BRANCH  13  14
HETATM   14  C   UNL     1       7.320  27.003  56.901  1.00  0.00     0.231 C 
HETATM   15  N   UNL     1       6.723  26.283  55.886  1.00  0.00    -0.326 N 
HETATM   16  H   UNL     1       5.825  26.643  55.567  1.00  0.00     0.169 HD
HETATM   17  O   UNL     1       8.392  26.726  57.435  1.00  0.00    -0.272 OA
BRANCH  15  18
HETATM   18  C   UNL     1       7.187  25.120  55.243  1.00  0.00     0.037 A 
HETATM   19  C   UNL     1       7.313  23.881  55.879  1.00  0.00     0.061 A 
HETATM   20  C   UNL     1       7.753  22.827  55.109  1.00  0.00     0.065 A 
HETATM   21  C   UNL     1       8.078  22.966  53.763  1.00  0.00     0.063 A 
HETATM   22  N   UNL     1       7.949  21.494  55.459  1.00  0.00    -0.306 N 
HETATM   23  N   UNL     1       8.479  21.725  53.286  1.00  0.00    -0.307 N 
HETATM   24  C   UNL     1       7.977  24.168  53.110  1.00  0.00     0.034 A 
HETATM   25  C   UNL     1       8.401  20.794  54.332  1.00  0.00     0.325 A 
HETATM   26  H   UNL     1       8.777  21.492  52.352  1.00  0.00     0.170 HD
HETATM   27  O   UNL     1       8.670  19.608  54.269  1.00  0.00    -0.247 OA
HETATM   28  C   UNL     1       7.518  25.253  53.867  1.00  0.00     0.032 A 
HETATM   29  H   UNL     1       7.797  21.075  56.361  1.00  0.00     0.170 HD
ENDBRANCH  15  18
ENDBRANCH  13  14
ENDBRANCH  12  13
ENDBRANCH   6  12
BRANCH   7  30
HETATM   30  C   UNL     1       4.946  32.024  57.142  1.00  0.00     0.066 A 
HETATM   31  C   UNL     1       3.689  31.393  57.134  1.00  0.00     0.061 A 
HETATM   32 CL   UNL     1       3.263  30.191  58.303  1.00  0.00    -0.082 Cl
HETATM   33  C   UNL     1       2.767  31.678  56.124  1.00  0.00     0.026 A 
HETATM   34  C   UNL     1       3.089  32.591  55.120  1.00  0.00     0.002 A 
HETATM   35  C   UNL     1       4.333  33.221  55.120  1.00  0.00     0.002 A 
HETATM   36  C   UNL     1       5.260  32.943  56.127  1.00  0.00     0.032 A 
ENDBRANCH   7  30
TORSDOF 5
ENDMDL
MODEL 8
REMARK VINA RESULT:      -9.6      5.900     11.682
REMARK  5 active torsions:
REMARK  status: ('A' for Active; 'I' for Inactive)
REMARK    1  A    between atoms: C_6  and  S_7 
REMARK    2  A    between atoms: S_7  and  C_8 
REMARK    3  A    between atoms: C_8  and  C_9 
REMARK       I    between atoms: C_9  and  N_10 
REMARK    4  A    between atoms: N_10  and  C_11 
REMARK    5  A    between atoms: N_22  and  C_23 
ROOT
HETATM    1  C   UNL     1       2.920  32.659  55.316  1.00  0.00     0.001 A 
HETATM    2  C   UNL     1       3.200  31.314  55.073  1.00  0.00     0.019 A 
HETATM    3  C   UNL     1       4.278  30.703  55.724  1.00  0.00     0.061 A 
HETATM    4  C   UNL     1       5.076  31.418  56.612  1.00  0.00     0.075 A 
HETATM    5  N   UNL     1       6.155  30.835  57.284  1.00  0.00    -0.223 NA
HETATM    6  C   UNL     1       6.423  29.590  57.060  1.00  0.00     0.177 A 
HETATM    7  N   UNL     1       5.694  28.774  56.205  1.00  0.00    -0.255 N 
HETATM    8  C   UNL     1       4.614  29.288  55.480  1.00  0.00     0.267 A 
HETATM    9  O   UNL     1       3.967  28.667  54.638  1.00  0.00    -0.267 OA
HETATM   10  C   UNL     1       4.789  32.766  56.845  1.00  0.00     0.032 A 
HETATM   11  C   UNL     1       3.715  33.385  56.201  1.00  0.00     0.002 A 
ENDROOT
BRANCH   6  12
HETATM   12  S   UNL     1       7.757  28.916  57.988  1.00  0.00    -0.082 SA
BRANCH  12  13
HETATM   13  C   UNL     1       8.942  30.296  57.908  1.00  0.00     0.185 C 
BRANCH  13  14
HETATM   14  C   UNL     1       8.767  31.316  59.030  1.00  0.00     0.231 C 
HETATM   15  N   UNL     1       7.730  31.041  59.898  1.00  0.00    -0.326 N 
HETATM   16  H   UNL     1       7.233  30.171  59.720  1.00  0.00     0.169 HD
HETATM   17  O   UNL     1       9.477  32.319  59.063  1.00  0.00    -0.272 OA
BRANCH  15  18
HETATM   18  C   UNL     1       7.270  31.806  60.987  1.00  0.00     0.037 A 
HETATM   19  C   UNL     1       7.853  31.775  62.258  1.00  0.00     0.061 A 
HETATM   20  C   UNL     1       7.309  32.602  63.215  1.00  0.00     0.065 A 
HETATM   21  C   UNL     1       6.219  33.430  62.957  1.00  0.00     0.063 A 
HETATM   22  N   UNL     1       7.690  32.798  64.538  1.00  0.00    -0.306 N 
HETATM   23  N   UNL     1       5.925  34.129  64.121  1.00  0.00    -0.307 N 
HETATM   24  C   UNL     1       5.615  33.478  61.727  1.00  0.00     0.034 A 
HETATM   25  C   UNL     1       6.837  33.749  65.117  1.00  0.00     0.325 A 
HETATM   26  H   UNL     1       5.194  34.806  64.263  1.00  0.00     0.170 HD
HETATM   27  O   UNL     1       6.880  34.167  66.260  1.00  0.00    -0.247 OA
HETATM   28  C   UNL     1       6.159  32.655  60.732  1.00  0.00     0.032 A 
HETATM   29  H   UNL     1       8.448  32.349  65.025  1.00  0.00     0.170 HD
ENDBRANCH  15  18
ENDBRANCH  13  14
ENDBRANCH  12  13
ENDBRANCH   6  12
BRANCH   7  30
HETATM   30  C   UNL     1       6.000  27.396  56.002  1.00  0.00     0.066 A 
HETATM   31  C   UNL     1       6.981  26.993  55.079  1.00  0.00     0.061 A 
HETATM   32 CL   UNL     1       7.774  28.122  54.036  1.00  0.00    -0.082 Cl
HETATM   33  C   UNL     1       7.294  25.639  54.933  1.00  0.00     0.026 A 
HETATM   34  C   UNL     1       6.634  24.682  55.705  1.00  0.00     0.002 A 
HETATM   35  C   UNL     1       5.660  25.073  56.622  1.00  0.00     0.002 A 
HETATM   36  C   UNL     1       5.343  26.425  56.775  1.00  0.00     0.032 A 
ENDBRANCH   7  30
TORSDOF 5
ENDMDL
MODEL 9
REMARK VINA RESULT:      -9.3      5.443      8.289
REMARK  5 active torsions:
REMARK  status: ('A' for Active; 'I' for Inactive)
REMARK    1  A    between atoms: C_6  and  S_7 
REMARK    2  A    between atoms: S_7  and  C_8 
REMARK    3  A    between atoms: C_8  and  C_9 
REMARK       I    between atoms: C_9  and  N_10 
REMARK    4  A    between atoms: N_10  and  C_11 
REMARK    5  A    between atoms: N_22  and  C_23 
ROOT
HETATM    1  C   UNL     1      11.412  30.306  57.557  1.00  0.00     0.001 A 
HETATM    2  C   UNL     1      10.516  31.118  58.252  1.00  0.00     0.019 A 
HETATM    3  C   UNL     1       9.141  30.882  58.145  1.00  0.00     0.061 A 
HETATM    4  C   UNL     1       8.652  29.846  57.355  1.00  0.00     0.075 A 
HETATM    5  N   UNL     1       7.285  29.578  57.232  1.00  0.00    -0.223 NA
HETATM    6  C   UNL     1       6.449  30.331  57.871  1.00  0.00     0.177 A 
HETATM    7  N   UNL     1       6.817  31.385  58.696  1.00  0.00    -0.255 N 
HETATM    8  C   UNL     1       8.163  31.730  58.853  1.00  0.00     0.267 A 
HETATM    9  O   UNL     1       8.577  32.696  59.490  1.00  0.00    -0.267 OA
HETATM   10  C   UNL     1       9.558  29.041  56.659  1.00  0.00     0.032 A 
HETATM   11  C   UNL     1      10.933  29.268  56.759  1.00  0.00     0.002 A 
ENDROOT
BRANCH   6  12
HETATM   12  S   UNL     1       4.753  29.893  57.713  1.00  0.00    -0.082 SA
BRANCH  12  13
HETATM   13  C   UNL     1       4.796  28.970  56.145  1.00  0.00     0.185 C 
BRANCH  13  14
HETATM   14  C   UNL     1       5.268  27.526  56.299  1.00  0.00     0.231 C 
HETATM   15  N   UNL     1       6.449  27.235  55.646  1.00  0.00    -0.326 N 
HETATM   16  H   UNL     1       6.891  28.023  55.177  1.00  0.00     0.169 HD
HETATM   17  O   UNL     1       4.573  26.715  56.909  1.00  0.00    -0.272 OA
BRANCH  15  18
HETATM   18  C   UNL     1       7.113  25.999  55.539  1.00  0.00     0.037 A 
HETATM   19  C   UNL     1       7.023  25.166  54.419  1.00  0.00     0.061 A 
HETATM   20  C   UNL     1       7.755  23.999  54.450  1.00  0.00     0.065 A 
HETATM   21  C   UNL     1       8.544  23.638  55.538  1.00  0.00     0.063 A 
HETATM   22  N   UNL     1       7.878  23.004  53.485  1.00  0.00    -0.306 N 
HETATM   23  N   UNL     1       9.146  22.420  55.249  1.00  0.00    -0.307 N 
HETATM   24  C   UNL     1       8.647  24.425  56.657  1.00  0.00     0.034 A 
HETATM   25  C   UNL     1       8.743  22.012  53.968  1.00  0.00     0.325 A 
HETATM   26  H   UNL     1       9.775  21.891  55.831  1.00  0.00     0.170 HD
HETATM   27  O   UNL     1       9.083  20.996  53.390  1.00  0.00    -0.247 OA
HETATM   28  C   UNL     1       7.922  25.623  56.645  1.00  0.00     0.032 A 
HETATM   29  H   UNL     1       7.434  22.975  52.582  1.00  0.00     0.170 HD
ENDBRANCH  15  18
ENDBRANCH  13  14
ENDBRANCH  12  13
ENDBRANCH   6  12
BRANCH   7  30
HETATM   30  C   UNL     1       5.869  32.177  59.408  1.00  0.00     0.066 A 
HETATM   31  C   UNL     1       5.045  33.104  58.745  1.00  0.00     0.061 A 
HETATM   32 CL   UNL     1       5.223  33.443  57.058  1.00  0.00    -0.082 Cl
HETATM   33  C   UNL     1       4.093  33.834  59.461  1.00  0.00     0.026 A 
HETATM   34  C   UNL     1       3.955  33.646  60.836  1.00  0.00     0.002 A 
HETATM   35  C   UNL     1       4.769  32.729  61.501  1.00  0.00     0.002 A 
HETATM   36  C   UNL     1       5.722  31.994  60.793  1.00  0.00     0.032 A 
ENDBRANCH   7  30
TORSDOF 5
ENDMDL
MODEL 10
REMARK VINA RESULT:      -9.3      3.702     10.082
REMARK  5 active torsions:
REMARK  status: ('A' for Active; 'I' for Inactive)
REMARK    1  A    between atoms: C_6  and  S_7 
REMARK    2  A    between atoms: S_7  and  C_8 
REMARK    3  A    between atoms: C_8  and  C_9 
REMARK       I    between atoms: C_9  and  N_10 
REMARK    4  A    between atoms: N_10  and  C_11 
REMARK    5  A    between atoms: N_22  and  C_23 
ROOT
HETATM    1  C   UNL     1       6.026  33.918  47.951  1.00  0.00     0.001 A 
HETATM    2  C   UNL     1       5.517  32.703  47.494  1.00  0.00     0.019 A 
HETATM    3  C   UNL     1       5.142  31.719  48.416  1.00  0.00     0.061 A 
HETATM    4  C   UNL     1       5.269  31.935  49.785  1.00  0.00     0.075 A 
HETATM    5  N   UNL     1       4.898  30.977  50.733  1.00  0.00    -0.223 NA
HETATM    6  C   UNL     1       4.429  29.845  50.316  1.00  0.00     0.177 A 
HETATM    7  N   UNL     1       4.246  29.519  48.979  1.00  0.00    -0.255 N 
HETATM    8  C   UNL     1       4.614  30.416  47.971  1.00  0.00     0.267 A 
HETATM    9  O   UNL     1       4.571  30.181  46.764  1.00  0.00    -0.267 OA
HETATM   10  C   UNL     1       5.786  33.155  50.232  1.00  0.00     0.032 A 
HETATM   11  C   UNL     1       6.162  34.143  49.319  1.00  0.00     0.002 A 
ENDROOT
BRANCH   6  12
HETATM   12  S   UNL     1       3.928  28.717  51.569  1.00  0.00    -0.082 SA
BRANCH  12  13
HETATM   13  C   UNL     1       5.552  28.167  52.183  1.00  0.00     0.185 C 
BRANCH  13  14
HETATM   14  C   UNL     1       5.619  26.670  52.472  1.00  0.00     0.231 C 
HETATM   15  N   UNL     1       6.574  26.307  53.401  1.00  0.00    -0.326 N 
HETATM   16  H   UNL     1       7.089  27.079  53.819  1.00  0.00     0.169 HD
HETATM   17  O   UNL     1       4.904  25.890  51.845  1.00  0.00    -0.272 OA
BRANCH  15  18
HETATM   18  C   UNL     1       6.929  25.018  53.838  1.00  0.00     0.037 A 
HETATM   19  C   UNL     1       7.389  24.009  52.985  1.00  0.00     0.061 A 
HETATM   20  C   UNL     1       7.727  22.806  53.565  1.00  0.00     0.065 A 
HETATM   21  C   UNL     1       7.611  22.576  54.933  1.00  0.00     0.063 A 
HETATM   22  N   UNL     1       8.227  21.648  52.979  1.00  0.00    -0.306 N 
HETATM   23  N   UNL     1       8.032  21.277  55.188  1.00  0.00    -0.307 N 
HETATM   24  C   UNL     1       7.154  23.537  55.798  1.00  0.00     0.034 A 
HETATM   25  C   UNL     1       8.425  20.685  53.979  1.00  0.00     0.325 A 
HETATM   26  H   UNL     1       8.071  20.807  56.078  1.00  0.00     0.170 HD
HETATM   27  O   UNL     1       8.856  19.557  53.829  1.00  0.00    -0.247 OA
HETATM   28  C   UNL     1       6.816  24.774  55.234  1.00  0.00     0.032 A 
HETATM   29  H   UNL     1       8.427  21.499  52.004  1.00  0.00     0.170 HD
ENDBRANCH  15  18
ENDBRANCH  13  14
ENDBRANCH  12  13
ENDBRANCH   6  12
BRANCH   7  30
HETATM   30  C   UNL     1       3.699  28.272  48.555  1.00  0.00     0.066 A 
HETATM   31  C   UNL     1       2.322  28.124  48.307  1.00  0.00     0.061 A 
HETATM   32 CL   UNL     1       1.193  29.393  48.634  1.00  0.00    -0.082 Cl
HETATM   33  C   UNL     1       1.819  26.904  47.849  1.00  0.00     0.026 A 
HETATM   34  C   UNL     1       2.681  25.828  47.633  1.00  0.00     0.002 A 
HETATM   35  C   UNL     1       4.047  25.967  47.877  1.00  0.00     0.002 A 
HETATM   36  C   UNL     1       4.558  27.184  48.333  1.00  0.00     0.032 A 
ENDBRANCH   7  30
TORSDOF 5
ENDMDL
