MODEL 1
REMARK VINA RESULT:      -9.8      0.000      0.000
REMARK  5 active torsions:
REMARK  status: ('A' for Active; 'I' for Inactive)
REMARK    1  A    between atoms: O_2  and  C_3 
REMARK    2  A    between atoms: C_7  and  C_8 
REMARK    3  A    between atoms: C_8  and  N_9 
REMARK       I    between atoms: N_9  and  C_10 
REMARK    4  A    between atoms: C_10  and  C_12 
REMARK    5  A    between atoms: C_18  and  C_22 
ROOT
HETATM    1  C   UNL     1       5.218  27.446  54.542  1.00  0.00     0.061 A 
HETATM    2  C   UNL     1       4.326  27.137  53.520  1.00  0.00     0.108 A 
HETATM    3  N   UNL     1       4.573  25.855  53.097  1.00  0.00    -0.349 N 
HETATM    4  H   UNL     1       4.090  25.357  52.364  1.00  0.00     0.167 HD
HETATM    5  C   UNL     1       5.603  25.322  53.817  1.00  0.00     0.139 A 
HETATM    6  N   UNL     1       6.081  24.079  53.637  1.00  0.00    -0.230 NA
HETATM    7  C   UNL     1       7.119  23.756  54.452  1.00  0.00     0.069 A 
HETATM    8  C   UNL     1       7.640  24.633  55.410  1.00  0.00     0.033 A 
HETATM    9  C   UNL     1       7.103  25.916  55.558  1.00  0.00     0.018 A 
HETATM   10  C   UNL     1       6.036  26.280  54.721  1.00  0.00     0.027 A 
ENDROOT
BRANCH   1  11
HETATM   11  C   UNL     1       5.325  28.705  55.279  1.00  0.00     0.254 C 
HETATM   12  N   UNL     1       5.818  28.595  56.558  1.00  0.00    -0.353 N 
HETATM   13  H   UNL     1       6.200  27.717  56.874  1.00  0.00     0.163 HD
HETATM   14  O   UNL     1       5.008  29.784  54.790  1.00  0.00    -0.268 OA
BRANCH  12  15
HETATM   15  C   UNL     1       6.017  29.763  57.379  1.00  0.00     0.161 C 
BRANCH  15  16
HETATM   16  C   UNL     1       7.484  29.995  57.624  1.00  0.00    -0.038 A 
HETATM   17  C   UNL     1       8.440  29.215  56.958  1.00  0.00     0.009 A 
HETATM   18  C   UNL     1       9.799  29.444  57.158  1.00  0.00     0.003 A 
HETATM   19  C   UNL     1      10.212  30.457  58.023  1.00  0.00     0.037 A 
HETATM   20  C   UNL     1       9.276  31.249  58.693  1.00  0.00     0.068 A 
HETATM   21  C   UNL     1       7.914  31.017  58.488  1.00  0.00     0.045 A 
BRANCH  20  22
HETATM   22  O   UNL     1       9.818  32.206  59.506  1.00  0.00    -0.356 OA
HETATM   23  C   UNL     1       9.583  32.075  60.903  1.00  0.00     0.210 C 
ENDBRANCH  20  22
ENDBRANCH  15  16
ENDBRANCH  12  15
ENDBRANCH   1  11
BRANCH   7  24
HETATM   24  C   UNL     1       7.656  22.390  54.257  1.00  0.00    -0.005 A 
HETATM   25  C   UNL     1       7.882  21.847  52.985  1.00  0.00     0.033 A 
HETATM   26  C   UNL     1       8.389  20.559  52.875  1.00  0.00     0.117 A 
HETATM   27  N   UNL     1       8.686  19.774  53.930  1.00  0.00    -0.273 NA
HETATM   28  C   UNL     1       8.455  20.299  55.150  1.00  0.00     0.117 A 
HETATM   29  C   UNL     1       7.952  21.574  55.358  1.00  0.00     0.033 A 
ENDBRANCH   7  24
TORSDOF 5
ENDMDL
MODEL 2
REMARK VINA RESULT:      -9.6      4.049      7.818
REMARK  5 active torsions:
REMARK  status: ('A' for Active; 'I' for Inactive)
REMARK    1  A    between atoms: O_2  and  C_3 
REMARK    2  A    between atoms: C_7  and  C_8 
REMARK    3  A    between atoms: C_8  and  N_9 
REMARK       I    between atoms: N_9  and  C_10 
REMARK    4  A    between atoms: C_10  and  C_12 
REMARK    5  A    between atoms: C_18  and  C_22 
ROOT
HETATM    1  C   UNL     1       5.410  27.222  53.227  1.00  0.00     0.061 A 
HETATM    2  C   UNL     1       4.950  27.427  54.524  1.00  0.00     0.108 A 
HETATM    3  N   UNL     1       5.339  26.364  55.298  1.00  0.00    -0.349 N 
HETATM    4  H   UNL     1       5.146  26.230  56.281  1.00  0.00     0.167 HD
HETATM    5  C   UNL     1       6.040  25.471  54.540  1.00  0.00     0.139 A 
HETATM    6  N   UNL     1       6.556  24.324  55.015  1.00  0.00    -0.230 NA
HETATM    7  C   UNL     1       7.204  23.577  54.084  1.00  0.00     0.069 A 
HETATM    8  C   UNL     1       7.341  23.969  52.747  1.00  0.00     0.033 A 
HETATM    9  C   UNL     1       6.786  25.175  52.307  1.00  0.00     0.018 A 
HETATM   10  C   UNL     1       6.102  25.963  53.246  1.00  0.00     0.027 A 
ENDROOT
BRANCH   1  11
HETATM   11  C   UNL     1       5.219  28.092  52.066  1.00  0.00     0.254 C 
HETATM   12  N   UNL     1       4.053  27.890  51.367  1.00  0.00    -0.353 N 
HETATM   13  H   UNL     1       3.343  27.280  51.744  1.00  0.00     0.163 HD
HETATM   14  O   UNL     1       6.036  28.948  51.743  1.00  0.00    -0.268 OA
BRANCH  12  15
HETATM   15  C   UNL     1       3.718  28.708  50.229  1.00  0.00     0.161 C 
BRANCH  15  16
HETATM   16  C   UNL     1       3.163  27.865  49.113  1.00  0.00    -0.038 A 
HETATM   17  C   UNL     1       3.965  26.889  48.505  1.00  0.00     0.009 A 
HETATM   18  C   UNL     1       3.448  26.086  47.492  1.00  0.00     0.003 A 
HETATM   19  C   UNL     1       2.125  26.250  47.082  1.00  0.00     0.037 A 
HETATM   20  C   UNL     1       1.308  27.213  47.678  1.00  0.00     0.068 A 
HETATM   21  C   UNL     1       1.829  28.016  48.696  1.00  0.00     0.045 A 
BRANCH  20  22
HETATM   22  O   UNL     1       0.034  27.264  47.184  1.00  0.00    -0.356 OA
HETATM   23  C   UNL     1      -0.109  27.529  45.794  1.00  0.00     0.210 C 
ENDBRANCH  20  22
ENDBRANCH  15  16
ENDBRANCH  12  15
ENDBRANCH   1  11
BRANCH   7  24
HETATM   24  C   UNL     1       7.770  22.308  54.595  1.00  0.00    -0.005 A 
HETATM   25  C   UNL     1       8.178  21.271  53.744  1.00  0.00     0.033 A 
HETATM   26  C   UNL     1       8.701  20.108  54.291  1.00  0.00     0.117 A 
HETATM   27  N   UNL     1       8.849  19.898  55.615  1.00  0.00    -0.273 NA
HETATM   28  C   UNL     1       8.444  20.895  56.427  1.00  0.00     0.117 A 
HETATM   29  C   UNL     1       7.910  22.091  55.973  1.00  0.00     0.033 A 
ENDBRANCH   7  24
TORSDOF 5
ENDMDL
MODEL 3
REMARK VINA RESULT:      -9.4      3.583      5.547
REMARK  5 active torsions:
REMARK  status: ('A' for Active; 'I' for Inactive)
REMARK    1  A    between atoms: O_2  and  C_3 
REMARK    2  A    between atoms: C_7  and  C_8 
REMARK    3  A    between atoms: C_8  and  N_9 
REMARK       I    between atoms: N_9  and  C_10 
REMARK    4  A    between atoms: C_10  and  C_12 
REMARK    5  A    between atoms: C_18  and  C_22 
ROOT
HETATM    1  C   UNL     1       7.634  30.509  58.295  1.00  0.00     0.061 A 
HETATM    2  C   UNL     1       9.025  30.537  58.308  1.00  0.00     0.108 A 
HETATM    3  N   UNL     1       9.490  29.351  57.796  1.00  0.00    -0.349 N 
HETATM    4  H   UNL     1      10.456  29.079  57.686  1.00  0.00     0.167 HD
HETATM    5  C   UNL     1       8.438  28.552  57.452  1.00  0.00     0.139 A 
HETATM    6  N   UNL     1       8.569  27.325  56.921  1.00  0.00    -0.230 NA
HETATM    7  C   UNL     1       7.391  26.698  56.666  1.00  0.00     0.069 A 
HETATM    8  C   UNL     1       6.144  27.282  56.916  1.00  0.00     0.033 A 
HETATM    9  C   UNL     1       6.065  28.565  57.467  1.00  0.00     0.018 A 
HETATM   10  C   UNL     1       7.267  29.232  57.751  1.00  0.00     0.027 A 
ENDROOT
BRANCH   1  11
HETATM   11  C   UNL     1       6.719  31.553  58.758  1.00  0.00     0.254 C 
HETATM   12  N   UNL     1       6.594  31.661  60.122  1.00  0.00    -0.353 N 
HETATM   13  H   UNL     1       7.213  31.141  60.725  1.00  0.00     0.163 HD
HETATM   14  O   UNL     1       6.112  32.287  57.984  1.00  0.00    -0.268 OA
BRANCH  12  15
HETATM   15  C   UNL     1       5.760  32.678  60.713  1.00  0.00     0.161 C 
BRANCH  15  16
HETATM   16  C   UNL     1       6.084  32.849  62.172  1.00  0.00    -0.038 A 
HETATM   17  C   UNL     1       7.421  32.911  62.592  1.00  0.00     0.009 A 
HETATM   18  C   UNL     1       7.728  33.099  63.937  1.00  0.00     0.003 A 
HETATM   19  C   UNL     1       6.701  33.231  64.871  1.00  0.00     0.037 A 
HETATM   20  C   UNL     1       5.363  33.178  64.474  1.00  0.00     0.068 A 
HETATM   21  C   UNL     1       5.059  32.991  63.123  1.00  0.00     0.045 A 
BRANCH  20  22
HETATM   22  O   UNL     1       4.461  33.324  65.491  1.00  0.00    -0.356 OA
HETATM   23  C   UNL     1       4.882  34.068  66.627  1.00  0.00     0.210 C 
ENDBRANCH  20  22
ENDBRANCH  15  16
ENDBRANCH  12  15
ENDBRANCH   1  11
BRANCH   7  24
HETATM   24  C   UNL     1       7.525  25.342  56.087  1.00  0.00    -0.005 A 
HETATM   25  C   UNL     1       6.786  24.926  54.971  1.00  0.00     0.033 A 
HETATM   26  C   UNL     1       6.961  23.639  54.479  1.00  0.00     0.117 A 
HETATM   27  N   UNL     1       7.812  22.740  55.012  1.00  0.00    -0.273 NA
HETATM   28  C   UNL     1       8.510  23.143  56.092  1.00  0.00     0.117 A 
HETATM   29  C   UNL     1       8.402  24.406  56.653  1.00  0.00     0.033 A 
ENDBRANCH   7  24
TORSDOF 5
ENDMDL
MODEL 4
REMARK VINA RESULT:      -9.4      3.080      5.487
REMARK  5 active torsions:
REMARK  status: ('A' for Active; 'I' for Inactive)
REMARK    1  A    between atoms: O_2  and  C_3 
REMARK    2  A    between atoms: C_7  and  C_8 
REMARK    3  A    between atoms: C_8  and  N_9 
REMARK       I    between atoms: N_9  and  C_10 
REMARK    4  A    between atoms: C_10  and  C_12 
REMARK    5  A    between atoms: C_18  and  C_22 
ROOT
HETATM    1  C   UNL     1       6.900  30.504  58.334  1.00  0.00     0.061 A 
HETATM    2  C   UNL     1       5.642  30.857  57.854  1.00  0.00     0.108 A 
HETATM    3  N   UNL     1       5.227  29.894  56.970  1.00  0.00    -0.349 N 
HETATM    4  H   UNL     1       4.357  29.880  56.456  1.00  0.00     0.167 HD
HETATM    5  C   UNL     1       6.181  28.924  56.860  1.00  0.00     0.139 A 
HETATM    6  N   UNL     1       6.067  27.843  56.070  1.00  0.00    -0.230 NA
HETATM    7  C   UNL     1       7.140  27.012  56.103  1.00  0.00     0.069 A 
HETATM    8  C   UNL     1       8.265  27.245  56.902  1.00  0.00     0.033 A 
HETATM    9  C   UNL     1       8.331  28.385  57.710  1.00  0.00     0.018 A 
HETATM   10  C   UNL     1       7.239  29.268  57.688  1.00  0.00     0.027 A 
ENDROOT
BRANCH   1  11
HETATM   11  C   UNL     1       7.728  31.243  59.288  1.00  0.00     0.254 C 
HETATM   12  N   UNL     1       7.592  30.860  60.601  1.00  0.00    -0.353 N 
HETATM   13  H   UNL     1       7.061  30.033  60.830  1.00  0.00     0.163 HD
HETATM   14  O   UNL     1       8.497  32.133  58.941  1.00  0.00    -0.268 OA
BRANCH  12  15
HETATM   15  C   UNL     1       8.382  31.474  61.639  1.00  0.00     0.161 C 
BRANCH  15  16
HETATM   16  C   UNL     1       7.497  32.143  62.655  1.00  0.00    -0.038 A 
HETATM   17  C   UNL     1       8.060  32.747  63.789  1.00  0.00     0.009 A 
HETATM   18  C   UNL     1       7.249  33.393  64.718  1.00  0.00     0.003 A 
HETATM   19  C   UNL     1       5.870  33.444  64.519  1.00  0.00     0.037 A 
HETATM   20  C   UNL     1       5.289  32.855  63.394  1.00  0.00     0.068 A 
HETATM   21  C   UNL     1       6.106  32.208  62.462  1.00  0.00     0.045 A 
BRANCH  20  22
HETATM   22  O   UNL     1       3.929  32.982  63.322  1.00  0.00    -0.356 OA
HETATM   23  C   UNL     1       3.376  34.230  63.719  1.00  0.00     0.210 C 
ENDBRANCH  20  22
ENDBRANCH  15  16
ENDBRANCH  12  15
ENDBRANCH   1  11
BRANCH   7  24
HETATM   24  C   UNL     1       7.027  25.821  55.230  1.00  0.00    -0.005 A 
HETATM   25  C   UNL     1       7.844  24.693  55.389  1.00  0.00     0.033 A 
HETATM   26  C   UNL     1       7.684  23.610  54.535  1.00  0.00     0.117 A 
HETATM   27  N   UNL     1       6.778  23.566  53.538  1.00  0.00    -0.273 NA
HETATM   28  C   UNL     1       6.004  24.659  53.383  1.00  0.00     0.117 A 
HETATM   29  C   UNL     1       6.091  25.785  54.186  1.00  0.00     0.033 A 
ENDBRANCH   7  24
TORSDOF 5
ENDMDL
MODEL 5
REMARK VINA RESULT:      -9.2      3.341      6.761
REMARK  5 active torsions:
REMARK  status: ('A' for Active; 'I' for Inactive)
REMARK    1  A    between atoms: O_2  and  C_3 
REMARK    2  A    between atoms: C_7  and  C_8 
REMARK    3  A    between atoms: C_8  and  N_9 
REMARK       I    between atoms: N_9  and  C_10 
REMARK    4  A    between atoms: C_10  and  C_12 
REMARK    5  A    between atoms: C_18  and  C_22 
ROOT
HETATM    1  C   UNL     1       6.014  27.605  54.248  1.00  0.00     0.061 A 
HETATM    2  C   UNL     1       6.523  27.815  55.526  1.00  0.00     0.108 A 
HETATM    3  N   UNL     1       7.121  26.656  55.953  1.00  0.00    -0.349 N 
HETATM    4  H   UNL     1       7.573  26.503  56.843  1.00  0.00     0.167 HD
HETATM    5  C   UNL     1       7.013  25.697  54.989  1.00  0.00     0.139 A 
HETATM    6  N   UNL     1       7.502  24.451  55.110  1.00  0.00    -0.230 NA
HETATM    7  C   UNL     1       7.271  23.654  54.034  1.00  0.00     0.069 A 
HETATM    8  C   UNL     1       6.598  24.091  52.888  1.00  0.00     0.033 A 
HETATM    9  C   UNL     1       6.112  25.401  52.813  1.00  0.00     0.018 A 
HETATM   10  C   UNL     1       6.328  26.244  53.915  1.00  0.00     0.027 A 
ENDROOT
BRANCH   1  11
HETATM   11  C   UNL     1       5.288  28.560  53.411  1.00  0.00     0.254 C 
HETATM   12  N   UNL     1       5.848  28.804  52.180  1.00  0.00    -0.353 N 
HETATM   13  H   UNL     1       6.619  28.239  51.859  1.00  0.00     0.163 HD
HETATM   14  O   UNL     1       4.248  29.099  53.776  1.00  0.00    -0.268 OA
BRANCH  12  15
HETATM   15  C   UNL     1       5.211  29.690  51.237  1.00  0.00     0.161 C 
BRANCH  15  16
HETATM   16  C   UNL     1       4.896  28.965  49.957  1.00  0.00    -0.038 A 
HETATM   17  C   UNL     1       5.122  29.590  48.722  1.00  0.00     0.009 A 
HETATM   18  C   UNL     1       4.861  28.914  47.533  1.00  0.00     0.003 A 
HETATM   19  C   UNL     1       4.374  27.607  47.570  1.00  0.00     0.037 A 
HETATM   20  C   UNL     1       4.146  26.965  48.789  1.00  0.00     0.068 A 
HETATM   21  C   UNL     1       4.412  27.645  49.980  1.00  0.00     0.045 A 
BRANCH  20  22
HETATM   22  O   UNL     1       3.673  25.687  48.680  1.00  0.00    -0.356 OA
HETATM   23  C   UNL     1       2.975  25.356  47.485  1.00  0.00     0.210 C 
ENDBRANCH  20  22
ENDBRANCH  15  16
ENDBRANCH  12  15
ENDBRANCH   1  11
BRANCH   7  24
HETATM   24  C   UNL     1       7.800  22.277  54.161  1.00  0.00    -0.005 A 
HETATM   25  C   UNL     1       8.158  21.504  53.047  1.00  0.00     0.033 A 
HETATM   26  C   UNL     1       8.647  20.219  53.238  1.00  0.00     0.117 A 
HETATM   27  N   UNL     1       8.807  19.647  54.448  1.00  0.00    -0.273 NA
HETATM   28  C   UNL     1       8.449  20.391  55.514  1.00  0.00     0.117 A 
HETATM   29  C   UNL     1       7.951  21.681  55.421  1.00  0.00     0.033 A 
ENDBRANCH   7  24
TORSDOF 5
ENDMDL
MODEL 6
REMARK VINA RESULT:      -9.1      1.237      2.098
REMARK  5 active torsions:
REMARK  status: ('A' for Active; 'I' for Inactive)
REMARK    1  A    between atoms: O_2  and  C_3 
REMARK    2  A    between atoms: C_7  and  C_8 
REMARK    3  A    between atoms: C_8  and  N_9 
REMARK       I    between atoms: N_9  and  C_10 
REMARK    4  A    between atoms: C_10  and  C_12 
REMARK    5  A    between atoms: C_18  and  C_22 
ROOT
HETATM    1  C   UNL     1       5.370  27.268  53.488  1.00  0.00     0.061 A 
HETATM    2  C   UNL     1       5.484  27.193  52.104  1.00  0.00     0.108 A 
HETATM    3  N   UNL     1       6.054  25.989  51.778  1.00  0.00    -0.349 N 
HETATM    4  H   UNL     1       6.268  25.653  50.850  1.00  0.00     0.167 HD
HETATM    5  C   UNL     1       6.316  25.278  52.913  1.00  0.00     0.139 A 
HETATM    6  N   UNL     1       6.875  24.056  52.923  1.00  0.00    -0.230 NA
HETATM    7  C   UNL     1       7.058  23.536  54.165  1.00  0.00     0.069 A 
HETATM    8  C   UNL     1       6.684  24.203  55.337  1.00  0.00     0.033 A 
HETATM    9  C   UNL     1       6.102  25.474  55.269  1.00  0.00     0.018 A 
HETATM   10  C   UNL     1       5.910  26.040  53.999  1.00  0.00     0.027 A 
ENDROOT
BRANCH   1  11
HETATM   11  C   UNL     1       4.829  28.375  54.278  1.00  0.00     0.254 C 
HETATM   12  N   UNL     1       5.682  28.892  55.224  1.00  0.00    -0.353 N 
HETATM   13  H   UNL     1       6.648  28.600  55.240  1.00  0.00     0.163 HD
HETATM   14  O   UNL     1       3.698  28.818  54.104  1.00  0.00    -0.268 OA
BRANCH  12  15
HETATM   15  C   UNL     1       5.293  30.014  56.040  1.00  0.00     0.161 C 
BRANCH  15  16
HETATM   16  C   UNL     1       6.381  30.361  57.021  1.00  0.00    -0.038 A 
HETATM   17  C   UNL     1       6.109  31.215  58.099  1.00  0.00     0.009 A 
HETATM   18  C   UNL     1       7.103  31.516  59.026  1.00  0.00     0.003 A 
HETATM   19  C   UNL     1       8.375  30.962  58.884  1.00  0.00     0.037 A 
HETATM   20  C   UNL     1       8.666  30.104  57.821  1.00  0.00     0.068 A 
HETATM   21  C   UNL     1       7.665  29.803  56.893  1.00  0.00     0.045 A 
BRANCH  20  22
HETATM   22  O   UNL     1       9.949  29.631  57.805  1.00  0.00    -0.356 OA
HETATM   23  C   UNL     1      10.625  29.641  56.554  1.00  0.00     0.210 C 
ENDBRANCH  20  22
ENDBRANCH  15  16
ENDBRANCH  12  15
ENDBRANCH   1  11
BRANCH   7  24
HETATM   24  C   UNL     1       7.680  22.193  54.187  1.00  0.00    -0.005 A 
HETATM   25  C   UNL     1       7.902  21.488  55.378  1.00  0.00     0.033 A 
HETATM   26  C   UNL     1       8.489  20.231  55.326  1.00  0.00     0.117 A 
HETATM   27  N   UNL     1       8.871  19.625  54.184  1.00  0.00    -0.273 NA
HETATM   28  C   UNL     1       8.665  20.314  53.044  1.00  0.00     0.117 A 
HETATM   29  C   UNL     1       8.086  21.572  52.997  1.00  0.00     0.033 A 
ENDBRANCH   7  24
TORSDOF 5
ENDMDL
MODEL 7
REMARK VINA RESULT:      -9.1      2.665      8.472
REMARK  5 active torsions:
REMARK  status: ('A' for Active; 'I' for Inactive)
REMARK    1  A    between atoms: O_2  and  C_3 
REMARK    2  A    between atoms: C_7  and  C_8 
REMARK    3  A    between atoms: C_8  and  N_9 
REMARK       I    between atoms: N_9  and  C_10 
REMARK    4  A    between atoms: C_10  and  C_12 
REMARK    5  A    between atoms: C_18  and  C_22 
ROOT
HETATM    1  C   UNL     1       6.089  28.552  54.982  1.00  0.00     0.061 A 
HETATM    2  C   UNL     1       4.765  28.875  55.258  1.00  0.00     0.108 A 
HETATM    3  N   UNL     1       4.721  29.555  56.450  1.00  0.00    -0.349 N 
HETATM    4  H   UNL     1       3.897  29.913  56.911  1.00  0.00     0.167 HD
HETATM    5  C   UNL     1       5.982  29.681  56.957  1.00  0.00     0.139 A 
HETATM    6  N   UNL     1       6.268  30.300  58.115  1.00  0.00    -0.230 NA
HETATM    7  C   UNL     1       7.587  30.298  58.438  1.00  0.00     0.069 A 
HETATM    8  C   UNL     1       8.572  29.718  57.631  1.00  0.00     0.033 A 
HETATM    9  C   UNL     1       8.220  29.088  56.432  1.00  0.00     0.018 A 
HETATM   10  C   UNL     1       6.861  29.066  56.078  1.00  0.00     0.027 A 
ENDROOT
BRANCH   1  11
HETATM   11  C   UNL     1       6.604  27.820  53.825  1.00  0.00     0.254 C 
HETATM   12  N   UNL     1       7.195  26.612  54.110  1.00  0.00    -0.353 N 
HETATM   13  H   UNL     1       7.129  26.229  55.041  1.00  0.00     0.163 HD
HETATM   14  O   UNL     1       6.507  28.247  52.679  1.00  0.00    -0.268 OA
BRANCH  12  15
HETATM   15  C   UNL     1       7.704  25.767  53.059  1.00  0.00     0.161 C 
BRANCH  15  16
HETATM   16  C   UNL     1       7.840  24.347  53.537  1.00  0.00    -0.038 A 
HETATM   17  C   UNL     1       7.737  23.286  52.626  1.00  0.00     0.009 A 
HETATM   18  C   UNL     1       7.891  21.971  53.056  1.00  0.00     0.003 A 
HETATM   19  C   UNL     1       8.152  21.707  54.401  1.00  0.00     0.037 A 
HETATM   20  C   UNL     1       8.263  22.749  55.324  1.00  0.00     0.068 A 
HETATM   21  C   UNL     1       8.110  24.068  54.888  1.00  0.00     0.045 A 
BRANCH  20  22
HETATM   22  O   UNL     1       8.524  22.350  56.606  1.00  0.00    -0.356 OA
HETATM   23  C   UNL     1       8.408  20.961  56.886  1.00  0.00     0.210 C 
ENDBRANCH  20  22
ENDBRANCH  15  16
ENDBRANCH  12  15
ENDBRANCH   1  11
BRANCH   7  24
HETATM   24  C   UNL     1       7.912  30.972  59.716  1.00  0.00    -0.005 A 
HETATM   25  C   UNL     1       7.137  32.021  60.229  1.00  0.00     0.033 A 
HETATM   26  C   UNL     1       7.498  32.608  61.434  1.00  0.00     0.117 A 
HETATM   27  N   UNL     1       8.568  32.233  62.163  1.00  0.00    -0.273 NA
HETATM   28  C   UNL     1       9.315  31.231  61.658  1.00  0.00     0.117 A 
HETATM   29  C   UNL     1       9.033  30.586  60.464  1.00  0.00     0.033 A 
ENDBRANCH   7  24
TORSDOF 5
ENDMDL
MODEL 8
REMARK VINA RESULT:      -9.0      3.376      8.736
REMARK  5 active torsions:
REMARK  status: ('A' for Active; 'I' for Inactive)
REMARK    1  A    between atoms: O_2  and  C_3 
REMARK    2  A    between atoms: C_7  and  C_8 
REMARK    3  A    between atoms: C_8  and  N_9 
REMARK       I    between atoms: N_9  and  C_10 
REMARK    4  A    between atoms: C_10  and  C_12 
REMARK    5  A    between atoms: C_18  and  C_22 
ROOT
HETATM    1  C   UNL     1       7.126  25.445  55.667  1.00  0.00     0.061 A 
HETATM    2  C   UNL     1       7.148  24.734  56.863  1.00  0.00     0.108 A 
HETATM    3  N   UNL     1       7.446  25.604  57.882  1.00  0.00    -0.349 N 
HETATM    4  H   UNL     1       7.537  25.378  58.862  1.00  0.00     0.167 HD
HETATM    5  C   UNL     1       7.619  26.862  57.381  1.00  0.00     0.139 A 
HETATM    6  N   UNL     1       7.920  27.935  58.131  1.00  0.00    -0.230 NA
HETATM    7  C   UNL     1       8.062  29.087  57.426  1.00  0.00     0.069 A 
HETATM    8  C   UNL     1       7.894  29.161  56.038  1.00  0.00     0.033 A 
HETATM    9  C   UNL     1       7.577  28.012  55.305  1.00  0.00     0.018 A 
HETATM   10  C   UNL     1       7.435  26.805  56.007  1.00  0.00     0.027 A 
ENDROOT
BRANCH   1  11
HETATM   11  C   UNL     1       6.863  24.922  54.326  1.00  0.00     0.254 C 
HETATM   12  N   UNL     1       5.630  25.236  53.806  1.00  0.00    -0.353 N 
HETATM   13  H   UNL     1       5.039  25.899  54.284  1.00  0.00     0.163 HD
HETATM   14  O   UNL     1       7.687  24.259  53.704  1.00  0.00    -0.268 OA
BRANCH  12  15
HETATM   15  C   UNL     1       5.259  24.823  52.476  1.00  0.00     0.161 C 
BRANCH  15  16
HETATM   16  C   UNL     1       5.156  26.012  51.560  1.00  0.00    -0.038 A 
HETATM   17  C   UNL     1       5.539  27.283  52.013  1.00  0.00     0.009 A 
HETATM   18  C   UNL     1       5.474  28.382  51.161  1.00  0.00     0.003 A 
HETATM   19  C   UNL     1       5.030  28.219  49.849  1.00  0.00     0.037 A 
HETATM   20  C   UNL     1       4.649  26.961  49.376  1.00  0.00     0.068 A 
HETATM   21  C   UNL     1       4.717  25.859  50.233  1.00  0.00     0.045 A 
BRANCH  20  22
HETATM   22  O   UNL     1       4.238  26.943  48.072  1.00  0.00    -0.356 OA
HETATM   23  C   UNL     1       3.573  25.770  47.620  1.00  0.00     0.210 C 
ENDBRANCH  20  22
ENDBRANCH  15  16
ENDBRANCH  12  15
ENDBRANCH   1  11
BRANCH   7  24
HETATM   24  C   UNL     1       8.400  30.274  58.243  1.00  0.00    -0.005 A 
HETATM   25  C   UNL     1       7.437  30.977  58.981  1.00  0.00     0.033 A 
HETATM   26  C   UNL     1       7.824  32.083  59.727  1.00  0.00     0.117 A 
HETATM   27  N   UNL     1       9.090  32.540  59.793  1.00  0.00    -0.273 NA
HETATM   28  C   UNL     1      10.009  31.867  59.071  1.00  0.00     0.117 A 
HETATM   29  C   UNL     1       9.717  30.754  58.298  1.00  0.00     0.033 A 
ENDBRANCH   7  24
TORSDOF 5
ENDMDL
MODEL 9
REMARK VINA RESULT:      -8.8      2.758      7.867
REMARK  5 active torsions:
REMARK  status: ('A' for Active; 'I' for Inactive)
REMARK    1  A    between atoms: O_2  and  C_3 
REMARK    2  A    between atoms: C_7  and  C_8 
REMARK    3  A    between atoms: C_8  and  N_9 
REMARK       I    between atoms: N_9  and  C_10 
REMARK    4  A    between atoms: C_10  and  C_12 
REMARK    5  A    between atoms: C_18  and  C_22 
ROOT
HETATM    1  C   UNL     1       5.528  27.773  53.770  1.00  0.00     0.061 A 
HETATM    2  C   UNL     1       4.957  28.930  53.249  1.00  0.00     0.108 A 
HETATM    3  N   UNL     1       5.149  29.952  54.144  1.00  0.00    -0.349 N 
HETATM    4  H   UNL     1       4.840  30.908  54.044  1.00  0.00     0.167 HD
HETATM    5  C   UNL     1       5.830  29.491  55.234  1.00  0.00     0.139 A 
HETATM    6  N   UNL     1       6.171  30.255  56.285  1.00  0.00    -0.230 NA
HETATM    7  C   UNL     1       6.834  29.590  57.267  1.00  0.00     0.069 A 
HETATM    8  C   UNL     1       7.152  28.229  57.189  1.00  0.00     0.033 A 
HETATM    9  C   UNL     1       6.775  27.481  56.069  1.00  0.00     0.018 A 
HETATM   10  C   UNL     1       6.080  28.140  55.043  1.00  0.00     0.027 A 
ENDROOT
BRANCH   1  11
HETATM   11  C   UNL     1       5.553  26.441  53.163  1.00  0.00     0.254 C 
HETATM   12  N   UNL     1       6.799  25.981  52.809  1.00  0.00    -0.353 N 
HETATM   13  H   UNL     1       7.621  26.491  53.095  1.00  0.00     0.163 HD
HETATM   14  O   UNL     1       4.536  25.777  52.991  1.00  0.00    -0.268 OA
BRANCH  12  15
HETATM   15  C   UNL     1       6.972  24.667  52.243  1.00  0.00     0.161 C 
BRANCH  15  16
HETATM   16  C   UNL     1       7.450  23.697  53.289  1.00  0.00    -0.038 A 
HETATM   17  C   UNL     1       7.951  22.444  52.909  1.00  0.00     0.009 A 
HETATM   18  C   UNL     1       8.423  21.553  53.870  1.00  0.00     0.003 A 
HETATM   19  C   UNL     1       8.400  21.911  55.218  1.00  0.00     0.037 A 
HETATM   20  C   UNL     1       7.910  23.156  55.618  1.00  0.00     0.068 A 
HETATM   21  C   UNL     1       7.439  24.048  54.651  1.00  0.00     0.045 A 
BRANCH  20  22
HETATM   22  O   UNL     1       7.949  23.377  56.967  1.00  0.00    -0.356 OA
HETATM   23  C   UNL     1       8.953  24.262  57.448  1.00  0.00     0.210 C 
ENDBRANCH  20  22
ENDBRANCH  15  16
ENDBRANCH  12  15
ENDBRANCH   1  11
BRANCH   7  24
HETATM   24  C   UNL     1       7.208  30.422  58.433  1.00  0.00    -0.005 A 
HETATM   25  C   UNL     1       8.274  30.089  59.281  1.00  0.00     0.033 A 
HETATM   26  C   UNL     1       8.571  30.915  60.357  1.00  0.00     0.117 A 
HETATM   27  N   UNL     1       7.891  32.040  60.652  1.00  0.00    -0.273 NA
HETATM   28  C   UNL     1       6.860  32.347  59.840  1.00  0.00     0.117 A 
HETATM   29  C   UNL     1       6.489  31.585  58.743  1.00  0.00     0.033 A 
ENDBRANCH   7  24
TORSDOF 5
ENDMDL
MODEL 10
REMARK VINA RESULT:      -8.7      3.216      9.366
REMARK  5 active torsions:
REMARK  status: ('A' for Active; 'I' for Inactive)
REMARK    1  A    between atoms: O_2  and  C_3 
REMARK    2  A    between atoms: C_7  and  C_8 
REMARK    3  A    between atoms: C_8  and  N_9 
REMARK       I    between atoms: N_9  and  C_10 
REMARK    4  A    between atoms: C_10  and  C_12 
REMARK    5  A    between atoms: C_18  and  C_22 
ROOT
HETATM    1  C   UNL     1       8.465  28.953  56.299  1.00  0.00     0.061 A 
HETATM    2  C   UNL     1       9.726  28.980  56.887  1.00  0.00     0.108 A 
HETATM    3  N   UNL     1       9.679  29.808  57.980  1.00  0.00    -0.349 N 
HETATM    4  H   UNL     1      10.443  30.030  58.603  1.00  0.00     0.167 HD
HETATM    5  C   UNL     1       8.422  30.321  58.119  1.00  0.00     0.139 A 
HETATM    6  N   UNL     1       8.059  31.167  59.098  1.00  0.00    -0.230 NA
HETATM    7  C   UNL     1       6.762  31.565  59.040  1.00  0.00     0.069 A 
HETATM    8  C   UNL     1       5.869  31.123  58.056  1.00  0.00     0.033 A 
HETATM    9  C   UNL     1       6.299  30.239  57.061  1.00  0.00     0.018 A 
HETATM   10  C   UNL     1       7.638  29.819  57.091  1.00  0.00     0.027 A 
ENDROOT
BRANCH   1  11
HETATM   11  C   UNL     1       8.056  28.212  55.106  1.00  0.00     0.254 C 
HETATM   12  N   UNL     1       7.267  27.111  55.340  1.00  0.00    -0.353 N 
HETATM   13  H   UNL     1       6.901  26.945  56.266  1.00  0.00     0.163 HD
HETATM   14  O   UNL     1       8.384  28.553  53.974  1.00  0.00    -0.268 OA
BRANCH  12  15
HETATM   15  C   UNL     1       6.756  26.318  54.251  1.00  0.00     0.161 C 
BRANCH  15  16
HETATM   16  C   UNL     1       7.290  24.913  54.320  1.00  0.00    -0.038 A 
HETATM   17  C   UNL     1       7.555  24.202  53.140  1.00  0.00     0.009 A 
HETATM   18  C   UNL     1       8.077  22.913  53.197  1.00  0.00     0.003 A 
HETATM   19  C   UNL     1       8.341  22.325  54.434  1.00  0.00     0.037 A 
HETATM   20  C   UNL     1       8.090  23.017  55.621  1.00  0.00     0.068 A 
HETATM   21  C   UNL     1       7.568  24.312  55.560  1.00  0.00     0.045 A 
BRANCH  20  22
HETATM   22  O   UNL     1       8.399  22.325  56.760  1.00  0.00    -0.356 OA
HETATM   23  C   UNL     1       8.521  20.913  56.645  1.00  0.00     0.210 C 
ENDBRANCH  20  22
ENDBRANCH  15  16
ENDBRANCH  12  15
ENDBRANCH   1  11
BRANCH   7  24
HETATM   24  C   UNL     1       6.354  32.502  60.110  1.00  0.00    -0.005 A 
HETATM   25  C   UNL     1       7.143  32.736  61.245  1.00  0.00     0.033 A 
HETATM   26  C   UNL     1       6.699  33.629  62.211  1.00  0.00     0.117 A 
HETATM   27  N   UNL     1       5.535  34.304  62.134  1.00  0.00    -0.273 NA
HETATM   28  C   UNL     1       4.776  34.065  61.046  1.00  0.00     0.117 A 
HETATM   29  C   UNL     1       5.135  33.193  60.031  1.00  0.00     0.033 A 
ENDBRANCH   7  24
TORSDOF 5
ENDMDL
