MODEL 1
REMARK VINA RESULT:      -8.7      0.000      0.000
REMARK  5 active torsions:
REMARK  status: ('A' for Active; 'I' for Inactive)
REMARK    1  A    between atoms: C_6  and  C_7 
REMARK    2  A    between atoms: C_12  and  C_13 
REMARK    3  A    between atoms: C_13  and  N_14 
REMARK    4  A    between atoms: C_17  and  O_18 
REMARK    5  A    between atoms: C_17  and  C_19 
ROOT
HETATM    1  C   UNL     1       5.942  26.881  54.552  1.00  0.00     0.096 A 
HETATM    2  N   UNL     1       4.780  27.452  54.217  1.00  0.00    -0.174 NA
HETATM    3  N   UNL     1       4.222  26.620  53.332  1.00  0.00    -0.288 N 
HETATM    4  H   UNL     1       3.294  26.842  52.978  1.00  0.00     0.188 HD
HETATM    5  C   UNL     1       5.029  25.569  53.008  1.00  0.00     0.120 A 
HETATM    6  C   UNL     1       6.172  25.701  53.775  1.00  0.00     0.016 A 
ENDROOT
BRANCH   6   7
HETATM    7  C   UNL     1       7.367  24.820  53.766  1.00  0.00     0.277 C 
BRANCH   7   8
HETATM    8  N   UNL     1       7.013  23.362  53.945  1.00  0.00    -0.064 N 
HETATM    9  H   UNL     1       6.013  23.270  53.721  1.00  0.00     0.280 HD
HETATM   10  C   UNL     1       7.232  22.840  55.370  1.00  0.00     0.282 C 
HETATM   11  C   UNL     1       8.422  21.893  55.243  1.00  0.00     0.180 C 
HETATM   12  C   UNL     1       8.186  21.259  53.881  1.00  0.00     0.076 C 
HETATM   13  C   UNL     1       7.795  22.450  53.019  1.00  0.00     0.238 C 
BRANCH  11  14
HETATM   14  O   UNL     1       9.636  22.674  55.159  1.00  0.00    -0.379 OA
HETATM   15  H   UNL     1       9.566  23.426  55.786  1.00  0.00     0.211 HD
ENDBRANCH  11  14
BRANCH  11  16
HETATM   16  C   UNL     1       8.419  20.900  56.400  1.00  0.00     0.419 C 
HETATM   17  F   UNL     1       8.364  21.538  57.586  1.00  0.00    -0.168 F 
HETATM   18  F   UNL     1       7.353  20.080  56.307  1.00  0.00    -0.168 F 
HETATM   19  F   UNL     1       9.535  20.145  56.382  1.00  0.00    -0.168 F 
ENDBRANCH  11  16
ENDBRANCH   7   8
ENDBRANCH   6   7
BRANCH   1  20
HETATM   20  C   UNL     1       6.817  27.509  55.540  1.00  0.00    -0.003 A 
HETATM   21  C   UNL     1       7.958  28.214  55.143  1.00  0.00     0.037 A 
HETATM   22  C   UNL     1       8.758  28.840  56.101  1.00  0.00     0.035 A 
HETATM   23  C   UNL     1       8.444  28.756  57.454  1.00  0.00     0.024 A 
HETATM   24 CL   UNL     1      10.134  29.739  55.594  1.00  0.00    -0.084 Cl
HETATM   25  C   UNL     1       7.323  28.032  57.859  1.00  0.00     0.003 A 
HETATM   26  C   UNL     1       6.513  27.411  56.905  1.00  0.00     0.014 A 
ENDBRANCH   1  20
TORSDOF 5
ENDMDL
MODEL 2
REMARK VINA RESULT:      -8.4      4.241      6.376
REMARK  5 active torsions:
REMARK  status: ('A' for Active; 'I' for Inactive)
REMARK    1  A    between atoms: C_6  and  C_7 
REMARK    2  A    between atoms: C_12  and  C_13 
REMARK    3  A    between atoms: C_13  and  N_14 
REMARK    4  A    between atoms: C_17  and  O_18 
REMARK    5  A    between atoms: C_17  and  C_19 
ROOT
HETATM    1  C   UNL     1       6.007  25.163  53.724  1.00  0.00     0.096 A 
HETATM    2  N   UNL     1       4.799  24.818  53.266  1.00  0.00    -0.174 NA
HETATM    3  N   UNL     1       4.221  25.968  52.899  1.00  0.00    -0.288 N 
HETATM    4  H   UNL     1       3.299  25.930  52.470  1.00  0.00     0.188 HD
HETATM    5  C   UNL     1       4.982  27.061  53.192  1.00  0.00     0.120 A 
HETATM    6  C   UNL     1       6.158  26.586  53.743  1.00  0.00     0.016 A 
ENDROOT
BRANCH   6   7
HETATM    7  C   UNL     1       7.300  27.387  54.252  1.00  0.00     0.277 C 
BRANCH   7   8
HETATM    8  N   UNL     1       6.872  28.436  55.251  1.00  0.00    -0.064 N 
HETATM    9  H   UNL     1       6.277  29.105  54.743  1.00  0.00     0.280 HD
HETATM   10  C   UNL     1       8.037  29.214  55.874  1.00  0.00     0.282 C 
HETATM   11  C   UNL     1       8.072  28.738  57.324  1.00  0.00     0.180 C 
HETATM   12  C   UNL     1       6.595  28.562  57.640  1.00  0.00     0.076 C 
HETATM   13  C   UNL     1       6.066  27.858  56.399  1.00  0.00     0.238 C 
BRANCH  11  14
HETATM   14  O   UNL     1       8.691  27.432  57.375  1.00  0.00    -0.379 OA
HETATM   15  H   UNL     1       8.864  27.135  56.456  1.00  0.00     0.211 HD
ENDBRANCH  11  14
BRANCH  11  16
HETATM   16  C   UNL     1       8.775  29.776  58.192  1.00  0.00     0.419 C 
HETATM   17  F   UNL     1      10.114  29.657  58.101  1.00  0.00    -0.168 F 
HETATM   18  F   UNL     1       8.429  31.020  57.802  1.00  0.00    -0.168 F 
HETATM   19  F   UNL     1       8.428  29.627  59.485  1.00  0.00    -0.168 F 
ENDBRANCH  11  16
ENDBRANCH   7   8
ENDBRANCH   6   7
BRANCH   1  20
HETATM   20  C   UNL     1       6.941  24.139  54.188  1.00  0.00    -0.003 A 
HETATM   21  C   UNL     1       7.229  23.019  53.402  1.00  0.00     0.037 A 
HETATM   22  C   UNL     1       8.154  22.074  53.848  1.00  0.00     0.035 A 
HETATM   23  C   UNL     1       8.786  22.223  55.080  1.00  0.00     0.024 A 
HETATM   24 CL   UNL     1       8.528  20.724  52.850  1.00  0.00    -0.084 Cl
HETATM   25  C   UNL     1       8.483  23.324  55.881  1.00  0.00     0.003 A 
HETATM   26  C   UNL     1       7.565  24.278  55.437  1.00  0.00     0.014 A 
ENDBRANCH   1  20
TORSDOF 5
ENDMDL
MODEL 3
REMARK VINA RESULT:      -8.3      3.984      6.457
REMARK  5 active torsions:
REMARK  status: ('A' for Active; 'I' for Inactive)
REMARK    1  A    between atoms: C_6  and  C_7 
REMARK    2  A    between atoms: C_12  and  C_13 
REMARK    3  A    between atoms: C_13  and  N_14 
REMARK    4  A    between atoms: C_17  and  O_18 
REMARK    5  A    between atoms: C_17  and  C_19 
ROOT
HETATM    1  C   UNL     1       5.793  25.232  53.815  1.00  0.00     0.096 A 
HETATM    2  N   UNL     1       4.903  25.164  52.819  1.00  0.00    -0.174 NA
HETATM    3  N   UNL     1       4.213  26.308  52.887  1.00  0.00    -0.288 N 
HETATM    4  H   UNL     1       3.504  26.488  52.179  1.00  0.00     0.188 HD
HETATM    5  C   UNL     1       4.564  27.077  53.957  1.00  0.00     0.120 A 
HETATM    6  C   UNL     1       5.589  26.410  54.601  1.00  0.00     0.016 A 
ENDROOT
BRANCH   6   7
HETATM    7  C   UNL     1       6.294  26.827  55.840  1.00  0.00     0.277 C 
BRANCH   7   8
HETATM    8  N   UNL     1       6.732  28.273  55.799  1.00  0.00    -0.064 N 
HETATM    9  H   UNL     1       6.139  28.742  55.100  1.00  0.00     0.280 HD
HETATM   10  C   UNL     1       8.196  28.467  55.388  1.00  0.00     0.282 C 
HETATM   11  C   UNL     1       8.883  28.944  56.666  1.00  0.00     0.180 C 
HETATM   12  C   UNL     1       7.810  29.815  57.302  1.00  0.00     0.076 C 
HETATM   13  C   UNL     1       6.551  28.979  57.128  1.00  0.00     0.238 C 
BRANCH  11  14
HETATM   14  O   UNL     1       9.098  27.808  57.535  1.00  0.00    -0.379 OA
HETATM   15  H   UNL     1      10.016  27.487  57.404  1.00  0.00     0.211 HD
ENDBRANCH  11  14
BRANCH  11  16
HETATM   16  C   UNL     1      10.165  29.691  56.316  1.00  0.00     0.419 C 
HETATM   17  F   UNL     1      10.202  30.896  56.917  1.00  0.00    -0.168 F 
HETATM   18  F   UNL     1      11.240  28.981  56.714  1.00  0.00    -0.168 F 
HETATM   19  F   UNL     1      10.255  29.883  54.985  1.00  0.00    -0.168 F 
ENDBRANCH  11  16
ENDBRANCH   7   8
ENDBRANCH   6   7
BRANCH   1  20
HETATM   20  C   UNL     1       6.752  24.149  54.024  1.00  0.00    -0.003 A 
HETATM   21  C   UNL     1       7.049  23.690  55.311  1.00  0.00     0.037 A 
HETATM   22  C   UNL     1       7.938  22.629  55.485  1.00  0.00     0.035 A 
HETATM   23  C   UNL     1       8.551  22.028  54.389  1.00  0.00     0.024 A 
HETATM   24 CL   UNL     1       8.260  22.049  57.072  1.00  0.00    -0.084 Cl
HETATM   25  C   UNL     1       8.280  22.498  53.104  1.00  0.00     0.003 A 
HETATM   26  C   UNL     1       7.385  23.554  52.922  1.00  0.00     0.014 A 
ENDBRANCH   1  20
TORSDOF 5
ENDMDL
MODEL 4
REMARK VINA RESULT:      -8.2      4.810      6.882
REMARK  5 active torsions:
REMARK  status: ('A' for Active; 'I' for Inactive)
REMARK    1  A    between atoms: C_6  and  C_7 
REMARK    2  A    between atoms: C_12  and  C_13 
REMARK    3  A    between atoms: C_13  and  N_14 
REMARK    4  A    between atoms: C_17  and  O_18 
REMARK    5  A    between atoms: C_17  and  C_19 
ROOT
HETATM    1  C   UNL     1       8.006  24.168  56.374  1.00  0.00     0.096 A 
HETATM    2  N   UNL     1       8.917  24.722  57.182  1.00  0.00    -0.174 NA
HETATM    3  N   UNL     1       8.496  25.977  57.377  1.00  0.00    -0.288 N 
HETATM    4  H   UNL     1       9.025  26.571  58.012  1.00  0.00     0.188 HD
HETATM    5  C   UNL     1       7.388  26.286  56.644  1.00  0.00     0.120 A 
HETATM    6  C   UNL     1       7.035  25.136  55.962  1.00  0.00     0.016 A 
ENDROOT
BRANCH   6   7
HETATM    7  C   UNL     1       5.910  24.967  55.007  1.00  0.00     0.277 C 
BRANCH   7   8
HETATM    8  N   UNL     1       6.298  25.312  53.589  1.00  0.00    -0.064 N 
HETATM    9  H   UNL     1       7.282  25.034  53.475  1.00  0.00     0.280 HD
HETATM   10  C   UNL     1       6.184  26.805  53.259  1.00  0.00     0.282 C 
HETATM   11  C   UNL     1       5.002  26.887  52.296  1.00  0.00     0.180 C 
HETATM   12  C   UNL     1       5.156  25.607  51.489  1.00  0.00     0.076 C 
HETATM   13  C   UNL     1       5.470  24.570  52.558  1.00  0.00     0.238 C 
BRANCH  11  14
HETATM   14  O   UNL     1       3.773  26.783  53.051  1.00  0.00    -0.379 OA
HETATM   15  H   UNL     1       3.039  26.603  52.425  1.00  0.00     0.211 HD
ENDBRANCH  11  14
BRANCH  11  16
HETATM   16  C   UNL     1       5.098  28.162  51.466  1.00  0.00     0.419 C 
HETATM   17  F   UNL     1       5.674  27.920  50.272  1.00  0.00    -0.168 F 
HETATM   18  F   UNL     1       3.868  28.672  51.253  1.00  0.00    -0.168 F 
HETATM   19  F   UNL     1       5.835  29.090  52.106  1.00  0.00    -0.168 F 
ENDBRANCH  11  16
ENDBRANCH   7   8
ENDBRANCH   6   7
BRANCH   1  20
HETATM   20  C   UNL     1       8.130  22.770  55.969  1.00  0.00    -0.003 A 
HETATM   21  C   UNL     1       8.098  22.407  54.619  1.00  0.00     0.037 A 
HETATM   22  C   UNL     1       8.258  21.070  54.253  1.00  0.00     0.035 A 
HETATM   23  C   UNL     1       8.433  20.084  55.219  1.00  0.00     0.024 A 
HETATM   24 CL   UNL     1       8.258  20.646  52.585  1.00  0.00    -0.084 Cl
HETATM   25  C   UNL     1       8.439  20.435  56.569  1.00  0.00     0.003 A 
HETATM   26  C   UNL     1       8.288  21.772  56.942  1.00  0.00     0.014 A 
ENDBRANCH   1  20
TORSDOF 5
ENDMDL
MODEL 5
REMARK VINA RESULT:      -8.1      1.581      2.406
REMARK  5 active torsions:
REMARK  status: ('A' for Active; 'I' for Inactive)
REMARK    1  A    between atoms: C_6  and  C_7 
REMARK    2  A    between atoms: C_12  and  C_13 
REMARK    3  A    between atoms: C_13  and  N_14 
REMARK    4  A    between atoms: C_17  and  O_18 
REMARK    5  A    between atoms: C_17  and  C_19 
ROOT
HETATM    1  C   UNL     1       6.718  28.346  55.676  1.00  0.00     0.096 A 
HETATM    2  N   UNL     1       5.671  29.099  55.318  1.00  0.00    -0.174 NA
HETATM    3  N   UNL     1       4.772  28.239  54.829  1.00  0.00    -0.288 N 
HETATM    4  H   UNL     1       3.866  28.601  54.538  1.00  0.00     0.188 HD
HETATM    5  C   UNL     1       5.238  26.959  54.769  1.00  0.00     0.120 A 
HETATM    6  C   UNL     1       6.512  26.979  55.304  1.00  0.00     0.016 A 
ENDROOT
BRANCH   6   7
HETATM    7  C   UNL     1       7.450  25.835  55.437  1.00  0.00     0.277 C 
BRANCH   7   8
HETATM    8  N   UNL     1       7.038  24.648  54.598  1.00  0.00    -0.064 N 
HETATM    9  H   UNL     1       6.074  24.827  54.285  1.00  0.00     0.280 HD
HETATM   10  C   UNL     1       7.051  23.316  55.358  1.00  0.00     0.282 C 
HETATM   11  C   UNL     1       8.223  22.550  54.750  1.00  0.00     0.180 C 
HETATM   12  C   UNL     1       8.154  22.964  53.288  1.00  0.00     0.076 C 
HETATM   13  C   UNL     1       7.912  24.464  53.373  1.00  0.00     0.238 C 
BRANCH  11  14
HETATM   14  O   UNL     1       9.458  23.070  55.295  1.00  0.00    -0.379 OA
HETATM   15  H   UNL     1       9.245  23.599  56.095  1.00  0.00     0.211 HD
ENDBRANCH  11  14
BRANCH  11  16
HETATM   16  C   UNL     1       8.040  21.055  54.983  1.00  0.00     0.419 C 
HETATM   17  F   UNL     1       7.550  20.450  53.883  1.00  0.00    -0.168 F 
HETATM   18  F   UNL     1       9.222  20.484  55.294  1.00  0.00    -0.168 F 
HETATM   19  F   UNL     1       7.185  20.834  56.000  1.00  0.00    -0.168 F 
ENDBRANCH  11  16
ENDBRANCH   7   8
ENDBRANCH   6   7
BRANCH   1  20
HETATM   20  C   UNL     1       7.894  28.959  56.290  1.00  0.00    -0.003 A 
HETATM   21  C   UNL     1       7.868  29.390  57.621  1.00  0.00     0.037 A 
HETATM   22  C   UNL     1       9.014  29.936  58.198  1.00  0.00     0.035 A 
HETATM   23  C   UNL     1      10.186  30.075  57.460  1.00  0.00     0.024 A 
HETATM   24 CL   UNL     1       8.978  30.423  59.848  1.00  0.00    -0.084 Cl
HETATM   25  C   UNL     1      10.211  29.671  56.125  1.00  0.00     0.003 A 
HETATM   26  C   UNL     1       9.070  29.116  55.542  1.00  0.00     0.014 A 
ENDBRANCH   1  20
TORSDOF 5
ENDMDL
MODEL 6
REMARK VINA RESULT:      -8.1      5.334      7.297
REMARK  5 active torsions:
REMARK  status: ('A' for Active; 'I' for Inactive)
REMARK    1  A    between atoms: C_6  and  C_7 
REMARK    2  A    between atoms: C_12  and  C_13 
REMARK    3  A    between atoms: C_13  and  N_14 
REMARK    4  A    between atoms: C_17  and  O_18 
REMARK    5  A    between atoms: C_17  and  C_19 
ROOT
HETATM    1  C   UNL     1       5.860  25.861  54.699  1.00  0.00     0.096 A 
HETATM    2  N   UNL     1       5.470  26.036  55.967  1.00  0.00    -0.174 NA
HETATM    3  N   UNL     1       4.759  27.169  55.962  1.00  0.00    -0.288 N 
HETATM    4  H   UNL     1       4.320  27.467  56.830  1.00  0.00     0.188 HD
HETATM    5  C   UNL     1       4.753  27.787  54.747  1.00  0.00     0.120 A 
HETATM    6  C   UNL     1       5.469  26.974  53.888  1.00  0.00     0.016 A 
ENDROOT
BRANCH   6   7
HETATM    7  C   UNL     1       5.772  27.224  52.456  1.00  0.00     0.277 C 
BRANCH   7   8
HETATM    8  N   UNL     1       4.565  27.037  51.567  1.00  0.00    -0.064 N 
HETATM    9  H   UNL     1       3.877  26.498  52.112  1.00  0.00     0.280 HD
HETATM   10  C   UNL     1       4.858  26.267  50.275  1.00  0.00     0.282 C 
HETATM   11  C   UNL     1       4.729  27.317  49.175  1.00  0.00     0.180 C 
HETATM   12  C   UNL     1       3.585  28.180  49.687  1.00  0.00     0.076 C 
HETATM   13  C   UNL     1       3.926  28.351  51.160  1.00  0.00     0.238 C 
BRANCH  11  14
HETATM   14  O   UNL     1       5.922  28.134  49.163  1.00  0.00    -0.379 OA
HETATM   15  H   UNL     1       5.940  28.644  48.324  1.00  0.00     0.211 HD
ENDBRANCH  11  14
BRANCH  11  16
HETATM   16  C   UNL     1       4.446  26.637  47.840  1.00  0.00     0.419 C 
HETATM   17  F   UNL     1       5.589  26.387  47.172  1.00  0.00    -0.168 F 
HETATM   18  F   UNL     1       3.802  25.470  48.040  1.00  0.00    -0.168 F 
HETATM   19  F   UNL     1       3.670  27.419  47.064  1.00  0.00    -0.168 F 
ENDBRANCH  11  16
ENDBRANCH   7   8
ENDBRANCH   6   7
BRANCH   1  20
HETATM   20  C   UNL     1       6.644  24.687  54.322  1.00  0.00    -0.003 A 
HETATM   21  C   UNL     1       6.948  23.694  55.259  1.00  0.00     0.037 A 
HETATM   22  C   UNL     1       7.663  22.562  54.868  1.00  0.00     0.035 A 
HETATM   23  C   UNL     1       8.096  22.413  53.553  1.00  0.00     0.024 A 
HETATM   24 CL   UNL     1       7.992  21.331  56.023  1.00  0.00    -0.084 Cl
HETATM   25  C   UNL     1       7.820  23.412  52.619  1.00  0.00     0.003 A 
HETATM   26  C   UNL     1       7.097  24.544  53.002  1.00  0.00     0.014 A 
ENDBRANCH   1  20
TORSDOF 5
ENDMDL
MODEL 7
REMARK VINA RESULT:      -7.8      5.449      7.330
REMARK  5 active torsions:
REMARK  status: ('A' for Active; 'I' for Inactive)
REMARK    1  A    between atoms: C_6  and  C_7 
REMARK    2  A    between atoms: C_12  and  C_13 
REMARK    3  A    between atoms: C_13  and  N_14 
REMARK    4  A    between atoms: C_17  and  O_18 
REMARK    5  A    between atoms: C_17  and  C_19 
ROOT
HETATM    1  C   UNL     1       6.926  25.316  55.056  1.00  0.00     0.096 A 
HETATM    2  N   UNL     1       7.602  25.947  56.022  1.00  0.00    -0.174 NA
HETATM    3  N   UNL     1       6.984  27.124  56.172  1.00  0.00    -0.288 N 
HETATM    4  H   UNL     1       7.312  27.752  56.903  1.00  0.00     0.188 HD
HETATM    5  C   UNL     1       5.984  27.318  55.266  1.00  0.00     0.120 A 
HETATM    6  C   UNL     1       5.913  26.165  54.506  1.00  0.00     0.016 A 
ENDROOT
BRANCH   6   7
HETATM    7  C   UNL     1       4.999  25.894  53.366  1.00  0.00     0.277 C 
BRANCH   7   8
HETATM    8  N   UNL     1       5.641  26.180  52.029  1.00  0.00    -0.064 N 
HETATM    9  H   UNL     1       6.578  25.755  52.053  1.00  0.00     0.280 HD
HETATM   10  C   UNL     1       5.803  27.673  51.724  1.00  0.00     0.282 C 
HETATM   11  C   UNL     1       4.803  27.937  50.601  1.00  0.00     0.180 C 
HETATM   12  C   UNL     1       4.881  26.650  49.793  1.00  0.00     0.076 C 
HETATM   13  C   UNL     1       4.873  25.575  50.869  1.00  0.00     0.238 C 
BRANCH  11  14
HETATM   14  O   UNL     1       3.474  28.020  51.165  1.00  0.00    -0.379 OA
HETATM   15  H   UNL     1       3.135  27.108  51.296  1.00  0.00     0.211 HD
ENDBRANCH  11  14
BRANCH  11  16
HETATM   16  C   UNL     1       5.212  29.184  49.826  1.00  0.00     0.419 C 
HETATM   17  F   UNL     1       4.145  29.763  49.241  1.00  0.00    -0.168 F 
HETATM   18  F   UNL     1       5.784  30.081  50.655  1.00  0.00    -0.168 F 
HETATM   19  F   UNL     1       6.101  28.874  48.862  1.00  0.00    -0.168 F 
ENDBRANCH  11  16
ENDBRANCH   7   8
ENDBRANCH   6   7
BRANCH   1  20
HETATM   20  C   UNL     1       7.308  23.967  54.645  1.00  0.00    -0.003 A 
HETATM   21  C   UNL     1       7.316  22.911  55.563  1.00  0.00     0.037 A 
HETATM   22  C   UNL     1       7.647  21.624  55.140  1.00  0.00     0.035 A 
HETATM   23  C   UNL     1       7.988  21.376  53.814  1.00  0.00     0.024 A 
HETATM   24 CL   UNL     1       7.610  20.329  56.272  1.00  0.00    -0.084 Cl
HETATM   25  C   UNL     1       8.008  22.428  52.899  1.00  0.00     0.003 A 
HETATM   26  C   UNL     1       7.670  23.718  53.313  1.00  0.00     0.014 A 
ENDBRANCH   1  20
TORSDOF 5
ENDMDL
MODEL 8
REMARK VINA RESULT:      -7.7      5.155      6.897
REMARK  5 active torsions:
REMARK  status: ('A' for Active; 'I' for Inactive)
REMARK    1  A    between atoms: C_6  and  C_7 
REMARK    2  A    between atoms: C_12  and  C_13 
REMARK    3  A    between atoms: C_13  and  N_14 
REMARK    4  A    between atoms: C_17  and  O_18 
REMARK    5  A    between atoms: C_17  and  C_19 
ROOT
HETATM    1  C   UNL     1       8.956  31.372  58.890  1.00  0.00     0.096 A 
HETATM    2  N   UNL     1      10.109  31.997  58.624  1.00  0.00    -0.174 NA
HETATM    3  N   UNL     1      10.689  31.269  57.664  1.00  0.00    -0.288 N 
HETATM    4  H   UNL     1      11.569  31.599  57.272  1.00  0.00     0.188 HD
HETATM    5  C   UNL     1       9.993  30.136  57.362  1.00  0.00     0.120 A 
HETATM    6  C   UNL     1       8.855  30.153  58.147  1.00  0.00     0.016 A 
ENDROOT
BRANCH   6   7
HETATM    7  C   UNL     1       7.788  29.121  58.206  1.00  0.00     0.277 C 
BRANCH   7   8
HETATM    8  N   UNL     1       7.988  28.022  57.190  1.00  0.00    -0.064 N 
HETATM    9  H   UNL     1       8.968  28.079  56.880  1.00  0.00     0.280 HD
HETATM   10  C   UNL     1       7.091  28.149  55.953  1.00  0.00     0.282 C 
HETATM   11  C   UNL     1       6.103  26.993  56.088  1.00  0.00     0.180 C 
HETATM   12  C   UNL     1       6.969  25.898  56.691  1.00  0.00     0.076 C 
HETATM   13  C   UNL     1       7.749  26.640  57.766  1.00  0.00     0.238 C 
BRANCH  11  14
HETATM   14  O   UNL     1       5.097  27.346  57.066  1.00  0.00    -0.379 OA
HETATM   15  H   UNL     1       4.443  26.616  57.115  1.00  0.00     0.211 HD
ENDBRANCH  11  14
BRANCH  11  16
HETATM   16  C   UNL     1       5.523  26.646  54.721  1.00  0.00     0.419 C 
HETATM   17  F   UNL     1       4.471  27.435  54.426  1.00  0.00    -0.168 F 
HETATM   18  F   UNL     1       6.459  26.807  53.764  1.00  0.00    -0.168 F 
HETATM   19  F   UNL     1       5.107  25.365  54.693  1.00  0.00    -0.168 F 
ENDBRANCH  11  16
ENDBRANCH   7   8
ENDBRANCH   6   7
BRANCH   1  20
HETATM   20  C   UNL     1       8.034  31.915  59.885  1.00  0.00    -0.003 A 
HETATM   21  C   UNL     1       8.422  32.064  61.220  1.00  0.00     0.037 A 
HETATM   22  C   UNL     1       7.539  32.621  62.145  1.00  0.00     0.035 A 
HETATM   23  C   UNL     1       6.261  33.018  61.759  1.00  0.00     0.024 A 
HETATM   24 CL   UNL     1       8.047  32.837  63.774  1.00  0.00    -0.084 Cl
HETATM   25  C   UNL     1       5.858  32.847  60.434  1.00  0.00     0.003 A 
HETATM   26  C   UNL     1       6.740  32.298  59.502  1.00  0.00     0.014 A 
ENDBRANCH   1  20
TORSDOF 5
ENDMDL
MODEL 9
REMARK VINA RESULT:      -7.7      4.692      6.258
REMARK  5 active torsions:
REMARK  status: ('A' for Active; 'I' for Inactive)
REMARK    1  A    between atoms: C_6  and  C_7 
REMARK    2  A    between atoms: C_12  and  C_13 
REMARK    3  A    between atoms: C_13  and  N_14 
REMARK    4  A    between atoms: C_17  and  O_18 
REMARK    5  A    between atoms: C_17  and  C_19 
ROOT
HETATM    1  C   UNL     1       7.955  27.538  57.256  1.00  0.00     0.096 A 
HETATM    2  N   UNL     1       7.905  26.580  58.189  1.00  0.00    -0.174 NA
HETATM    3  N   UNL     1       7.131  25.622  57.667  1.00  0.00    -0.288 N 
HETATM    4  H   UNL     1       6.998  24.765  58.200  1.00  0.00     0.188 HD
HETATM    5  C   UNL     1       6.597  25.968  56.461  1.00  0.00     0.120 A 
HETATM    6  C   UNL     1       7.100  27.219  56.153  1.00  0.00     0.016 A 
ENDROOT
BRANCH   6   7
HETATM    7  C   UNL     1       6.795  28.041  54.954  1.00  0.00     0.277 C 
BRANCH   7   8
HETATM    8  N   UNL     1       5.630  27.497  54.161  1.00  0.00    -0.064 N 
HETATM    9  H   UNL     1       5.297  26.659  54.659  1.00  0.00     0.280 HD
HETATM   10  C   UNL     1       5.990  27.088  52.728  1.00  0.00     0.282 C 
HETATM   11  C   UNL     1       5.295  28.130  51.855  1.00  0.00     0.180 C 
HETATM   12  C   UNL     1       4.004  28.380  52.619  1.00  0.00     0.076 C 
HETATM   13  C   UNL     1       4.479  28.480  54.061  1.00  0.00     0.238 C 
BRANCH  11  14
HETATM   14  O   UNL     1       6.065  29.354  51.882  1.00  0.00    -0.379 OA
HETATM   15  H   UNL     1       6.989  29.145  51.625  1.00  0.00     0.211 HD
ENDBRANCH  11  14
BRANCH  11  16
HETATM   16  C   UNL     1       5.090  27.574  50.450  1.00  0.00     0.419 C 
HETATM   17  F   UNL     1       3.795  27.645  50.086  1.00  0.00    -0.168 F 
HETATM   18  F   UNL     1       5.824  28.273  49.561  1.00  0.00    -0.168 F 
HETATM   19  F   UNL     1       5.472  26.283  50.390  1.00  0.00    -0.168 F 
ENDBRANCH  11  16
ENDBRANCH   7   8
ENDBRANCH   6   7
BRANCH   1  20
HETATM   20  C   UNL     1       8.751  28.743  57.476  1.00  0.00    -0.003 A 
HETATM   21  C   UNL     1       8.316  29.742  58.354  1.00  0.00     0.037 A 
HETATM   22  C   UNL     1       9.112  30.866  58.579  1.00  0.00     0.035 A 
HETATM   23  C   UNL     1      10.332  31.017  57.925  1.00  0.00     0.024 A 
HETATM   24 CL   UNL     1       8.582  32.064  59.693  1.00  0.00    -0.084 Cl
HETATM   25  C   UNL     1      10.759  30.038  57.028  1.00  0.00     0.003 A 
HETATM   26  C   UNL     1       9.972  28.906  56.805  1.00  0.00     0.014 A 
ENDBRANCH   1  20
TORSDOF 5
ENDMDL
MODEL 10
REMARK VINA RESULT:      -7.7      6.098      8.014
REMARK  5 active torsions:
REMARK  status: ('A' for Active; 'I' for Inactive)
REMARK    1  A    between atoms: C_6  and  C_7 
REMARK    2  A    between atoms: C_12  and  C_13 
REMARK    3  A    between atoms: C_13  and  N_14 
REMARK    4  A    between atoms: C_17  and  O_18 
REMARK    5  A    between atoms: C_17  and  C_19 
ROOT
HETATM    1  C   UNL     1       9.378  31.024  58.623  1.00  0.00     0.096 A 
HETATM    2  N   UNL     1      10.512  31.554  58.151  1.00  0.00    -0.174 NA
HETATM    3  N   UNL     1      10.803  30.843  57.056  1.00  0.00    -0.288 N 
HETATM    4  H   UNL     1      11.614  31.114  56.505  1.00  0.00     0.188 HD
HETATM    5  C   UNL     1       9.943  29.804  56.853  1.00  0.00     0.120 A 
HETATM    6  C   UNL     1       8.998  29.874  57.859  1.00  0.00     0.016 A 
ENDROOT
BRANCH   6   7
HETATM    7  C   UNL     1       7.861  28.946  58.092  1.00  0.00     0.277 C 
BRANCH   7   8
HETATM    8  N   UNL     1       7.017  28.744  56.856  1.00  0.00    -0.064 N 
HETATM    9  H   UNL     1       7.667  28.550  56.081  1.00  0.00     0.280 HD
HETATM   10  C   UNL     1       6.172  29.965  56.474  1.00  0.00     0.282 C 
HETATM   11  C   UNL     1       4.737  29.534  56.768  1.00  0.00     0.180 C 
HETATM   12  C   UNL     1       4.757  28.064  56.377  1.00  0.00     0.076 C 
HETATM   13  C   UNL     1       6.063  27.572  56.983  1.00  0.00     0.238 C 
BRANCH  11  14
HETATM   14  O   UNL     1       4.508  29.606  58.194  1.00  0.00    -0.379 OA
HETATM   15  H   UNL     1       3.928  28.857  58.452  1.00  0.00     0.211 HD
ENDBRANCH  11  14
BRANCH  11  16
HETATM   16  C   UNL     1       3.765  30.381  55.954  1.00  0.00     0.419 C 
HETATM   17  F   UNL     1       2.599  30.544  56.608  1.00  0.00    -0.168 F 
HETATM   18  F   UNL     1       4.296  31.598  55.716  1.00  0.00    -0.168 F 
HETATM   19  F   UNL     1       3.503  29.796  54.769  1.00  0.00    -0.168 F 
ENDBRANCH  11  16
ENDBRANCH   7   8
ENDBRANCH   6   7
BRANCH   1  20
HETATM   20  C   UNL     1       8.741  31.581  59.814  1.00  0.00    -0.003 A 
HETATM   21  C   UNL     1       7.457  32.133  59.751  1.00  0.00     0.037 A 
HETATM   22  C   UNL     1       6.852  32.624  60.908  1.00  0.00     0.035 A 
HETATM   23  C   UNL     1       7.519  32.588  62.130  1.00  0.00     0.024 A 
HETATM   24 CL   UNL     1       5.256  33.260  60.821  1.00  0.00    -0.084 Cl
HETATM   25  C   UNL     1       8.811  32.064  62.195  1.00  0.00     0.003 A 
HETATM   26  C   UNL     1       9.419  31.563  61.042  1.00  0.00     0.014 A 
ENDBRANCH   1  20
TORSDOF 5
ENDMDL
