MODEL 1
REMARK VINA RESULT:     -10.0      0.000      0.000
REMARK  5 active torsions:
REMARK  status: ('A' for Active; 'I' for Inactive)
REMARK    1  A    between atoms: C_8  and  N_9 
REMARK    2  A    between atoms: C_12  and  N_13 
REMARK    3  A    between atoms: N_13  and  C_15 
REMARK    4  A    between atoms: C_15  and  C_16 
REMARK    5  A    between atoms: C_17  and  C_18 
ROOT
HETATM    1  N   UNL     1       5.191  26.739  54.620  1.00  0.00    -0.067 N 
HETATM    2  H   UNL     1       6.129  27.110  54.428  1.00  0.00     0.280 HD
HETATM    3  C   UNL     1       4.247  27.438  53.665  1.00  0.00     0.270 C 
ENDROOT
BRANCH   1   4
HETATM    4  C   UNL     1       4.859  26.924  56.114  1.00  0.00     0.190 C 
HETATM    5  C   UNL     1       5.969  26.339  57.003  1.00  0.00     0.048 C 
HETATM    6  C   UNL     1       7.208  27.231  57.089  1.00  0.00     0.099 C 
HETATM    7  N   UNL     1       6.805  28.581  57.501  1.00  0.00    -0.268 NA
HETATM    8  C   UNL     1       5.850  29.234  56.599  1.00  0.00     0.099 C 
HETATM    9  C   UNL     1       4.587  28.381  56.521  1.00  0.00     0.048 C 
BRANCH   7  10
HETATM   10  C   UNL     1       7.861  29.395  57.940  1.00  0.00     0.109 A 
HETATM   11  N   UNL     1       7.614  30.393  58.808  1.00  0.00    -0.224 NA
HETATM   12  C   UNL     1       8.642  31.207  59.159  1.00  0.00     0.102 A 
HETATM   13  N   UNL     1       9.884  31.069  58.677  1.00  0.00    -0.348 N 
HETATM   14  C   UNL     1       8.357  32.339  60.094  1.00  0.00     0.091 C 
HETATM   15  C   UNL     1      10.164  30.084  57.811  1.00  0.00     0.009 A 
HETATM   16  H   UNL     1      10.608  31.726  58.964  1.00  0.00     0.167 HD
HETATM   17  C   UNL     1      11.552  29.961  57.273  1.00  0.00     0.068 C 
HETATM   18  C   UNL     1       9.139  29.220  57.421  1.00  0.00     0.069 A 
ENDBRANCH   7  10
ENDBRANCH   1   4
BRANCH   1  19
HETATM   19  C   UNL     1       5.260  25.244  54.254  1.00  0.00     0.277 C 
BRANCH  19  20
HETATM   20  C   UNL     1       6.362  24.899  53.321  1.00  0.00     0.016 A 
HETATM   21  C   UNL     1       7.414  23.935  53.459  1.00  0.00     0.099 A 
HETATM   22  N   UNL     1       8.266  24.029  52.429  1.00  0.00    -0.174 NA
HETATM   23  N   UNL     1       7.716  24.902  51.583  1.00  0.00    -0.288 N 
HETATM   24  H   UNL     1       8.175  25.068  50.689  1.00  0.00     0.188 HD
HETATM   25  C   UNL     1       6.593  25.485  52.088  1.00  0.00     0.120 A 
BRANCH  21  26
HETATM   26  C   UNL     1       7.692  22.972  54.524  1.00  0.00     0.034 A 
HETATM   27  C   UNL     1       7.706  21.593  54.294  1.00  0.00     0.129 A 
HETATM   28  F   UNL     1       7.411  21.098  53.085  1.00  0.00    -0.205 F 
HETATM   29  C   UNL     1       8.034  20.691  55.305  1.00  0.00     0.043 A 
HETATM   30  C   UNL     1       8.365  21.162  56.574  1.00  0.00     0.003 A 
HETATM   31  C   UNL     1       8.364  22.533  56.825  1.00  0.00     0.001 A 
HETATM   32  C   UNL     1       8.032  23.431  55.807  1.00  0.00     0.017 A 
ENDBRANCH  21  26
ENDBRANCH  19  20
ENDBRANCH   1  19
TORSDOF 5
ENDMDL
MODEL 2
REMARK VINA RESULT:      -9.8      3.434      7.040
REMARK  5 active torsions:
REMARK  status: ('A' for Active; 'I' for Inactive)
REMARK    1  A    between atoms: C_8  and  N_9 
REMARK    2  A    between atoms: C_12  and  N_13 
REMARK    3  A    between atoms: N_13  and  C_15 
REMARK    4  A    between atoms: C_15  and  C_16 
REMARK    5  A    between atoms: C_17  and  C_18 
ROOT
HETATM    1  N   UNL     1       5.301  26.240  54.890  1.00  0.00    -0.067 N 
HETATM    2  H   UNL     1       4.433  26.149  54.349  1.00  0.00     0.280 HD
HETATM    3  C   UNL     1       5.070  27.349  55.894  1.00  0.00     0.270 C 
ENDROOT
BRANCH   1   4
HETATM    4  C   UNL     1       6.486  26.469  53.930  1.00  0.00     0.190 C 
HETATM    5  C   UNL     1       6.531  25.385  52.840  1.00  0.00     0.048 C 
HETATM    6  C   UNL     1       5.495  25.594  51.735  1.00  0.00     0.099 C 
HETATM    7  N   UNL     1       5.635  26.951  51.191  1.00  0.00    -0.268 NA
HETATM    8  C   UNL     1       5.457  28.024  52.175  1.00  0.00     0.099 C 
HETATM    9  C   UNL     1       6.503  27.860  53.275  1.00  0.00     0.048 C 
BRANCH   7  10
HETATM   10  C   UNL     1       4.986  27.155  49.964  1.00  0.00     0.109 A 
HETATM   11  N   UNL     1       4.320  26.139  49.387  1.00  0.00    -0.224 NA
HETATM   12  C   UNL     1       3.763  26.347  48.167  1.00  0.00     0.102 A 
HETATM   13  N   UNL     1       3.852  27.510  47.508  1.00  0.00    -0.348 N 
HETATM   14  C   UNL     1       3.057  25.203  47.510  1.00  0.00     0.091 C 
HETATM   15  C   UNL     1       4.507  28.544  48.056  1.00  0.00     0.009 A 
HETATM   16  H   UNL     1       3.429  27.596  46.585  1.00  0.00     0.167 HD
HETATM   17  C   UNL     1       4.609  29.825  47.295  1.00  0.00     0.068 C 
HETATM   18  C   UNL     1       5.097  28.378  49.311  1.00  0.00     0.069 A 
ENDBRANCH   7  10
ENDBRANCH   1   4
BRANCH   1  19
HETATM   19  C   UNL     1       5.456  24.905  55.643  1.00  0.00     0.277 C 
BRANCH  19  20
HETATM   20  C   UNL     1       6.749  24.760  56.358  1.00  0.00     0.016 A 
HETATM   21  C   UNL     1       7.794  23.795  56.180  1.00  0.00     0.099 A 
HETATM   22  N   UNL     1       8.739  23.956  57.116  1.00  0.00    -0.174 NA
HETATM   23  N   UNL     1       8.406  25.068  57.776  1.00  0.00    -0.288 N 
HETATM   24  H   UNL     1       9.040  25.414  58.495  1.00  0.00     0.188 HD
HETATM   25  C   UNL     1       7.200  25.567  57.389  1.00  0.00     0.120 A 
BRANCH  21  26
HETATM   26  C   UNL     1       7.928  22.701  55.218  1.00  0.00     0.034 A 
HETATM   27  C   UNL     1       7.920  21.360  55.611  1.00  0.00     0.129 A 
HETATM   28  F   UNL     1       7.837  21.027  56.907  1.00  0.00    -0.205 F 
HETATM   29  C   UNL     1       7.986  20.327  54.677  1.00  0.00     0.043 A 
HETATM   30  C   UNL     1       8.055  20.626  53.317  1.00  0.00     0.003 A 
HETATM   31  C   UNL     1       8.059  21.956  52.901  1.00  0.00     0.001 A 
HETATM   32  C   UNL     1       7.994  22.986  53.844  1.00  0.00     0.017 A 
ENDBRANCH  21  26
ENDBRANCH  19  20
ENDBRANCH   1  19
TORSDOF 5
ENDMDL
MODEL 3
REMARK VINA RESULT:      -9.8      1.437      2.287
REMARK  5 active torsions:
REMARK  status: ('A' for Active; 'I' for Inactive)
REMARK    1  A    between atoms: C_8  and  N_9 
REMARK    2  A    between atoms: C_12  and  N_13 
REMARK    3  A    between atoms: N_13  and  C_15 
REMARK    4  A    between atoms: C_15  and  C_16 
REMARK    5  A    between atoms: C_17  and  C_18 
ROOT
HETATM    1  N   UNL     1       5.598  25.964  55.545  1.00  0.00    -0.067 N 
HETATM    2  H   UNL     1       4.906  26.719  55.470  1.00  0.00     0.280 HD
HETATM    3  C   UNL     1       5.334  25.265  56.861  1.00  0.00     0.270 C 
ENDROOT
BRANCH   1   4
HETATM    4  C   UNL     1       7.017  26.548  55.392  1.00  0.00     0.190 C 
HETATM    5  C   UNL     1       6.965  28.018  54.943  1.00  0.00     0.048 C 
HETATM    6  C   UNL     1       6.605  28.983  56.074  1.00  0.00     0.099 C 
HETATM    7  N   UNL     1       7.519  28.768  57.203  1.00  0.00    -0.268 NA
HETATM    8  C   UNL     1       7.496  27.410  57.755  1.00  0.00     0.099 C 
HETATM    9  C   UNL     1       7.885  26.426  56.655  1.00  0.00     0.048 C 
BRANCH   7  10
HETATM   10  C   UNL     1       7.518  29.798  58.156  1.00  0.00     0.109 A 
HETATM   11  N   UNL     1       8.393  29.759  59.177  1.00  0.00    -0.224 NA
HETATM   12  C   UNL     1       8.320  30.731  60.122  1.00  0.00     0.102 A 
HETATM   13  N   UNL     1       7.418  31.720  60.089  1.00  0.00    -0.348 N 
HETATM   14  C   UNL     1       9.268  30.663  61.278  1.00  0.00     0.091 C 
HETATM   15  C   UNL     1       6.533  31.790  59.083  1.00  0.00     0.009 A 
HETATM   16  H   UNL     1       7.402  32.409  60.840  1.00  0.00     0.167 HD
HETATM   17  C   UNL     1       5.524  32.891  59.077  1.00  0.00     0.068 C 
HETATM   18  C   UNL     1       6.569  30.812  58.087  1.00  0.00     0.069 A 
ENDBRANCH   7  10
ENDBRANCH   1   4
BRANCH   1  19
HETATM   19  C   UNL     1       5.276  24.998  54.389  1.00  0.00     0.277 C 
BRANCH  19  20
HETATM   20  C   UNL     1       6.402  24.786  53.445  1.00  0.00     0.016 A 
HETATM   21  C   UNL     1       7.462  23.823  53.481  1.00  0.00     0.099 A 
HETATM   22  N   UNL     1       8.335  24.056  52.491  1.00  0.00    -0.174 NA
HETATM   23  N   UNL     1       7.791  25.026  51.752  1.00  0.00    -0.288 N 
HETATM   24  H   UNL     1       8.266  25.310  50.897  1.00  0.00     0.188 HD
HETATM   25  C   UNL     1       6.651  25.528  52.302  1.00  0.00     0.120 A 
BRANCH  21  26
HETATM   26  C   UNL     1       7.730  22.733  54.419  1.00  0.00     0.034 A 
HETATM   27  C   UNL     1       7.757  21.395  54.016  1.00  0.00     0.129 A 
HETATM   28  F   UNL     1       7.484  21.056  52.749  1.00  0.00    -0.205 F 
HETATM   29  C   UNL     1       8.075  20.372  54.909  1.00  0.00     0.043 A 
HETATM   30  C   UNL     1       8.384  20.680  56.233  1.00  0.00     0.003 A 
HETATM   31  C   UNL     1       8.369  22.008  56.656  1.00  0.00     0.001 A 
HETATM   32  C   UNL     1       8.047  23.027  55.755  1.00  0.00     0.017 A 
ENDBRANCH  21  26
ENDBRANCH  19  20
ENDBRANCH   1  19
TORSDOF 5
ENDMDL
MODEL 4
REMARK VINA RESULT:      -9.8      3.418      6.940
REMARK  5 active torsions:
REMARK  status: ('A' for Active; 'I' for Inactive)
REMARK    1  A    between atoms: C_8  and  N_9 
REMARK    2  A    between atoms: C_12  and  N_13 
REMARK    3  A    between atoms: N_13  and  C_15 
REMARK    4  A    between atoms: C_15  and  C_16 
REMARK    5  A    between atoms: C_17  and  C_18 
ROOT
HETATM    1  N   UNL     1       5.323  26.232  54.844  1.00  0.00    -0.067 N 
HETATM    2  H   UNL     1       4.464  26.125  54.291  1.00  0.00     0.280 HD
HETATM    3  C   UNL     1       5.073  27.371  55.810  1.00  0.00     0.270 C 
ENDROOT
BRANCH   1   4
HETATM    4  C   UNL     1       6.524  26.433  53.899  1.00  0.00     0.190 C 
HETATM    5  C   UNL     1       6.525  25.383  52.775  1.00  0.00     0.048 C 
HETATM    6  C   UNL     1       5.509  25.678  51.671  1.00  0.00     0.099 C 
HETATM    7  N   UNL     1       5.719  27.043  51.172  1.00  0.00    -0.268 NA
HETATM    8  C   UNL     1       5.586  28.092  52.189  1.00  0.00     0.099 C 
HETATM    9  C   UNL     1       6.615  27.841  53.289  1.00  0.00     0.048 C 
BRANCH   7  10
HETATM   10  C   UNL     1       5.090  27.318  49.948  1.00  0.00     0.109 A 
HETATM   11  N   UNL     1       5.093  28.574  49.467  1.00  0.00    -0.224 NA
HETATM   12  C   UNL     1       4.416  28.823  48.317  1.00  0.00     0.102 A 
HETATM   13  N   UNL     1       3.739  27.881  47.646  1.00  0.00    -0.348 N 
HETATM   14  C   UNL     1       4.387  30.228  47.805  1.00  0.00     0.091 C 
HETATM   15  C   UNL     1       3.718  26.619  48.097  1.00  0.00     0.009 A 
HETATM   16  H   UNL     1       3.233  28.136  46.799  1.00  0.00     0.167 HD
HETATM   17  C   UNL     1       2.943  25.589  47.343  1.00  0.00     0.068 C 
HETATM   18  C   UNL     1       4.401  26.314  49.276  1.00  0.00     0.069 A 
ENDBRANCH   7  10
ENDBRANCH   1   4
BRANCH   1  19
HETATM   19  C   UNL     1       5.463  24.921  55.640  1.00  0.00     0.277 C 
BRANCH  19  20
HETATM   20  C   UNL     1       6.742  24.798  56.384  1.00  0.00     0.016 A 
HETATM   21  C   UNL     1       7.791  23.830  56.254  1.00  0.00     0.099 A 
HETATM   22  N   UNL     1       8.718  24.020  57.204  1.00  0.00    -0.174 NA
HETATM   23  N   UNL     1       8.372  25.151  57.824  1.00  0.00    -0.288 N 
HETATM   24  H   UNL     1       8.991  25.519  58.544  1.00  0.00     0.188 HD
HETATM   25  C   UNL     1       7.173  25.636  57.399  1.00  0.00     0.120 A 
BRANCH  21  26
HETATM   26  C   UNL     1       7.946  22.708  55.328  1.00  0.00     0.034 A 
HETATM   27  C   UNL     1       7.951  21.380  55.764  1.00  0.00     0.129 A 
HETATM   28  F   UNL     1       7.865  21.087  57.069  1.00  0.00    -0.205 F 
HETATM   29  C   UNL     1       8.037  20.319  54.863  1.00  0.00     0.043 A 
HETATM   30  C   UNL     1       8.110  20.576  53.495  1.00  0.00     0.003 A 
HETATM   31  C   UNL     1       8.100  21.893  53.037  1.00  0.00     0.001 A 
HETATM   32  C   UNL     1       8.016  22.951  53.947  1.00  0.00     0.017 A 
ENDBRANCH  21  26
ENDBRANCH  19  20
ENDBRANCH   1  19
TORSDOF 5
ENDMDL
MODEL 5
REMARK VINA RESULT:      -9.6      1.869      3.107
REMARK  5 active torsions:
REMARK  status: ('A' for Active; 'I' for Inactive)
REMARK    1  A    between atoms: C_8  and  N_9 
REMARK    2  A    between atoms: C_12  and  N_13 
REMARK    3  A    between atoms: N_13  and  C_15 
REMARK    4  A    between atoms: C_15  and  C_16 
REMARK    5  A    between atoms: C_17  and  C_18 
ROOT
HETATM    1  N   UNL     1       5.810  25.740  54.305  1.00  0.00    -0.067 N 
HETATM    2  H   UNL     1       6.820  25.651  54.143  1.00  0.00     0.280 HD
HETATM    3  C   UNL     1       5.132  24.810  53.320  1.00  0.00     0.270 C 
ENDROOT
BRANCH   1   4
HETATM    4  C   UNL     1       5.397  27.221  54.191  1.00  0.00     0.190 C 
HETATM    5  C   UNL     1       4.865  27.751  55.533  1.00  0.00     0.048 C 
HETATM    6  C   UNL     1       5.971  28.057  56.544  1.00  0.00     0.099 C 
HETATM    7  N   UNL     1       6.954  28.957  55.928  1.00  0.00    -0.268 NA
HETATM    8  C   UNL     1       7.592  28.428  54.719  1.00  0.00     0.099 C 
HETATM    9  C   UNL     1       6.513  28.146  53.678  1.00  0.00     0.048 C 
BRANCH   7  10
HETATM   10  C   UNL     1       7.824  29.577  56.838  1.00  0.00     0.109 A 
HETATM   11  N   UNL     1       9.152  29.525  56.630  1.00  0.00    -0.224 NA
HETATM   12  C   UNL     1       9.970  30.071  57.564  1.00  0.00     0.102 A 
HETATM   13  N   UNL     1       9.521  30.652  58.684  1.00  0.00    -0.348 N 
HETATM   14  C   UNL     1      11.448  29.976  57.349  1.00  0.00     0.091 C 
HETATM   15  C   UNL     1       8.203  30.723  58.922  1.00  0.00     0.009 A 
HETATM   16  H   UNL     1      10.188  31.026  59.357  1.00  0.00     0.167 HD
HETATM   17  C   UNL     1       7.724  31.359  60.186  1.00  0.00     0.068 C 
HETATM   18  C   UNL     1       7.320  30.175  57.989  1.00  0.00     0.069 A 
ENDBRANCH   7  10
ENDBRANCH   1   4
BRANCH   1  19
HETATM   19  C   UNL     1       5.575  25.213  55.734  1.00  0.00     0.277 C 
BRANCH  19  20
HETATM   20  C   UNL     1       6.822  24.876  56.467  1.00  0.00     0.016 A 
HETATM   21  C   UNL     1       7.775  23.833  56.227  1.00  0.00     0.099 A 
HETATM   22  N   UNL     1       8.697  23.815  57.200  1.00  0.00    -0.174 NA
HETATM   23  N   UNL     1       8.449  24.890  57.952  1.00  0.00    -0.288 N 
HETATM   24  H   UNL     1       9.087  25.105  58.716  1.00  0.00     0.188 HD
HETATM   25  C   UNL     1       7.311  25.539  57.580  1.00  0.00     0.120 A 
BRANCH  21  26
HETATM   26  C   UNL     1       7.838  22.822  55.171  1.00  0.00     0.034 A 
HETATM   27  C   UNL     1       8.180  23.144  53.855  1.00  0.00     0.129 A 
HETATM   28  F   UNL     1       8.414  24.414  53.499  1.00  0.00    -0.205 F 
HETATM   29  C   UNL     1       8.297  22.160  52.873  1.00  0.00     0.043 A 
HETATM   30  C   UNL     1       8.080  20.824  53.202  1.00  0.00     0.003 A 
HETATM   31  C   UNL     1       7.744  20.479  54.510  1.00  0.00     0.001 A 
HETATM   32  C   UNL     1       7.627  21.471  55.488  1.00  0.00     0.017 A 
ENDBRANCH  21  26
ENDBRANCH  19  20
ENDBRANCH   1  19
TORSDOF 5
ENDMDL
MODEL 6
REMARK VINA RESULT:      -9.3      2.195      3.137
REMARK  5 active torsions:
REMARK  status: ('A' for Active; 'I' for Inactive)
REMARK    1  A    between atoms: C_8  and  N_9 
REMARK    2  A    between atoms: C_12  and  N_13 
REMARK    3  A    between atoms: N_13  and  C_15 
REMARK    4  A    between atoms: C_15  and  C_16 
REMARK    5  A    between atoms: C_17  and  C_18 
ROOT
HETATM    1  N   UNL     1       6.421  26.835  54.818  1.00  0.00    -0.067 N 
HETATM    2  H   UNL     1       7.172  27.193  55.419  1.00  0.00     0.280 HD
HETATM    3  C   UNL     1       6.992  26.757  53.417  1.00  0.00     0.270 C 
ENDROOT
BRANCH   1   4
HETATM    4  C   UNL     1       5.172  27.728  54.962  1.00  0.00     0.190 C 
HETATM    5  C   UNL     1       4.576  27.619  56.375  1.00  0.00     0.048 C 
HETATM    6  C   UNL     1       5.358  28.410  57.425  1.00  0.00     0.099 C 
HETATM    7  N   UNL     1       5.500  29.801  56.975  1.00  0.00    -0.268 NA
HETATM    8  C   UNL     1       6.194  29.959  55.693  1.00  0.00     0.099 C 
HETATM    9  C   UNL     1       5.415  29.207  54.617  1.00  0.00     0.048 C 
BRANCH   7  10
HETATM   10  C   UNL     1       5.894  30.699  57.979  1.00  0.00     0.109 A 
HETATM   11  N   UNL     1       4.982  31.518  58.533  1.00  0.00    -0.224 NA
HETATM   12  C   UNL     1       5.406  32.425  59.449  1.00  0.00     0.102 A 
HETATM   13  N   UNL     1       6.686  32.547  59.822  1.00  0.00    -0.348 N 
HETATM   14  C   UNL     1       4.396  33.361  60.034  1.00  0.00     0.091 C 
HETATM   15  C   UNL     1       7.621  31.745  59.291  1.00  0.00     0.009 A 
HETATM   16  H   UNL     1       6.944  33.262  60.501  1.00  0.00     0.167 HD
HETATM   17  C   UNL     1       9.045  31.911  59.708  1.00  0.00     0.068 C 
HETATM   18  C   UNL     1       7.233  30.795  58.344  1.00  0.00     0.069 A 
ENDBRANCH   7  10
ENDBRANCH   1   4
BRANCH   1  19
HETATM   19  C   UNL     1       6.137  25.408  55.324  1.00  0.00     0.277 C 
BRANCH  19  20
HETATM   20  C   UNL     1       7.162  24.882  56.259  1.00  0.00     0.016 A 
HETATM   21  C   UNL     1       7.951  23.688  56.181  1.00  0.00     0.099 A 
HETATM   22  N   UNL     1       8.674  23.535  57.298  1.00  0.00    -0.174 NA
HETATM   23  N   UNL     1       8.487  24.653  58.005  1.00  0.00    -0.288 N 
HETATM   24  H   UNL     1       9.010  24.774  58.870  1.00  0.00     0.188 HD
HETATM   25  C   UNL     1       7.557  25.476  57.446  1.00  0.00     0.120 A 
BRANCH  21  26
HETATM   26  C   UNL     1       8.024  22.658  55.144  1.00  0.00     0.034 A 
HETATM   27  C   UNL     1       7.907  21.297  55.439  1.00  0.00     0.129 A 
HETATM   28  F   UNL     1       7.773  20.880  56.705  1.00  0.00    -0.205 F 
HETATM   29  C   UNL     1       7.915  20.332  54.432  1.00  0.00     0.043 A 
HETATM   30  C   UNL     1       8.034  20.721  53.100  1.00  0.00     0.003 A 
HETATM   31  C   UNL     1       8.146  22.073  52.782  1.00  0.00     0.001 A 
HETATM   32  C   UNL     1       8.138  23.035  53.796  1.00  0.00     0.017 A 
ENDBRANCH  21  26
ENDBRANCH  19  20
ENDBRANCH   1  19
TORSDOF 5
ENDMDL
MODEL 7
REMARK VINA RESULT:      -9.2      2.628      7.546
REMARK  5 active torsions:
REMARK  status: ('A' for Active; 'I' for Inactive)
REMARK    1  A    between atoms: C_8  and  N_9 
REMARK    2  A    between atoms: C_12  and  N_13 
REMARK    3  A    between atoms: N_13  and  C_15 
REMARK    4  A    between atoms: C_15  and  C_16 
REMARK    5  A    between atoms: C_17  and  C_18 
ROOT
HETATM    1  N   UNL     1       5.103  27.861  54.507  1.00  0.00    -0.067 N 
HETATM    2  H   UNL     1       4.716  27.104  55.082  1.00  0.00     0.280 HD
HETATM    3  C   UNL     1       3.995  28.879  54.333  1.00  0.00     0.270 C 
ENDROOT
BRANCH   1   4
HETATM    4  C   UNL     1       5.663  27.279  53.194  1.00  0.00     0.190 C 
HETATM    5  C   UNL     1       7.186  27.080  53.283  1.00  0.00     0.048 C 
HETATM    6  C   UNL     1       7.589  25.847  54.093  1.00  0.00     0.099 C 
HETATM    7  N   UNL     1       6.894  24.669  53.558  1.00  0.00    -0.268 NA
HETATM    8  C   UNL     1       5.431  24.759  53.587  1.00  0.00     0.099 C 
HETATM    9  C   UNL     1       4.997  25.964  52.756  1.00  0.00     0.048 C 
BRANCH   7  10
HETATM   10  C   UNL     1       7.424  23.440  53.982  1.00  0.00     0.109 A 
HETATM   11  N   UNL     1       7.697  22.486  53.075  1.00  0.00    -0.224 NA
HETATM   12  C   UNL     1       8.140  21.283  53.522  1.00  0.00     0.102 A 
HETATM   13  N   UNL     1       8.310  21.000  54.820  1.00  0.00    -0.348 N 
HETATM   14  C   UNL     1       8.406  20.211  52.513  1.00  0.00     0.091 C 
HETATM   15  C   UNL     1       8.048  21.930  55.750  1.00  0.00     0.009 A 
HETATM   16  H   UNL     1       8.627  20.071  55.092  1.00  0.00     0.167 HD
HETATM   17  C   UNL     1       8.228  21.586  57.193  1.00  0.00     0.068 C 
HETATM   18  C   UNL     1       7.591  23.183  55.339  1.00  0.00     0.069 A 
ENDBRANCH   7  10
ENDBRANCH   1   4
BRANCH   1  19
HETATM   19  C   UNL     1       6.228  28.484  55.355  1.00  0.00     0.277 C 
BRANCH  19  20
HETATM   20  C   UNL     1       6.664  27.641  56.496  1.00  0.00     0.016 A 
HETATM   21  C   UNL     1       7.764  27.814  57.399  1.00  0.00     0.099 A 
HETATM   22  N   UNL     1       7.866  26.755  58.214  1.00  0.00    -0.174 NA
HETATM   23  N   UNL     1       6.794  26.001  57.962  1.00  0.00    -0.288 N 
HETATM   24  H   UNL     1       6.639  25.171  58.531  1.00  0.00     0.188 HD
HETATM   25  C   UNL     1       6.061  26.465  56.912  1.00  0.00     0.120 A 
BRANCH  21  26
HETATM   26  C   UNL     1       8.754  28.886  57.503  1.00  0.00     0.034 A 
HETATM   27  C   UNL     1       8.611  29.944  58.406  1.00  0.00     0.129 A 
HETATM   28  F   UNL     1       7.522  30.039  59.182  1.00  0.00    -0.205 F 
HETATM   29  C   UNL     1       9.593  30.925  58.538  1.00  0.00     0.043 A 
HETATM   30  C   UNL     1      10.749  30.856  57.765  1.00  0.00     0.003 A 
HETATM   31  C   UNL     1      10.916  29.808  56.862  1.00  0.00     0.001 A 
HETATM   32  C   UNL     1       9.927  28.829  56.734  1.00  0.00     0.017 A 
ENDBRANCH  21  26
ENDBRANCH  19  20
ENDBRANCH   1  19
TORSDOF 5
ENDMDL
MODEL 8
REMARK VINA RESULT:      -9.1      1.907      3.303
REMARK  5 active torsions:
REMARK  status: ('A' for Active; 'I' for Inactive)
REMARK    1  A    between atoms: C_8  and  N_9 
REMARK    2  A    between atoms: C_12  and  N_13 
REMARK    3  A    between atoms: N_13  and  C_15 
REMARK    4  A    between atoms: C_15  and  C_16 
REMARK    5  A    between atoms: C_17  and  C_18 
ROOT
HETATM    1  N   UNL     1       6.778  27.528  55.794  1.00  0.00    -0.067 N 
HETATM    2  H   UNL     1       5.759  27.436  55.701  1.00  0.00     0.280 HD
HETATM    3  C   UNL     1       7.137  26.979  57.159  1.00  0.00     0.270 C 
ENDROOT
BRANCH   1   4
HETATM    4  C   UNL     1       7.188  28.995  55.554  1.00  0.00     0.190 C 
HETATM    5  C   UNL     1       6.154  29.963  56.154  1.00  0.00     0.048 C 
HETATM    6  C   UNL     1       6.262  30.099  57.673  1.00  0.00     0.099 C 
HETATM    7  N   UNL     1       7.642  30.453  58.029  1.00  0.00    -0.268 NA
HETATM    8  C   UNL     1       8.651  29.480  57.598  1.00  0.00     0.099 C 
HETATM    9  C   UNL     1       8.589  29.348  56.079  1.00  0.00     0.048 C 
BRANCH   7  10
HETATM   10  C   UNL     1       7.799  30.933  59.338  1.00  0.00     0.109 A 
HETATM   11  N   UNL     1       8.671  30.331  60.167  1.00  0.00    -0.224 NA
HETATM   12  C   UNL     1       8.748  30.773  61.448  1.00  0.00     0.102 A 
HETATM   13  N   UNL     1       7.995  31.772  61.927  1.00  0.00    -0.348 N 
HETATM   14  C   UNL     1       9.689  30.075  62.379  1.00  0.00     0.091 C 
HETATM   15  C   UNL     1       7.119  32.395  61.126  1.00  0.00     0.009 A 
HETATM   16  H   UNL     1       8.087  32.044  62.905  1.00  0.00     0.167 HD
HETATM   17  C   UNL     1       6.277  33.495  61.685  1.00  0.00     0.068 C 
HETATM   18  C   UNL     1       7.003  31.977  59.799  1.00  0.00     0.069 A 
ENDBRANCH   7  10
ENDBRANCH   1   4
BRANCH   1  19
HETATM   19  C   UNL     1       7.373  26.608  54.711  1.00  0.00     0.277 C 
BRANCH  19  20
HETATM   20  C   UNL     1       6.356  25.923  53.873  1.00  0.00     0.016 A 
HETATM   21  C   UNL     1       6.249  24.542  53.503  1.00  0.00     0.099 A 
HETATM   22  N   UNL     1       5.241  24.371  52.638  1.00  0.00    -0.174 NA
HETATM   23  N   UNL     1       4.622  25.551  52.566  1.00  0.00    -0.288 N 
HETATM   24  H   UNL     1       3.772  25.622  52.009  1.00  0.00     0.188 HD
HETATM   25  C   UNL     1       5.274  26.528  53.256  1.00  0.00     0.120 A 
BRANCH  21  26
HETATM   26  C   UNL     1       7.070  23.389  53.873  1.00  0.00     0.034 A 
HETATM   27  C   UNL     1       7.235  22.989  55.202  1.00  0.00     0.129 A 
HETATM   28  F   UNL     1       6.679  23.689  56.201  1.00  0.00    -0.205 F 
HETATM   29  C   UNL     1       7.969  21.851  55.533  1.00  0.00     0.043 A 
HETATM   30  C   UNL     1       8.549  21.083  54.526  1.00  0.00     0.003 A 
HETATM   31  C   UNL     1       8.394  21.459  53.193  1.00  0.00     0.001 A 
HETATM   32  C   UNL     1       7.657  22.603  52.869  1.00  0.00     0.017 A 
ENDBRANCH  21  26
ENDBRANCH  19  20
ENDBRANCH   1  19
TORSDOF 5
ENDMDL
MODEL 9
REMARK VINA RESULT:      -8.8      2.678      6.916
REMARK  5 active torsions:
REMARK  status: ('A' for Active; 'I' for Inactive)
REMARK    1  A    between atoms: C_8  and  N_9 
REMARK    2  A    between atoms: C_12  and  N_13 
REMARK    3  A    between atoms: N_13  and  C_15 
REMARK    4  A    between atoms: C_15  and  C_16 
REMARK    5  A    between atoms: C_17  and  C_18 
ROOT
HETATM    1  N   UNL     1       4.552  28.098  53.218  1.00  0.00    -0.067 N 
HETATM    2  H   UNL     1       4.550  27.498  54.051  1.00  0.00     0.280 HD
HETATM    3  C   UNL     1       3.114  28.201  52.757  1.00  0.00     0.270 C 
ENDROOT
BRANCH   1   4
HETATM    4  C   UNL     1       5.531  27.526  52.172  1.00  0.00     0.190 C 
HETATM    5  C   UNL     1       6.964  27.472  52.728  1.00  0.00     0.048 C 
HETATM    6  C   UNL     1       7.194  26.309  53.694  1.00  0.00     0.099 C 
HETATM    7  N   UNL     1       6.789  25.055  53.046  1.00  0.00    -0.268 NA
HETATM    8  C   UNL     1       5.385  25.011  52.626  1.00  0.00     0.099 C 
HETATM    9  C   UNL     1       5.134  26.142  51.633  1.00  0.00     0.048 C 
BRANCH   7  10
HETATM   10  C   UNL     1       7.257  23.894  53.682  1.00  0.00     0.109 A 
HETATM   11  N   UNL     1       7.485  23.909  55.008  1.00  0.00    -0.224 NA
HETATM   12  C   UNL     1       8.004  22.795  55.582  1.00  0.00     0.102 A 
HETATM   13  N   UNL     1       8.307  21.687  54.893  1.00  0.00    -0.348 N 
HETATM   14  C   UNL     1       8.294  22.827  57.050  1.00  0.00     0.091 C 
HETATM   15  C   UNL     1       8.091  21.638  53.570  1.00  0.00     0.009 A 
HETATM   16  H   UNL     1       8.714  20.890  55.380  1.00  0.00     0.167 HD
HETATM   17  C   UNL     1       8.453  20.399  52.818  1.00  0.00     0.068 C 
HETATM   18  C   UNL     1       7.556  22.761  52.934  1.00  0.00     0.069 A 
ENDBRANCH   7  10
ENDBRANCH   1   4
BRANCH   1  19
HETATM   19  C   UNL     1       5.022  29.481  53.710  1.00  0.00     0.277 C 
BRANCH  19  20
HETATM   20  C   UNL     1       4.540  29.835  55.069  1.00  0.00     0.016 A 
HETATM   21  C   UNL     1       5.008  29.400  56.352  1.00  0.00     0.099 A 
HETATM   22  N   UNL     1       4.213  29.876  57.321  1.00  0.00    -0.174 NA
HETATM   23  N   UNL     1       3.362  30.706  56.714  1.00  0.00    -0.288 N 
HETATM   24  H   UNL     1       2.708  31.235  57.288  1.00  0.00     0.188 HD
HETATM   25  C   UNL     1       3.487  30.688  55.359  1.00  0.00     0.120 A 
BRANCH  21  26
HETATM   26  C   UNL     1       6.121  28.524  56.715  1.00  0.00     0.034 A 
HETATM   27  C   UNL     1       5.928  27.188  57.077  1.00  0.00     0.129 A 
HETATM   28  F   UNL     1       4.694  26.671  57.154  1.00  0.00    -0.205 F 
HETATM   29  C   UNL     1       7.005  26.348  57.360  1.00  0.00     0.043 A 
HETATM   30  C   UNL     1       8.307  26.838  57.275  1.00  0.00     0.003 A 
HETATM   31  C   UNL     1       8.524  28.165  56.910  1.00  0.00     0.001 A 
HETATM   32  C   UNL     1       7.439  29.001  56.629  1.00  0.00     0.017 A 
ENDBRANCH  21  26
ENDBRANCH  19  20
ENDBRANCH   1  19
TORSDOF 5
ENDMDL
MODEL 10
REMARK VINA RESULT:      -8.7      3.519      8.315
REMARK  5 active torsions:
REMARK  status: ('A' for Active; 'I' for Inactive)
REMARK    1  A    between atoms: C_8  and  N_9 
REMARK    2  A    between atoms: C_12  and  N_13 
REMARK    3  A    between atoms: N_13  and  C_15 
REMARK    4  A    between atoms: C_15  and  C_16 
REMARK    5  A    between atoms: C_17  and  C_18 
ROOT
HETATM    1  N   UNL     1       7.438  27.346  56.843  1.00  0.00    -0.067 N 
HETATM    2  H   UNL     1       7.922  27.727  56.021  1.00  0.00     0.280 HD
HETATM    3  C   UNL     1       8.240  26.145  57.297  1.00  0.00     0.270 C 
ENDROOT
BRANCH   1   4
HETATM    4  C   UNL     1       5.968  27.049  56.485  1.00  0.00     0.190 C 
HETATM    5  C   UNL     1       5.250  28.320  56.000  1.00  0.00     0.048 C 
HETATM    6  C   UNL     1       5.603  28.704  54.563  1.00  0.00     0.099 C 
HETATM    7  N   UNL     1       5.371  27.551  53.683  1.00  0.00    -0.268 NA
HETATM    8  C   UNL     1       6.148  26.356  54.027  1.00  0.00     0.099 C 
HETATM    9  C   UNL     1       5.789  25.928  55.448  1.00  0.00     0.048 C 
BRANCH   7  10
HETATM   10  C   UNL     1       5.331  27.862  52.316  1.00  0.00     0.109 A 
HETATM   11  N   UNL     1       5.595  29.118  51.912  1.00  0.00    -0.224 NA
HETATM   12  C   UNL     1       5.479  29.405  50.590  1.00  0.00     0.102 A 
HETATM   13  N   UNL     1       5.107  28.503  49.673  1.00  0.00    -0.348 N 
HETATM   14  C   UNL     1       5.735  30.812  50.149  1.00  0.00     0.091 C 
HETATM   15  C   UNL     1       4.838  27.241  50.042  1.00  0.00     0.009 A 
HETATM   16  H   UNL     1       5.018  28.786  48.699  1.00  0.00     0.167 HD
HETATM   17  C   UNL     1       4.408  26.256  49.005  1.00  0.00     0.068 C 
HETATM   18  C   UNL     1       4.945  26.897  51.391  1.00  0.00     0.069 A 
ENDBRANCH   7  10
ENDBRANCH   1   4
BRANCH   1  19
HETATM   19  C   UNL     1       7.529  28.446  57.918  1.00  0.00     0.277 C 
BRANCH  19  20
HETATM   20  C   UNL     1       8.702  29.344  57.767  1.00  0.00     0.016 A 
HETATM   21  C   UNL     1       9.149  30.419  58.602  1.00  0.00     0.099 A 
HETATM   22  N   UNL     1      10.191  31.044  58.036  1.00  0.00    -0.174 NA
HETATM   23  N   UNL     1      10.508  30.317  56.962  1.00  0.00    -0.288 N 
HETATM   24  H   UNL     1      11.328  30.582  56.421  1.00  0.00     0.188 HD
HETATM   25  C   UNL     1       9.621  29.309  56.731  1.00  0.00     0.120 A 
BRANCH  21  26
HETATM   26  C   UNL     1       8.623  30.925  59.870  1.00  0.00     0.034 A 
HETATM   27  C   UNL     1       7.478  31.724  59.933  1.00  0.00     0.129 A 
HETATM   28  F   UNL     1       6.844  32.101  58.814  1.00  0.00    -0.205 F 
HETATM   29  C   UNL     1       6.953  32.147  61.154  1.00  0.00     0.043 A 
HETATM   30  C   UNL     1       7.569  31.764  62.343  1.00  0.00     0.003 A 
HETATM   31  C   UNL     1       8.709  30.963  62.305  1.00  0.00     0.001 A 
HETATM   32  C   UNL     1       9.230  30.545  61.077  1.00  0.00     0.017 A 
ENDBRANCH  21  26
ENDBRANCH  19  20
ENDBRANCH   1  19
TORSDOF 5
ENDMDL
