MODEL 1
REMARK VINA RESULT:      -9.0      0.000      0.000
REMARK  7 active torsions:
REMARK  status: ('A' for Active; 'I' for Inactive)
REMARK    1  A    between atoms: C_7  and  C_8 
REMARK    2  A    between atoms: C_8  and  C_9 
REMARK    3  A    between atoms: C_9  and  C_10 
REMARK    4  A    between atoms: C_10  and  O_11 
REMARK    5  A    between atoms: C_13  and  C_14 
REMARK    6  A    between atoms: C_21  and  C_22 
REMARK       I    between atoms: C_22  and  N_23 
REMARK    7  A    between atoms: N_23  and  C_24 
ROOT
HETATM    1  C   UNL     1       4.844  28.252  53.573  1.00  0.00     0.070 C 
HETATM    2  C   UNL     1       5.317  29.004  54.794  1.00  0.00     0.037 C 
HETATM    3  N   UNL     1       5.057  30.377  54.790  1.00  0.00    -0.192 N 
HETATM    4  C   UNL     1       5.139  31.125  55.909  1.00  0.00     0.726 A 
HETATM    5  N   UNL     1       5.777  30.611  57.002  1.00  0.00    -0.083 N 
HETATM    6  N   UNL     1       5.673  31.424  58.071  1.00  0.00    -0.140 NA
HETATM    7  C   UNL     1       4.978  32.440  57.539  1.00  0.00     0.166 A 
HETATM    8  N   UNL     1       4.645  32.298  56.210  1.00  0.00    -0.046 NA
HETATM    9  C   UNL     1       6.412  29.293  57.028  1.00  0.00     0.202 C 
HETATM   10  C   UNL     1       5.940  28.432  55.859  1.00  0.00     0.062 C 
HETATM   11  H   UNL     1       4.453  30.720  54.046  1.00  0.00     0.184 HD
ENDROOT
BRANCH  10  12
HETATM   12  C   UNL     1       5.963  26.943  56.030  1.00  0.00     0.256 C 
HETATM   13  N   UNL     1       7.055  26.309  55.475  1.00  0.00    -0.323 N 
HETATM   14  H   UNL     1       7.682  26.849  54.895  1.00  0.00     0.169 HD
HETATM   15  O   UNL     1       5.080  26.402  56.687  1.00  0.00    -0.267 OA
BRANCH  13  16
HETATM   16  C   UNL     1       7.429  24.956  55.638  1.00  0.00     0.035 A 
HETATM   17  C   UNL     1       7.152  23.947  54.712  1.00  0.00     0.031 A 
HETATM   18  C   UNL     1       7.533  22.624  54.966  1.00  0.00     0.026 A 
HETATM   19  C   UNL     1       8.186  22.304  56.152  1.00  0.00     0.034 A 
HETATM   20 CL   UNL     1       8.639  20.676  56.470  1.00  0.00    -0.084 Cl
HETATM   21  C   UNL     1       8.471  23.298  57.084  1.00  0.00     0.026 A 
HETATM   22  C   UNL     1       8.099  24.620  56.824  1.00  0.00     0.031 A 
ENDBRANCH  13  16
ENDBRANCH  10  12
BRANCH   9  23
HETATM   23  C   UNL     1       7.931  29.483  57.076  1.00  0.00    -0.028 A 
HETATM   24  C   UNL     1       8.554  29.794  58.300  1.00  0.00     0.012 A 
HETATM   25  C   UNL     1       9.937  29.974  58.368  1.00  0.00     0.043 A 
HETATM   26  C   UNL     1      10.705  29.851  57.217  1.00  0.00     0.116 A 
HETATM   27  F   UNL     1      12.031  30.022  57.285  1.00  0.00    -0.206 F 
HETATM   28  C   UNL     1      10.114  29.559  55.993  1.00  0.00     0.043 A 
HETATM   29  C   UNL     1       8.731  29.382  55.921  1.00  0.00     0.012 A 
ENDBRANCH   9  23
BRANCH   7  30
HETATM   30  C   UNL     1       4.545  33.611  58.345  1.00  0.00     0.085 C 
BRANCH  30  31
HETATM   31  C   UNL     1       4.503  33.323  59.846  1.00  0.00     0.034 C 
BRANCH  31  32
HETATM   32  C   UNL     1       3.163  32.765  60.315  1.00  0.00     0.164 C 
BRANCH  32  33
HETATM   33  O   UNL     1       3.221  31.343  60.348  1.00  0.00    -0.401 OA
HETATM   34  H   UNL     1       2.567  31.006  59.712  1.00  0.00     0.209 HD
ENDBRANCH  32  33
ENDBRANCH  31  32
ENDBRANCH  30  31
ENDBRANCH   7  30
TORSDOF 7
ENDMDL
MODEL 2
REMARK VINA RESULT:      -9.0      4.204      7.893
REMARK  7 active torsions:
REMARK  status: ('A' for Active; 'I' for Inactive)
REMARK    1  A    between atoms: C_7  and  C_8 
REMARK    2  A    between atoms: C_8  and  C_9 
REMARK    3  A    between atoms: C_9  and  C_10 
REMARK    4  A    between atoms: C_10  and  O_11 
REMARK    5  A    between atoms: C_13  and  C_14 
REMARK    6  A    between atoms: C_21  and  C_22 
REMARK       I    between atoms: C_22  and  N_23 
REMARK    7  A    between atoms: N_23  and  C_24 
ROOT
HETATM    1  C   UNL     1       4.464  27.992  56.395  1.00  0.00     0.070 C 
HETATM    2  C   UNL     1       5.124  27.340  55.204  1.00  0.00     0.037 C 
HETATM    3  N   UNL     1       4.282  27.086  54.117  1.00  0.00    -0.192 N 
HETATM    4  C   UNL     1       4.763  26.794  52.891  1.00  0.00     0.726 A 
HETATM    5  N   UNL     1       6.075  26.439  52.764  1.00  0.00    -0.083 N 
HETATM    6  N   UNL     1       6.432  26.295  51.472  1.00  0.00    -0.140 NA
HETATM    7  C   UNL     1       5.262  26.549  50.866  1.00  0.00     0.166 A 
HETATM    8  N   UNL     1       4.212  26.845  51.706  1.00  0.00    -0.046 NA
HETATM    9  C   UNL     1       7.000  26.326  53.891  1.00  0.00     0.202 C 
HETATM   10  C   UNL     1       6.443  27.019  55.132  1.00  0.00     0.062 C 
HETATM   11  H   UNL     1       3.348  27.487  54.167  1.00  0.00     0.184 HD
ENDROOT
BRANCH  10  12
HETATM   12  C   UNL     1       7.419  27.544  56.141  1.00  0.00     0.256 C 
HETATM   13  N   UNL     1       7.451  28.917  56.261  1.00  0.00    -0.323 N 
HETATM   14  H   UNL     1       6.931  29.471  55.596  1.00  0.00     0.169 HD
HETATM   15  O   UNL     1       8.059  26.751  56.824  1.00  0.00    -0.267 OA
BRANCH  13  16
HETATM   16  C   UNL     1       8.129  29.672  57.245  1.00  0.00     0.035 A 
HETATM   17  C   UNL     1       9.501  29.933  57.228  1.00  0.00     0.031 A 
HETATM   18  C   UNL     1      10.100  30.666  58.260  1.00  0.00     0.026 A 
HETATM   19  C   UNL     1       9.328  31.132  59.319  1.00  0.00     0.034 A 
HETATM   20 CL   UNL     1      10.067  32.018  60.595  1.00  0.00    -0.084 Cl
HETATM   21  C   UNL     1       7.959  30.882  59.351  1.00  0.00     0.026 A 
HETATM   22  C   UNL     1       7.362  30.159  58.313  1.00  0.00     0.031 A 
ENDBRANCH  13  16
ENDBRANCH  10  12
BRANCH   9  23
HETATM   23  C   UNL     1       7.326  24.845  54.110  1.00  0.00    -0.028 A 
HETATM   24  C   UNL     1       8.009  24.129  53.108  1.00  0.00     0.012 A 
HETATM   25  C   UNL     1       8.315  22.778  53.284  1.00  0.00     0.043 A 
HETATM   26  C   UNL     1       7.936  22.133  54.454  1.00  0.00     0.116 A 
HETATM   27  F   UNL     1       8.232  20.837  54.621  1.00  0.00    -0.206 F 
HETATM   28  C   UNL     1       7.248  22.812  55.453  1.00  0.00     0.043 A 
HETATM   29  C   UNL     1       6.937  24.162  55.279  1.00  0.00     0.012 A 
ENDBRANCH   9  23
BRANCH   7  30
HETATM   30  C   UNL     1       5.126  26.569  49.387  1.00  0.00     0.085 C 
BRANCH  30  31
HETATM   31  C   UNL     1       4.857  27.966  48.828  1.00  0.00     0.034 C 
BRANCH  31  32
HETATM   32  C   UNL     1       5.355  28.148  47.397  1.00  0.00     0.164 C 
BRANCH  32  33
HETATM   33  O   UNL     1       5.992  26.954  46.956  1.00  0.00    -0.401 OA
HETATM   34  H   UNL     1       5.814  26.860  46.004  1.00  0.00     0.209 HD
ENDBRANCH  32  33
ENDBRANCH  31  32
ENDBRANCH  30  31
ENDBRANCH   7  30
TORSDOF 7
ENDMDL
MODEL 3
REMARK VINA RESULT:      -8.8      2.621      3.176
REMARK  7 active torsions:
REMARK  status: ('A' for Active; 'I' for Inactive)
REMARK    1  A    between atoms: C_7  and  C_8 
REMARK    2  A    between atoms: C_8  and  C_9 
REMARK    3  A    between atoms: C_9  and  C_10 
REMARK    4  A    between atoms: C_10  and  O_11 
REMARK    5  A    between atoms: C_13  and  C_14 
REMARK    6  A    between atoms: C_21  and  C_22 
REMARK       I    between atoms: C_22  and  N_23 
REMARK    7  A    between atoms: N_23  and  C_24 
ROOT
HETATM    1  C   UNL     1       5.477  27.199  50.964  1.00  0.00     0.070 C 
HETATM    2  C   UNL     1       5.241  27.808  52.325  1.00  0.00     0.037 C 
HETATM    3  N   UNL     1       4.792  29.132  52.320  1.00  0.00    -0.192 N 
HETATM    4  C   UNL     1       4.255  29.711  53.413  1.00  0.00     0.726 A 
HETATM    5  N   UNL     1       4.424  29.110  54.628  1.00  0.00    -0.083 N 
HETATM    6  N   UNL     1       3.733  29.741  55.598  1.00  0.00    -0.140 NA
HETATM    7  C   UNL     1       3.188  30.746  54.897  1.00  0.00     0.166 A 
HETATM    8  N   UNL     1       3.498  30.767  53.555  1.00  0.00    -0.046 NA
HETATM    9  C   UNL     1       5.185  27.878  54.828  1.00  0.00     0.202 C 
HETATM   10  C   UNL     1       5.417  27.154  53.504  1.00  0.00     0.062 C 
HETATM   11  H   UNL     1       4.530  29.515  51.415  1.00  0.00     0.184 HD
ENDROOT
BRANCH  10  12
HETATM   12  C   UNL     1       5.601  25.667  53.540  1.00  0.00     0.256 C 
HETATM   13  N   UNL     1       6.905  25.244  53.688  1.00  0.00    -0.323 N 
HETATM   14  H   UNL     1       7.644  25.931  53.633  1.00  0.00     0.169 HD
HETATM   15  O   UNL     1       4.613  24.940  53.507  1.00  0.00    -0.267 OA
BRANCH  13  16
HETATM   16  C   UNL     1       7.352  23.926  53.935  1.00  0.00     0.035 A 
HETATM   17  C   UNL     1       7.769  23.038  52.940  1.00  0.00     0.031 A 
HETATM   18  C   UNL     1       8.168  21.737  53.269  1.00  0.00     0.026 A 
HETATM   19  C   UNL     1       8.144  21.316  54.595  1.00  0.00     0.034 A 
HETATM   20 CL   UNL     1       8.620  19.713  54.996  1.00  0.00    -0.084 Cl
HETATM   21  C   UNL     1       7.734  22.190  55.598  1.00  0.00     0.026 A 
HETATM   22  C   UNL     1       7.345  23.492  55.269  1.00  0.00     0.031 A 
ENDBRANCH  13  16
ENDBRANCH  10  12
BRANCH   9  23
HETATM   23  C   UNL     1       6.478  28.216  55.577  1.00  0.00    -0.028 A 
HETATM   24  C   UNL     1       6.542  28.027  56.971  1.00  0.00     0.012 A 
HETATM   25  C   UNL     1       7.709  28.332  57.675  1.00  0.00     0.043 A 
HETATM   26  C   UNL     1       8.813  28.831  56.996  1.00  0.00     0.116 A 
HETATM   27  F   UNL     1       9.931  29.120  57.674  1.00  0.00    -0.206 F 
HETATM   28  C   UNL     1       8.772  29.040  55.623  1.00  0.00     0.043 A 
HETATM   29  C   UNL     1       7.605  28.741  54.916  1.00  0.00     0.012 A 
ENDBRANCH   9  23
BRANCH   7  30
HETATM   30  C   UNL     1       2.265  31.733  55.514  1.00  0.00     0.085 C 
BRANCH  30  31
HETATM   31  C   UNL     1       1.941  32.909  54.592  1.00  0.00     0.034 C 
BRANCH  31  32
HETATM   32  C   UNL     1       0.513  33.424  54.752  1.00  0.00     0.164 C 
BRANCH  32  33
HETATM   33  O   UNL     1      -0.302  32.406  55.322  1.00  0.00    -0.401 OA
HETATM   34  H   UNL     1      -0.109  31.577  54.853  1.00  0.00     0.209 HD
ENDBRANCH  32  33
ENDBRANCH  31  32
ENDBRANCH  30  31
ENDBRANCH   7  30
TORSDOF 7
ENDMDL
MODEL 4
REMARK VINA RESULT:      -8.6      4.019      7.770
REMARK  7 active torsions:
REMARK  status: ('A' for Active; 'I' for Inactive)
REMARK    1  A    between atoms: C_7  and  C_8 
REMARK    2  A    between atoms: C_8  and  C_9 
REMARK    3  A    between atoms: C_9  and  C_10 
REMARK    4  A    between atoms: C_10  and  O_11 
REMARK    5  A    between atoms: C_13  and  C_14 
REMARK    6  A    between atoms: C_21  and  C_22 
REMARK       I    between atoms: C_22  and  N_23 
REMARK    7  A    between atoms: N_23  and  C_24 
ROOT
HETATM    1  C   UNL     1       9.967  29.723  55.909  1.00  0.00     0.070 C 
HETATM    2  C   UNL     1       8.564  29.209  55.692  1.00  0.00     0.037 C 
HETATM    3  N   UNL     1       8.307  28.688  54.420  1.00  0.00    -0.192 N 
HETATM    4  C   UNL     1       7.222  27.929  54.163  1.00  0.00     0.726 A 
HETATM    5  N   UNL     1       6.198  27.912  55.066  1.00  0.00    -0.083 N 
HETATM    6  N   UNL     1       5.246  27.021  54.727  1.00  0.00    -0.140 NA
HETATM    7  C   UNL     1       5.750  26.550  53.576  1.00  0.00     0.166 A 
HETATM    8  N   UNL     1       6.955  27.095  53.192  1.00  0.00    -0.046 NA
HETATM    9  C   UNL     1       6.188  28.699  56.299  1.00  0.00     0.202 C 
HETATM   10  C   UNL     1       7.587  29.210  56.637  1.00  0.00     0.062 C 
HETATM   11  H   UNL     1       9.113  28.569  53.810  1.00  0.00     0.184 HD
ENDROOT
BRANCH  10  12
HETATM   12  C   UNL     1       7.908  29.476  58.077  1.00  0.00     0.256 C 
HETATM   13  N   UNL     1       7.929  30.807  58.434  1.00  0.00    -0.323 N 
HETATM   14  H   UNL     1       7.860  31.503  57.704  1.00  0.00     0.169 HD
HETATM   15  O   UNL     1       8.059  28.528  58.841  1.00  0.00    -0.267 OA
BRANCH  13  16
HETATM   16  C   UNL     1       8.019  31.339  59.740  1.00  0.00     0.035 A 
HETATM   17  C   UNL     1       9.167  31.280  60.535  1.00  0.00     0.031 A 
HETATM   18  C   UNL     1       9.161  31.806  61.833  1.00  0.00     0.026 A 
HETATM   19  C   UNL     1       8.005  32.387  62.343  1.00  0.00     0.034 A 
HETATM   20 CL   UNL     1       7.995  33.019  63.942  1.00  0.00    -0.084 Cl
HETATM   21  C   UNL     1       6.855  32.456  61.562  1.00  0.00     0.026 A 
HETATM   22  C   UNL     1       6.865  31.939  60.263  1.00  0.00     0.031 A 
ENDBRANCH  13  16
ENDBRANCH  10  12
BRANCH   9  23
HETATM   23  C   UNL     1       5.145  29.813  56.160  1.00  0.00    -0.028 A 
HETATM   24  C   UNL     1       4.468  30.276  57.304  1.00  0.00     0.012 A 
HETATM   25  C   UNL     1       3.511  31.289  57.202  1.00  0.00     0.043 A 
HETATM   26  C   UNL     1       3.221  31.839  55.960  1.00  0.00     0.116 A 
HETATM   27  F   UNL     1       2.305  32.811  55.865  1.00  0.00    -0.206 F 
HETATM   28  C   UNL     1       3.865  31.391  54.813  1.00  0.00     0.043 A 
HETATM   29  C   UNL     1       4.820  30.375  54.911  1.00  0.00     0.012 A 
ENDBRANCH   9  23
BRANCH   7  30
HETATM   30  C   UNL     1       5.082  25.473  52.802  1.00  0.00     0.085 C 
BRANCH  30  31
HETATM   31  C   UNL     1       5.971  24.247  52.591  1.00  0.00     0.034 C 
BRANCH  31  32
HETATM   32  C   UNL     1       6.726  23.826  53.849  1.00  0.00     0.164 C 
BRANCH  32  33
HETATM   33  O   UNL     1       8.114  24.097  53.688  1.00  0.00    -0.401 OA
HETATM   34  H   UNL     1       8.533  24.020  54.563  1.00  0.00     0.209 HD
ENDBRANCH  32  33
ENDBRANCH  31  32
ENDBRANCH  30  31
ENDBRANCH   7  30
TORSDOF 7
ENDMDL
MODEL 5
REMARK VINA RESULT:      -8.5      4.349      8.314
REMARK  7 active torsions:
REMARK  status: ('A' for Active; 'I' for Inactive)
REMARK    1  A    between atoms: C_7  and  C_8 
REMARK    2  A    between atoms: C_8  and  C_9 
REMARK    3  A    between atoms: C_9  and  C_10 
REMARK    4  A    between atoms: C_10  and  O_11 
REMARK    5  A    between atoms: C_13  and  C_14 
REMARK    6  A    between atoms: C_21  and  C_22 
REMARK       I    between atoms: C_22  and  N_23 
REMARK    7  A    between atoms: N_23  and  C_24 
ROOT
HETATM    1  C   UNL     1       9.847  30.909  57.956  1.00  0.00     0.070 C 
HETATM    2  C   UNL     1       8.644  30.038  57.686  1.00  0.00     0.037 C 
HETATM    3  N   UNL     1       8.889  28.901  56.910  1.00  0.00    -0.192 N 
HETATM    4  C   UNL     1       8.008  27.883  56.833  1.00  0.00     0.726 A 
HETATM    5  N   UNL     1       6.729  28.082  57.267  1.00  0.00    -0.083 N 
HETATM    6  N   UNL     1       6.007  26.944  57.236  1.00  0.00    -0.140 NA
HETATM    7  C   UNL     1       6.915  26.092  56.736  1.00  0.00     0.166 A 
HETATM    8  N   UNL     1       8.149  26.636  56.464  1.00  0.00    -0.046 NA
HETATM    9  C   UNL     1       6.236  29.356  57.790  1.00  0.00     0.202 C 
HETATM   10  C   UNL     1       7.392  30.284  58.156  1.00  0.00     0.062 C 
HETATM   11  H   UNL     1       9.865  28.686  56.721  1.00  0.00     0.184 HD
ENDROOT
BRANCH  10  12
HETATM   12  C   UNL     1       7.158  31.309  59.223  1.00  0.00     0.256 C 
HETATM   13  N   UNL     1       7.259  30.839  60.516  1.00  0.00    -0.323 N 
HETATM   14  H   UNL     1       7.350  29.844  60.660  1.00  0.00     0.169 HD
HETATM   15  O   UNL     1       6.966  32.477  58.901  1.00  0.00    -0.267 OA
BRANCH  13  16
HETATM   16  C   UNL     1       7.269  31.605  61.703  1.00  0.00     0.035 A 
HETATM   17  C   UNL     1       8.430  32.056  62.337  1.00  0.00     0.031 A 
HETATM   18  C   UNL     1       8.352  32.785  63.530  1.00  0.00     0.026 A 
HETATM   19  C   UNL     1       7.111  33.059  64.098  1.00  0.00     0.034 A 
HETATM   20 CL   UNL     1       7.017  33.942  65.571  1.00  0.00    -0.084 Cl
HETATM   21  C   UNL     1       5.946  32.619  63.477  1.00  0.00     0.026 A 
HETATM   22  C   UNL     1       6.026  31.899  62.281  1.00  0.00     0.031 A 
ENDBRANCH  13  16
ENDBRANCH  10  12
BRANCH   9  23
HETATM   23  C   UNL     1       5.262  29.959  56.773  1.00  0.00    -0.028 A 
HETATM   24  C   UNL     1       4.115  30.637  57.228  1.00  0.00     0.012 A 
HETATM   25  C   UNL     1       3.212  31.193  56.319  1.00  0.00     0.043 A 
HETATM   26  C   UNL     1       3.444  31.071  54.955  1.00  0.00     0.116 A 
HETATM   27  F   UNL     1       2.578  31.607  54.086  1.00  0.00    -0.206 F 
HETATM   28  C   UNL     1       4.561  30.395  54.479  1.00  0.00     0.043 A 
HETATM   29  C   UNL     1       5.465  29.834  55.385  1.00  0.00     0.012 A 
ENDBRANCH   9  23
BRANCH   7  30
HETATM   30  C   UNL     1       6.624  24.647  56.547  1.00  0.00     0.085 C 
BRANCH  30  31
HETATM   31  C   UNL     1       7.597  23.960  55.589  1.00  0.00     0.034 C 
BRANCH  31  32
HETATM   32  C   UNL     1       8.539  22.982  56.284  1.00  0.00     0.164 C 
BRANCH  32  33
HETATM   33  O   UNL     1       8.330  23.035  57.691  1.00  0.00    -0.401 OA
HETATM   34  H   UNL     1       7.516  22.539  57.887  1.00  0.00     0.209 HD
ENDBRANCH  32  33
ENDBRANCH  31  32
ENDBRANCH  30  31
ENDBRANCH   7  30
TORSDOF 7
ENDMDL
MODEL 6
REMARK VINA RESULT:      -8.4      5.717      8.287
REMARK  7 active torsions:
REMARK  status: ('A' for Active; 'I' for Inactive)
REMARK    1  A    between atoms: C_7  and  C_8 
REMARK    2  A    between atoms: C_8  and  C_9 
REMARK    3  A    between atoms: C_9  and  C_10 
REMARK    4  A    between atoms: C_10  and  O_11 
REMARK    5  A    between atoms: C_13  and  C_14 
REMARK    6  A    between atoms: C_21  and  C_22 
REMARK       I    between atoms: C_22  and  N_23 
REMARK    7  A    between atoms: N_23  and  C_24 
ROOT
HETATM    1  C   UNL     1       4.219  27.859  53.999  1.00  0.00     0.070 C 
HETATM    2  C   UNL     1       4.532  28.248  52.574  1.00  0.00     0.037 C 
HETATM    3  N   UNL     1       4.412  29.610  52.284  1.00  0.00    -0.192 N 
HETATM    4  C   UNL     1       4.936  30.154  51.167  1.00  0.00     0.726 A 
HETATM    5  N   UNL     1       5.326  29.330  50.151  1.00  0.00    -0.083 N 
HETATM    6  N   UNL     1       5.936  30.010  49.160  1.00  0.00    -0.140 NA
HETATM    7  C   UNL     1       5.850  31.262  49.634  1.00  0.00     0.166 A 
HETATM    8  N   UNL     1       5.230  31.390  50.857  1.00  0.00    -0.046 NA
HETATM    9  C   UNL     1       5.183  27.874  50.184  1.00  0.00     0.202 C 
HETATM   10  C   UNL     1       4.927  27.379  51.606  1.00  0.00     0.062 C 
HETATM   11  H   UNL     1       4.268  30.229  53.079  1.00  0.00     0.184 HD
ENDROOT
BRANCH  10  12
HETATM   12  C   UNL     1       5.353  25.984  51.950  1.00  0.00     0.256 C 
HETATM   13  N   UNL     1       6.523  25.894  52.675  1.00  0.00    -0.323 N 
HETATM   14  H   UNL     1       7.071  26.731  52.812  1.00  0.00     0.169 HD
HETATM   15  O   UNL     1       4.630  25.043  51.640  1.00  0.00    -0.267 OA
BRANCH  13  16
HETATM   16  C   UNL     1       7.059  24.739  53.288  1.00  0.00     0.035 A 
HETATM   17  C   UNL     1       7.878  23.812  52.638  1.00  0.00     0.031 A 
HETATM   18  C   UNL     1       8.343  22.676  53.312  1.00  0.00     0.026 A 
HETATM   19  C   UNL     1       7.985  22.460  54.638  1.00  0.00     0.034 A 
HETATM   20 CL   UNL     1       8.544  21.058  55.461  1.00  0.00    -0.084 Cl
HETATM   21  C   UNL     1       7.172  23.375  55.301  1.00  0.00     0.026 A 
HETATM   22  C   UNL     1       6.717  24.514  54.630  1.00  0.00     0.031 A 
ENDBRANCH  13  16
ENDBRANCH  10  12
BRANCH   9  23
HETATM   23  C   UNL     1       4.094  27.467  49.187  1.00  0.00    -0.028 A 
HETATM   24  C   UNL     1       4.367  26.472  48.229  1.00  0.00     0.012 A 
HETATM   25  C   UNL     1       3.390  26.086  47.308  1.00  0.00     0.043 A 
HETATM   26  C   UNL     1       2.141  26.693  47.334  1.00  0.00     0.116 A 
HETATM   27  F   UNL     1       1.206  26.320  46.451  1.00  0.00    -0.206 F 
HETATM   28  C   UNL     1       1.850  27.687  48.260  1.00  0.00     0.043 A 
HETATM   29  C   UNL     1       2.825  28.079  49.180  1.00  0.00     0.012 A 
ENDBRANCH   9  23
BRANCH   7  30
HETATM   30  C   UNL     1       6.438  32.422  48.916  1.00  0.00     0.085 C 
BRANCH  30  31
HETATM   31  C   UNL     1       5.640  32.826  47.676  1.00  0.00     0.034 C 
BRANCH  31  32
HETATM   32  C   UNL     1       6.489  33.513  46.610  1.00  0.00     0.164 C 
BRANCH  32  33
HETATM   33  O   UNL     1       6.422  32.776  45.395  1.00  0.00    -0.401 OA
HETATM   34  H   UNL     1       6.650  31.852  45.598  1.00  0.00     0.209 HD
ENDBRANCH  32  33
ENDBRANCH  31  32
ENDBRANCH  30  31
ENDBRANCH   7  30
TORSDOF 7
ENDMDL
MODEL 7
REMARK VINA RESULT:      -8.3      1.624      2.315
REMARK  7 active torsions:
REMARK  status: ('A' for Active; 'I' for Inactive)
REMARK    1  A    between atoms: C_7  and  C_8 
REMARK    2  A    between atoms: C_8  and  C_9 
REMARK    3  A    between atoms: C_9  and  C_10 
REMARK    4  A    between atoms: C_10  and  O_11 
REMARK    5  A    between atoms: C_13  and  C_14 
REMARK    6  A    between atoms: C_21  and  C_22 
REMARK       I    between atoms: C_22  and  N_23 
REMARK    7  A    between atoms: N_23  and  C_24 
ROOT
HETATM    1  C   UNL     1       5.406  27.299  51.979  1.00  0.00     0.070 C 
HETATM    2  C   UNL     1       5.515  28.072  53.271  1.00  0.00     0.037 C 
HETATM    3  N   UNL     1       5.110  29.408  53.207  1.00  0.00    -0.192 N 
HETATM    4  C   UNL     1       4.863  30.137  54.315  1.00  0.00     0.726 A 
HETATM    5  N   UNL     1       5.301  29.672  55.521  1.00  0.00    -0.083 N 
HETATM    6  N   UNL     1       4.876  30.446  56.540  1.00  0.00    -0.140 NA
HETATM    7  C   UNL     1       4.204  31.391  55.865  1.00  0.00     0.166 A 
HETATM    8  N   UNL     1       4.187  31.241  54.497  1.00  0.00    -0.046 NA
HETATM    9  C   UNL     1       6.058  28.432  55.689  1.00  0.00     0.202 C 
HETATM   10  C   UNL     1       5.951  27.550  54.448  1.00  0.00     0.062 C 
HETATM   11  H   UNL     1       4.649  29.699  52.347  1.00  0.00     0.184 HD
ENDROOT
BRANCH  10  12
HETATM   12  C   UNL     1       6.103  26.069  54.624  1.00  0.00     0.256 C 
HETATM   13  N   UNL     1       7.192  25.514  53.986  1.00  0.00    -0.323 N 
HETATM   14  H   UNL     1       7.727  26.093  53.354  1.00  0.00     0.169 HD
HETATM   15  O   UNL     1       5.320  25.469  55.354  1.00  0.00    -0.267 OA
BRANCH  13  16
HETATM   16  C   UNL     1       7.681  24.195  54.125  1.00  0.00     0.035 A 
HETATM   17  C   UNL     1       8.442  23.749  55.208  1.00  0.00     0.031 A 
HETATM   18  C   UNL     1       8.913  22.431  55.253  1.00  0.00     0.026 A 
HETATM   19  C   UNL     1       8.631  21.557  54.208  1.00  0.00     0.034 A 
HETATM   20 CL   UNL     1       9.223  19.943  54.257  1.00  0.00    -0.084 Cl
HETATM   21  C   UNL     1       7.872  21.985  53.123  1.00  0.00     0.026 A 
HETATM   22  C   UNL     1       7.394  23.298  53.085  1.00  0.00     0.031 A 
ENDBRANCH  13  16
ENDBRANCH  10  12
BRANCH   9  23
HETATM   23  C   UNL     1       7.500  28.786  56.068  1.00  0.00    -0.028 A 
HETATM   24  C   UNL     1       8.461  28.963  55.054  1.00  0.00     0.012 A 
HETATM   25  C   UNL     1       9.781  29.283  55.376  1.00  0.00     0.043 A 
HETATM   26  C   UNL     1      10.152  29.423  56.707  1.00  0.00     0.116 A 
HETATM   27  F   UNL     1      11.418  29.732  57.012  1.00  0.00    -0.206 F 
HETATM   28  C   UNL     1       9.227  29.240  57.728  1.00  0.00     0.043 A 
HETATM   29  C   UNL     1       7.906  28.915  57.411  1.00  0.00     0.012 A 
ENDBRANCH   9  23
BRANCH   7  30
HETATM   30  C   UNL     1       3.479  32.489  56.554  1.00  0.00     0.085 C 
BRANCH  30  31
HETATM   31  C   UNL     1       3.828  32.601  58.038  1.00  0.00     0.034 C 
BRANCH  31  32
HETATM   32  C   UNL     1       4.700  33.810  58.363  1.00  0.00     0.164 C 
BRANCH  32  33
HETATM   33  O   UNL     1       5.190  34.385  57.157  1.00  0.00    -0.401 OA
HETATM   34  H   UNL     1       6.115  34.103  57.051  1.00  0.00     0.209 HD
ENDBRANCH  32  33
ENDBRANCH  31  32
ENDBRANCH  30  31
ENDBRANCH   7  30
TORSDOF 7
ENDMDL
MODEL 8
REMARK VINA RESULT:      -7.9      5.439      8.689
REMARK  7 active torsions:
REMARK  status: ('A' for Active; 'I' for Inactive)
REMARK    1  A    between atoms: C_7  and  C_8 
REMARK    2  A    between atoms: C_8  and  C_9 
REMARK    3  A    between atoms: C_9  and  C_10 
REMARK    4  A    between atoms: C_10  and  O_11 
REMARK    5  A    between atoms: C_13  and  C_14 
REMARK    6  A    between atoms: C_21  and  C_22 
REMARK       I    between atoms: C_22  and  N_23 
REMARK    7  A    between atoms: N_23  and  C_24 
ROOT
HETATM    1  C   UNL     1       3.150  31.836  60.455  1.00  0.00     0.070 C 
HETATM    2  C   UNL     1       3.729  32.900  61.355  1.00  0.00     0.037 C 
HETATM    3  N   UNL     1       3.027  33.130  62.541  1.00  0.00    -0.192 N 
HETATM    4  C   UNL     1       3.564  33.815  63.571  1.00  0.00     0.726 A 
HETATM    5  N   UNL     1       4.689  34.558  63.355  1.00  0.00    -0.083 N 
HETATM    6  N   UNL     1       5.170  35.083  64.499  1.00  0.00    -0.140 NA
HETATM    7  C   UNL     1       4.257  34.638  65.376  1.00  0.00     0.166 A 
HETATM    8  N   UNL     1       3.249  33.868  64.839  1.00  0.00    -0.046 NA
HETATM    9  C   UNL     1       5.342  34.686  62.052  1.00  0.00     0.202 C 
HETATM   10  C   UNL     1       4.863  33.602  61.089  1.00  0.00     0.062 C 
HETATM   11  H   UNL     1       2.282  32.472  62.759  1.00  0.00     0.184 HD
ENDROOT
BRANCH  10  12
HETATM   12  C   UNL     1       5.793  33.177  59.993  1.00  0.00     0.256 C 
HETATM   13  N   UNL     1       6.836  32.370  60.394  1.00  0.00    -0.323 N 
HETATM   14  H   UNL     1       6.982  32.227  61.383  1.00  0.00     0.169 HD
HETATM   15  O   UNL     1       5.543  33.501  58.836  1.00  0.00    -0.267 OA
BRANCH  13  16
HETATM   16  C   UNL     1       7.747  31.679  59.563  1.00  0.00     0.035 A 
HETATM   17  C   UNL     1       7.418  30.558  58.797  1.00  0.00     0.031 A 
HETATM   18  C   UNL     1       8.391  29.914  58.023  1.00  0.00     0.026 A 
HETATM   19  C   UNL     1       9.700  30.384  58.020  1.00  0.00     0.034 A 
HETATM   20 CL   UNL     1      10.898  29.583  57.081  1.00  0.00    -0.084 Cl
HETATM   21  C   UNL     1      10.044  31.501  58.776  1.00  0.00     0.026 A 
HETATM   22  C   UNL     1       9.069  32.149  59.540  1.00  0.00     0.031 A 
ENDBRANCH  13  16
ENDBRANCH  10  12
BRANCH   9  23
HETATM   23  C   UNL     1       5.122  36.110  61.532  1.00  0.00    -0.028 A 
HETATM   24  C   UNL     1       4.105  36.356  60.589  1.00  0.00     0.012 A 
HETATM   25  C   UNL     1       3.889  37.645  60.099  1.00  0.00     0.043 A 
HETATM   26  C   UNL     1       4.687  38.693  60.541  1.00  0.00     0.116 A 
HETATM   27  F   UNL     1       4.475  39.929  60.070  1.00  0.00    -0.206 F 
HETATM   28  C   UNL     1       5.706  38.476  61.460  1.00  0.00     0.043 A 
HETATM   29  C   UNL     1       5.929  37.186  61.949  1.00  0.00     0.012 A 
ENDBRANCH   9  23
BRANCH   7  30
HETATM   30  C   UNL     1       4.361  34.908  66.832  1.00  0.00     0.085 C 
BRANCH  30  31
HETATM   31  C   UNL     1       5.734  34.561  67.410  1.00  0.00     0.034 C 
BRANCH  31  32
HETATM   32  C   UNL     1       5.695  34.229  68.899  1.00  0.00     0.164 C 
BRANCH  32  33
HETATM   33  O   UNL     1       4.848  33.105  69.116  1.00  0.00    -0.401 OA
HETATM   34  H   UNL     1       4.098  33.178  68.501  1.00  0.00     0.209 HD
ENDBRANCH  32  33
ENDBRANCH  31  32
ENDBRANCH  30  31
ENDBRANCH   7  30
TORSDOF 7
ENDMDL
MODEL 9
REMARK VINA RESULT:      -7.9      5.568      9.921
REMARK  7 active torsions:
REMARK  status: ('A' for Active; 'I' for Inactive)
REMARK    1  A    between atoms: C_7  and  C_8 
REMARK    2  A    between atoms: C_8  and  C_9 
REMARK    3  A    between atoms: C_9  and  C_10 
REMARK    4  A    between atoms: C_10  and  O_11 
REMARK    5  A    between atoms: C_13  and  C_14 
REMARK    6  A    between atoms: C_21  and  C_22 
REMARK       I    between atoms: C_22  and  N_23 
REMARK    7  A    between atoms: N_23  and  C_24 
ROOT
HETATM    1  C   UNL     1       7.997  32.260  61.426  1.00  0.00     0.070 C 
HETATM    2  C   UNL     1       6.648  32.267  60.748  1.00  0.00     0.037 C 
HETATM    3  N   UNL     1       6.671  32.065  59.365  1.00  0.00    -0.192 N 
HETATM    4  C   UNL     1       5.561  31.747  58.669  1.00  0.00     0.726 A 
HETATM    5  N   UNL     1       4.340  31.919  59.257  1.00  0.00    -0.083 N 
HETATM    6  N   UNL     1       3.341  31.447  58.485  1.00  0.00    -0.140 NA
HETATM    7  C   UNL     1       4.035  31.028  57.416  1.00  0.00     0.166 A 
HETATM    8  N   UNL     1       5.398  31.209  57.488  1.00  0.00    -0.046 NA
HETATM    9  C   UNL     1       4.155  32.462  60.603  1.00  0.00     0.202 C 
HETATM   10  C   UNL     1       5.462  32.434  61.392  1.00  0.00     0.062 C 
HETATM   11  H   UNL     1       7.565  31.791  58.964  1.00  0.00     0.184 HD
ENDROOT
BRANCH  10  12
HETATM   12  C   UNL     1       5.378  32.351  62.886  1.00  0.00     0.256 C 
HETATM   13  N   UNL     1       5.824  33.469  63.558  1.00  0.00    -0.323 N 
HETATM   14  H   UNL     1       6.285  34.197  63.031  1.00  0.00     0.169 HD
HETATM   15  O   UNL     1       4.873  31.360  63.403  1.00  0.00    -0.267 OA
BRANCH  13  16
HETATM   16  C   UNL     1       5.694  33.742  64.939  1.00  0.00     0.035 A 
HETATM   17  C   UNL     1       4.475  33.945  65.589  1.00  0.00     0.031 A 
HETATM   18  C   UNL     1       4.438  34.241  66.957  1.00  0.00     0.026 A 
HETATM   19  C   UNL     1       5.623  34.342  67.679  1.00  0.00     0.034 A 
HETATM   20 CL   UNL     1       5.578  34.720  69.356  1.00  0.00    -0.084 Cl
HETATM   21  C   UNL     1       6.846  34.140  67.046  1.00  0.00     0.026 A 
HETATM   22  C   UNL     1       6.880  33.835  65.682  1.00  0.00     0.031 A 
ENDBRANCH  13  16
ENDBRANCH  10  12
BRANCH   9  23
HETATM   23  C   UNL     1       3.539  33.860  60.486  1.00  0.00    -0.028 A 
HETATM   24  C   UNL     1       4.377  34.974  60.284  1.00  0.00     0.012 A 
HETATM   25  C   UNL     1       3.837  36.257  60.177  1.00  0.00     0.043 A 
HETATM   26  C   UNL     1       2.464  36.438  60.277  1.00  0.00     0.116 A 
HETATM   27  F   UNL     1       1.950  37.670  60.172  1.00  0.00    -0.206 F 
HETATM   28  C   UNL     1       1.616  35.358  60.490  1.00  0.00     0.043 A 
HETATM   29  C   UNL     1       2.151  34.073  60.602  1.00  0.00     0.012 A 
ENDBRANCH   9  23
BRANCH   7  30
HETATM   30  C   UNL     1       3.382  30.360  56.262  1.00  0.00     0.085 C 
BRANCH  30  31
HETATM   31  C   UNL     1       4.333  29.456  55.476  1.00  0.00     0.034 C 
BRANCH  31  32
HETATM   32  C   UNL     1       4.505  28.075  56.101  1.00  0.00     0.164 C 
BRANCH  32  33
HETATM   33  O   UNL     1       5.569  28.106  57.046  1.00  0.00    -0.401 OA
HETATM   34  H   UNL     1       5.653  27.214  57.424  1.00  0.00     0.209 HD
ENDBRANCH  32  33
ENDBRANCH  31  32
ENDBRANCH  30  31
ENDBRANCH   7  30
TORSDOF 7
ENDMDL
MODEL 10
REMARK VINA RESULT:      -7.7      5.437      8.414
REMARK  7 active torsions:
REMARK  status: ('A' for Active; 'I' for Inactive)
REMARK    1  A    between atoms: C_7  and  C_8 
REMARK    2  A    between atoms: C_8  and  C_9 
REMARK    3  A    between atoms: C_9  and  C_10 
REMARK    4  A    between atoms: C_10  and  O_11 
REMARK    5  A    between atoms: C_13  and  C_14 
REMARK    6  A    between atoms: C_21  and  C_22 
REMARK       I    between atoms: C_22  and  N_23 
REMARK    7  A    between atoms: N_23  and  C_24 
ROOT
HETATM    1  C   UNL     1       6.779  25.584  51.753  1.00  0.00     0.070 C 
HETATM    2  C   UNL     1       5.728  26.532  51.228  1.00  0.00     0.037 C 
HETATM    3  N   UNL     1       5.300  26.288  49.920  1.00  0.00    -0.192 N 
HETATM    4  C   UNL     1       4.176  26.839  49.419  1.00  0.00     0.726 A 
HETATM    5  N   UNL     1       3.603  27.887  50.081  1.00  0.00    -0.083 N 
HETATM    6  N   UNL     1       2.429  28.248  49.525  1.00  0.00    -0.140 NA
HETATM    7  C   UNL     1       2.368  27.386  48.499  1.00  0.00     0.166 A 
HETATM    8  N   UNL     1       3.430  26.516  48.395  1.00  0.00    -0.046 NA
HETATM    9  C   UNL     1       4.154  28.479  51.300  1.00  0.00     0.202 C 
HETATM   10  C   UNL     1       5.186  27.555  51.941  1.00  0.00     0.062 C 
HETATM   11  H   UNL     1       5.622  25.421  49.494  1.00  0.00     0.184 HD
ENDROOT
BRANCH  10  12
HETATM   12  C   UNL     1       5.395  27.657  53.422  1.00  0.00     0.256 C 
HETATM   13  N   UNL     1       6.490  28.402  53.806  1.00  0.00    -0.323 N 
HETATM   14  H   UNL     1       7.136  28.712  53.094  1.00  0.00     0.169 HD
HETATM   15  O   UNL     1       4.574  27.150  54.179  1.00  0.00    -0.267 OA
BRANCH  13  16
HETATM   16  C   UNL     1       6.822  28.817  55.116  1.00  0.00     0.035 A 
HETATM   17  C   UNL     1       6.107  29.770  55.844  1.00  0.00     0.031 A 
HETATM   18  C   UNL     1       6.523  30.146  57.127  1.00  0.00     0.026 A 
HETATM   19  C   UNL     1       7.662  29.573  57.684  1.00  0.00     0.034 A 
HETATM   20 CL   UNL     1       8.181  30.046  59.254  1.00  0.00    -0.084 Cl
HETATM   21  C   UNL     1       8.385  28.620  56.972  1.00  0.00     0.026 A 
HETATM   22  C   UNL     1       7.962  28.239  55.695  1.00  0.00     0.031 A 
ENDBRANCH  13  16
ENDBRANCH  10  12
BRANCH   9  23
HETATM   23  C   UNL     1       4.700  29.870  50.965  1.00  0.00    -0.028 A 
HETATM   24  C   UNL     1       4.232  30.991  51.679  1.00  0.00     0.012 A 
HETATM   25  C   UNL     1       4.713  32.269  51.389  1.00  0.00     0.043 A 
HETATM   26  C   UNL     1       5.657  32.438  50.385  1.00  0.00     0.116 A 
HETATM   27  F   UNL     1       6.118  33.665  50.111  1.00  0.00    -0.206 F 
HETATM   28  C   UNL     1       6.126  31.352  49.656  1.00  0.00     0.043 A 
HETATM   29  C   UNL     1       5.644  30.072  49.939  1.00  0.00     0.012 A 
ENDBRANCH   9  23
BRANCH   7  30
HETATM   30  C   UNL     1       1.206  27.336  47.576  1.00  0.00     0.085 C 
BRANCH  30  31
HETATM   31  C   UNL     1       1.001  28.636  46.798  1.00  0.00     0.034 C 
BRANCH  31  32
HETATM   32  C   UNL     1      -0.295  28.658  45.992  1.00  0.00     0.164 C 
BRANCH  32  33
HETATM   33  O   UNL     1      -1.116  27.561  46.376  1.00  0.00    -0.401 OA
HETATM   34  H   UNL     1      -0.839  27.283  47.266  1.00  0.00     0.209 HD
ENDBRANCH  32  33
ENDBRANCH  31  32
ENDBRANCH  30  31
ENDBRANCH   7  30
TORSDOF 7
ENDMDL
