MODEL 1
REMARK VINA RESULT:     -10.1      0.000      0.000
REMARK  5 active torsions:
REMARK  status: ('A' for Active; 'I' for Inactive)
REMARK    1  A    between atoms: C_7  and  C_8 
REMARK    2  A    between atoms: C_8  and  O_9 
REMARK    3  A    between atoms: N_12  and  C_13 
REMARK    4  A    between atoms: C_13  and  C_14 
REMARK    5  A    between atoms: C_14  and  C_15 
ROOT
HETATM    1  C   UNL     1       7.946  27.733  56.914  1.00  0.00     0.199 A 
HETATM    2  C   UNL     1       7.584  26.351  57.530  1.00  0.00     0.269 A 
HETATM    3  O   UNL     1       7.885  25.962  58.652  1.00  0.00    -0.269 OA
HETATM    4  N   UNL     1       6.974  25.583  56.518  1.00  0.00    -0.314 N 
HETATM    5  C   UNL     1       6.911  26.312  55.317  1.00  0.00     0.047 A 
HETATM    6  C   UNL     1       7.453  27.590  55.499  1.00  0.00     0.017 A 
HETATM    7  C   UNL     1       6.427  25.908  54.083  1.00  0.00     0.030 A 
HETATM    8  C   UNL     1       6.499  26.810  53.016  1.00  0.00     0.002 A 
HETATM    9  C   UNL     1       7.054  28.086  53.192  1.00  0.00     0.001 A 
HETATM   10  C   UNL     1       7.539  28.484  54.438  1.00  0.00     0.013 A 
ENDROOT
BRANCH   1  11
HETATM   11  C   UNL     1       7.249  28.925  57.527  1.00  0.00     0.025 A 
HETATM   12  C   UNL     1       5.877  29.190  57.483  1.00  0.00     0.016 A 
HETATM   13  C   UNL     1       4.747  28.436  56.872  1.00  0.00     0.069 C 
HETATM   14  N   UNL     1       5.643  30.358  58.160  1.00  0.00    -0.359 N 
HETATM   15  H   UNL     1       4.736  30.785  58.287  1.00  0.00     0.166 HD
HETATM   16  C   UNL     1       6.808  30.861  58.677  1.00  0.00     0.043 A 
HETATM   17  C   UNL     1       7.837  29.997  58.299  1.00  0.00     0.003 A 
HETATM   18  C   UNL     1       7.013  32.010  59.451  1.00  0.00     0.030 A 
HETATM   19  C   UNL     1       9.145  30.313  58.731  1.00  0.00     0.014 A 
HETATM   20  C   UNL     1       9.370  31.458  59.507  1.00  0.00     0.001 A 
HETATM   21  C   UNL     1       8.316  32.294  59.861  1.00  0.00     0.002 A 
ENDBRANCH   1  11
BRANCH   1  22
HETATM   22  O   UNL     1       9.369  27.852  56.917  1.00  0.00    -0.371 OA
HETATM   23  H   UNL     1       9.541  28.634  56.361  1.00  0.00     0.212 HD
ENDBRANCH   1  22
BRANCH   4  24
HETATM   24  C   UNL     1       6.822  24.145  56.612  1.00  0.00     0.137 C 
BRANCH  24  25
HETATM   25  C   UNL     1       8.144  23.370  56.577  1.00  0.00     0.058 C 
BRANCH  25  26
HETATM   26  C   UNL     1       8.139  22.384  55.431  1.00  0.00    -0.057 A 
HETATM   27  C   UNL     1       8.428  21.031  55.667  1.00  0.00     0.007 A 
HETATM   28  C   UNL     1       8.500  20.127  54.606  1.00  0.00     0.001 A 
HETATM   29  C   UNL     1       8.280  20.565  53.301  1.00  0.00     0.000 A 
HETATM   30  C   UNL     1       7.985  21.906  53.057  1.00  0.00     0.001 A 
HETATM   31  C   UNL     1       7.917  22.812  54.117  1.00  0.00     0.007 A 
ENDBRANCH  25  26
ENDBRANCH  24  25
ENDBRANCH   4  24
TORSDOF 5
ENDMDL
MODEL 2
REMARK VINA RESULT:      -9.9      2.293      4.891
REMARK  5 active torsions:
REMARK  status: ('A' for Active; 'I' for Inactive)
REMARK    1  A    between atoms: C_7  and  C_8 
REMARK    2  A    between atoms: C_8  and  O_9 
REMARK    3  A    between atoms: N_12  and  C_13 
REMARK    4  A    between atoms: C_13  and  C_14 
REMARK    5  A    between atoms: C_14  and  C_15 
ROOT
HETATM    1  C   UNL     1       5.316  27.218  55.974  1.00  0.00     0.199 A 
HETATM    2  C   UNL     1       5.728  25.724  56.114  1.00  0.00     0.269 A 
HETATM    3  O   UNL     1       4.978  24.759  56.023  1.00  0.00    -0.269 OA
HETATM    4  N   UNL     1       7.083  25.693  56.499  1.00  0.00    -0.314 N 
HETATM    5  C   UNL     1       7.588  26.999  56.633  1.00  0.00     0.047 A 
HETATM    6  C   UNL     1       6.595  27.934  56.318  1.00  0.00     0.017 A 
HETATM    7  C   UNL     1       8.852  27.402  57.032  1.00  0.00     0.030 A 
HETATM    8  C   UNL     1       9.112  28.773  57.119  1.00  0.00     0.002 A 
HETATM    9  C   UNL     1       8.115  29.714  56.818  1.00  0.00     0.001 A 
HETATM   10  C   UNL     1       6.845  29.298  56.418  1.00  0.00     0.013 A 
ENDROOT
BRANCH   1  11
HETATM   11  C   UNL     1       4.901  27.656  54.589  1.00  0.00     0.025 A 
HETATM   12  C   UNL     1       4.159  28.798  54.273  1.00  0.00     0.016 A 
HETATM   13  C   UNL     1       3.588  29.870  55.134  1.00  0.00     0.069 C 
HETATM   14  N   UNL     1       4.001  28.845  52.913  1.00  0.00    -0.359 N 
HETATM   15  H   UNL     1       3.504  29.567  52.411  1.00  0.00     0.166 HD
HETATM   16  C   UNL     1       4.639  27.791  52.313  1.00  0.00     0.043 A 
HETATM   17  C   UNL     1       5.211  27.021  53.326  1.00  0.00     0.003 A 
HETATM   18  C   UNL     1       4.749  27.478  50.953  1.00  0.00     0.030 A 
HETATM   19  C   UNL     1       5.936  25.871  52.941  1.00  0.00     0.014 A 
HETATM   20  C   UNL     1       6.058  25.542  51.584  1.00  0.00     0.001 A 
HETATM   21  C   UNL     1       5.471  26.336  50.605  1.00  0.00     0.002 A 
ENDBRANCH   1  11
BRANCH   1  22
HETATM   22  O   UNL     1       4.329  27.493  56.969  1.00  0.00    -0.371 OA
HETATM   23  H   UNL     1       3.703  28.090  56.520  1.00  0.00     0.212 HD
ENDBRANCH   1  22
BRANCH   4  24
HETATM   24  C   UNL     1       7.710  24.511  57.058  1.00  0.00     0.137 C 
BRANCH  24  25
HETATM   25  C   UNL     1       8.903  23.991  56.251  1.00  0.00     0.058 C 
BRANCH  25  26
HETATM   26  C   UNL     1       8.449  22.931  55.273  1.00  0.00    -0.057 A 
HETATM   27  C   UNL     1       8.294  21.603  55.696  1.00  0.00     0.007 A 
HETATM   28  C   UNL     1       7.948  20.604  54.785  1.00  0.00     0.001 A 
HETATM   29  C   UNL     1       7.749  20.924  53.443  1.00  0.00     0.000 A 
HETATM   30  C   UNL     1       7.893  22.242  53.013  1.00  0.00     0.001 A 
HETATM   31  C   UNL     1       8.244  23.242  53.923  1.00  0.00     0.007 A 
ENDBRANCH  25  26
ENDBRANCH  24  25
ENDBRANCH   4  24
TORSDOF 5
ENDMDL
MODEL 3
REMARK VINA RESULT:      -9.8      2.427      5.198
REMARK  5 active torsions:
REMARK  status: ('A' for Active; 'I' for Inactive)
REMARK    1  A    between atoms: C_7  and  C_8 
REMARK    2  A    between atoms: C_8  and  O_9 
REMARK    3  A    between atoms: N_12  and  C_13 
REMARK    4  A    between atoms: C_13  and  C_14 
REMARK    5  A    between atoms: C_14  and  C_15 
ROOT
HETATM    1  C   UNL     1       5.728  26.733  55.054  1.00  0.00     0.199 A 
HETATM    2  C   UNL     1       6.260  25.351  55.529  1.00  0.00     0.269 A 
HETATM    3  O   UNL     1       5.703  24.271  55.368  1.00  0.00    -0.269 OA
HETATM    4  N   UNL     1       7.422  25.584  56.292  1.00  0.00    -0.314 N 
HETATM    5  C   UNL     1       7.691  26.962  56.371  1.00  0.00     0.047 A 
HETATM    6  C   UNL     1       6.736  27.683  55.645  1.00  0.00     0.017 A 
HETATM    7  C   UNL     1       8.707  27.607  57.057  1.00  0.00     0.030 A 
HETATM    8  C   UNL     1       8.753  29.004  57.011  1.00  0.00     0.002 A 
HETATM    9  C   UNL     1       7.789  29.731  56.295  1.00  0.00     0.001 A 
HETATM   10  C   UNL     1       6.769  29.072  55.609  1.00  0.00     0.013 A 
ENDROOT
BRANCH   1  11
HETATM   11  C   UNL     1       5.712  26.951  53.559  1.00  0.00     0.025 A 
HETATM   12  C   UNL     1       6.629  26.430  52.640  1.00  0.00     0.016 A 
HETATM   13  C   UNL     1       7.820  25.556  52.826  1.00  0.00     0.069 C 
HETATM   14  N   UNL     1       6.265  26.848  51.388  1.00  0.00    -0.359 N 
HETATM   15  H   UNL     1       6.753  26.617  50.534  1.00  0.00     0.166 HD
HETATM   16  C   UNL     1       5.122  27.602  51.439  1.00  0.00     0.043 A 
HETATM   17  C   UNL     1       4.746  27.695  52.780  1.00  0.00     0.003 A 
HETATM   18  C   UNL     1       4.403  28.198  50.396  1.00  0.00     0.030 A 
HETATM   19  C   UNL     1       3.576  28.428  53.080  1.00  0.00     0.014 A 
HETATM   20  C   UNL     1       2.843  29.029  52.049  1.00  0.00     0.001 A 
HETATM   21  C   UNL     1       3.252  28.915  50.725  1.00  0.00     0.002 A 
ENDBRANCH   1  11
BRANCH   1  22
HETATM   22  O   UNL     1       4.454  26.943  55.665  1.00  0.00    -0.371 OA
HETATM   23  H   UNL     1       3.928  27.379  54.970  1.00  0.00     0.212 HD
ENDBRANCH   1  22
BRANCH   4  24
HETATM   24  C   UNL     1       7.986  24.586  57.179  1.00  0.00     0.137 C 
BRANCH  24  25
HETATM   25  C   UNL     1       9.205  23.855  56.608  1.00  0.00     0.058 C 
BRANCH  25  26
HETATM   26  C   UNL     1       8.765  22.633  55.834  1.00  0.00    -0.057 A 
HETATM   27  C   UNL     1       8.378  21.470  56.516  1.00  0.00     0.007 A 
HETATM   28  C   UNL     1       8.042  20.313  55.811  1.00  0.00     0.001 A 
HETATM   29  C   UNL     1       8.084  20.310  54.418  1.00  0.00     0.000 A 
HETATM   30  C   UNL     1       8.460  21.463  53.730  1.00  0.00     0.001 A 
HETATM   31  C   UNL     1       8.801  22.620  54.435  1.00  0.00     0.007 A 
ENDBRANCH  25  26
ENDBRANCH  24  25
ENDBRANCH   4  24
TORSDOF 5
ENDMDL
MODEL 4
REMARK VINA RESULT:      -9.7      1.595      7.858
REMARK  5 active torsions:
REMARK  status: ('A' for Active; 'I' for Inactive)
REMARK    1  A    between atoms: C_7  and  C_8 
REMARK    2  A    between atoms: C_8  and  O_9 
REMARK    3  A    between atoms: N_12  and  C_13 
REMARK    4  A    between atoms: C_13  and  C_14 
REMARK    5  A    between atoms: C_14  and  C_15 
ROOT
HETATM    1  C   UNL     1       6.903  25.111  55.595  1.00  0.00     0.199 A 
HETATM    2  C   UNL     1       7.945  26.041  56.280  1.00  0.00     0.269 A 
HETATM    3  O   UNL     1       8.748  25.709  57.144  1.00  0.00    -0.269 OA
HETATM    4  N   UNL     1       7.703  27.353  55.826  1.00  0.00    -0.314 N 
HETATM    5  C   UNL     1       6.616  27.374  54.935  1.00  0.00     0.047 A 
HETATM    6  C   UNL     1       6.119  26.079  54.750  1.00  0.00     0.017 A 
HETATM    7  C   UNL     1       6.035  28.462  54.303  1.00  0.00     0.030 A 
HETATM    8  C   UNL     1       4.931  28.235  53.476  1.00  0.00     0.002 A 
HETATM    9  C   UNL     1       4.422  26.939  53.298  1.00  0.00     0.001 A 
HETATM   10  C   UNL     1       5.013  25.851  53.939  1.00  0.00     0.013 A 
ENDROOT
BRANCH   1  11
HETATM   11  C   UNL     1       7.471  24.054  54.678  1.00  0.00     0.025 A 
HETATM   12  C   UNL     1       7.909  24.250  53.364  1.00  0.00     0.016 A 
HETATM   13  C   UNL     1       7.956  25.472  52.515  1.00  0.00     0.069 C 
HETATM   14  N   UNL     1       8.360  23.052  52.878  1.00  0.00    -0.359 N 
HETATM   15  H   UNL     1       8.735  22.905  51.952  1.00  0.00     0.166 HD
HETATM   16  C   UNL     1       8.267  22.074  53.833  1.00  0.00     0.043 A 
HETATM   17  C   UNL     1       7.711  22.658  54.972  1.00  0.00     0.003 A 
HETATM   18  C   UNL     1       8.639  20.726  53.763  1.00  0.00     0.030 A 
HETATM   19  C   UNL     1       7.525  21.832  56.104  1.00  0.00     0.014 A 
HETATM   20  C   UNL     1       7.893  20.481  56.053  1.00  0.00     0.001 A 
HETATM   21  C   UNL     1       8.443  19.937  54.897  1.00  0.00     0.002 A 
ENDBRANCH   1  11
BRANCH   1  22
HETATM   22  O   UNL     1       6.061  24.574  56.616  1.00  0.00    -0.371 OA
HETATM   23  H   UNL     1       5.225  25.066  56.515  1.00  0.00     0.212 HD
ENDBRANCH   1  22
BRANCH   4  24
HETATM   24  C   UNL     1       8.234  28.522  56.500  1.00  0.00     0.137 C 
BRANCH  24  25
HETATM   25  C   UNL     1       7.507  28.883  57.798  1.00  0.00     0.058 C 
BRANCH  25  26
HETATM   26  C   UNL     1       8.209  30.032  58.487  1.00  0.00    -0.057 A 
HETATM   27  C   UNL     1       7.533  30.792  59.454  1.00  0.00     0.007 A 
HETATM   28  C   UNL     1       8.147  31.899  60.041  1.00  0.00     0.001 A 
HETATM   29  C   UNL     1       9.442  32.255  59.671  1.00  0.00     0.000 A 
HETATM   30  C   UNL     1      10.125  31.503  58.716  1.00  0.00     0.001 A 
HETATM   31  C   UNL     1       9.511  30.397  58.125  1.00  0.00     0.007 A 
ENDBRANCH  25  26
ENDBRANCH  24  25
ENDBRANCH   4  24
TORSDOF 5
ENDMDL
MODEL 5
REMARK VINA RESULT:      -9.7      0.856      2.423
REMARK  5 active torsions:
REMARK  status: ('A' for Active; 'I' for Inactive)
REMARK    1  A    between atoms: C_7  and  C_8 
REMARK    2  A    between atoms: C_8  and  O_9 
REMARK    3  A    between atoms: N_12  and  C_13 
REMARK    4  A    between atoms: C_13  and  C_14 
REMARK    5  A    between atoms: C_14  and  C_15 
ROOT
HETATM    1  C   UNL     1       7.823  27.774  56.867  1.00  0.00     0.199 A 
HETATM    2  C   UNL     1       7.539  26.382  57.499  1.00  0.00     0.269 A 
HETATM    3  O   UNL     1       7.815  26.041  58.643  1.00  0.00    -0.269 OA
HETATM    4  N   UNL     1       7.036  25.548  56.479  1.00  0.00    -0.314 N 
HETATM    5  C   UNL     1       6.975  26.245  55.259  1.00  0.00     0.047 A 
HETATM    6  C   UNL     1       7.410  27.564  55.434  1.00  0.00     0.017 A 
HETATM    7  C   UNL     1       6.583  25.779  54.015  1.00  0.00     0.030 A 
HETATM    8  C   UNL     1       6.636  26.661  52.931  1.00  0.00     0.002 A 
HETATM    9  C   UNL     1       7.084  27.980  53.100  1.00  0.00     0.001 A 
HETATM   10  C   UNL     1       7.478  28.440  54.357  1.00  0.00     0.013 A 
ENDROOT
BRANCH   1  11
HETATM   11  C   UNL     1       7.009  28.922  57.417  1.00  0.00     0.025 A 
HETATM   12  C   UNL     1       7.459  29.896  58.314  1.00  0.00     0.016 A 
HETATM   13  C   UNL     1       8.785  30.103  58.959  1.00  0.00     0.069 C 
HETATM   14  N   UNL     1       6.427  30.763  58.560  1.00  0.00    -0.359 N 
HETATM   15  H   UNL     1       6.476  31.565  59.172  1.00  0.00     0.166 HD
HETATM   16  C   UNL     1       5.318  30.415  57.834  1.00  0.00     0.043 A 
HETATM   17  C   UNL     1       5.638  29.266  57.110  1.00  0.00     0.003 A 
HETATM   18  C   UNL     1       4.067  31.041  57.771  1.00  0.00     0.030 A 
HETATM   19  C   UNL     1       4.638  28.723  56.273  1.00  0.00     0.014 A 
HETATM   20  C   UNL     1       3.380  29.336  56.195  1.00  0.00     0.001 A 
HETATM   21  C   UNL     1       3.100  30.480  56.935  1.00  0.00     0.002 A 
ENDBRANCH   1  11
BRANCH   1  22
HETATM   22  O   UNL     1       9.231  28.002  56.931  1.00  0.00    -0.371 OA
HETATM   23  H   UNL     1       9.312  28.836  57.430  1.00  0.00     0.212 HD
ENDBRANCH   1  22
BRANCH   4  24
HETATM   24  C   UNL     1       6.990  24.105  56.602  1.00  0.00     0.137 C 
BRANCH  24  25
HETATM   25  C   UNL     1       8.349  23.417  56.436  1.00  0.00     0.058 C 
BRANCH  25  26
HETATM   26  C   UNL     1       8.275  22.374  55.344  1.00  0.00    -0.057 A 
HETATM   27  C   UNL     1       8.579  21.034  55.628  1.00  0.00     0.007 A 
HETATM   28  C   UNL     1       8.586  20.078  54.611  1.00  0.00     0.001 A 
HETATM   29  C   UNL     1       8.286  20.451  53.302  1.00  0.00     0.000 A 
HETATM   30  C   UNL     1       7.976  21.778  53.010  1.00  0.00     0.001 A 
HETATM   31  C   UNL     1       7.972  22.737  54.026  1.00  0.00     0.007 A 
ENDBRANCH  25  26
ENDBRANCH  24  25
ENDBRANCH   4  24
TORSDOF 5
ENDMDL
MODEL 6
REMARK VINA RESULT:      -9.5      2.768      4.433
REMARK  5 active torsions:
REMARK  status: ('A' for Active; 'I' for Inactive)
REMARK    1  A    between atoms: C_7  and  C_8 
REMARK    2  A    between atoms: C_8  and  O_9 
REMARK    3  A    between atoms: N_12  and  C_13 
REMARK    4  A    between atoms: C_13  and  C_14 
REMARK    5  A    between atoms: C_14  and  C_15 
ROOT
HETATM    1  C   UNL     1       5.082  27.998  55.640  1.00  0.00     0.199 A 
HETATM    2  C   UNL     1       5.595  26.628  55.110  1.00  0.00     0.269 A 
HETATM    3  O   UNL     1       4.928  25.794  54.508  1.00  0.00    -0.269 OA
HETATM    4  N   UNL     1       6.918  26.465  55.568  1.00  0.00    -0.314 N 
HETATM    5  C   UNL     1       7.311  27.572  56.342  1.00  0.00     0.047 A 
HETATM    6  C   UNL     1       6.275  28.511  56.402  1.00  0.00     0.017 A 
HETATM    7  C   UNL     1       8.509  27.782  57.005  1.00  0.00     0.030 A 
HETATM    8  C   UNL     1       8.658  28.960  57.745  1.00  0.00     0.002 A 
HETATM    9  C   UNL     1       7.617  29.898  57.817  1.00  0.00     0.001 A 
HETATM   10  C   UNL     1       6.414  29.677  57.147  1.00  0.00     0.013 A 
ENDROOT
BRANCH   1  11
HETATM   11  C   UNL     1       4.736  29.021  54.583  1.00  0.00     0.025 A 
HETATM   12  C   UNL     1       5.185  29.023  53.259  1.00  0.00     0.016 A 
HETATM   13  C   UNL     1       6.075  28.086  52.520  1.00  0.00     0.069 C 
HETATM   14  N   UNL     1       4.641  30.107  52.623  1.00  0.00    -0.359 N 
HETATM   15  H   UNL     1       4.797  30.352  51.655  1.00  0.00     0.166 HD
HETATM   16  C   UNL     1       3.823  30.807  53.470  1.00  0.00     0.043 A 
HETATM   17  C   UNL     1       3.858  30.164  54.707  1.00  0.00     0.003 A 
HETATM   18  C   UNL     1       3.058  31.954  53.220  1.00  0.00     0.030 A 
HETATM   19  C   UNL     1       3.074  30.709  55.749  1.00  0.00     0.014 A 
HETATM   20  C   UNL     1       2.302  31.855  55.517  1.00  0.00     0.001 A 
HETATM   21  C   UNL     1       2.295  32.468  54.269  1.00  0.00     0.002 A 
ENDBRANCH   1  11
BRANCH   1  22
HETATM   22  O   UNL     1       4.009  27.741  56.546  1.00  0.00    -0.371 OA
HETATM   23  H   UNL     1       4.455  27.522  57.384  1.00  0.00     0.212 HD
ENDBRANCH   1  22
BRANCH   4  24
HETATM   24  C   UNL     1       7.590  25.181  55.574  1.00  0.00     0.137 C 
BRANCH  24  25
HETATM   25  C   UNL     1       7.901  24.629  54.179  1.00  0.00     0.058 C 
BRANCH  25  26
HETATM   26  C   UNL     1       7.885  23.117  54.201  1.00  0.00    -0.057 A 
HETATM   27  C   UNL     1       7.754  22.433  55.419  1.00  0.00     0.007 A 
HETATM   28  C   UNL     1       7.813  21.038  55.458  1.00  0.00     0.001 A 
HETATM   29  C   UNL     1       7.999  20.316  54.281  1.00  0.00     0.000 A 
HETATM   30  C   UNL     1       8.124  20.986  53.065  1.00  0.00     0.001 A 
HETATM   31  C   UNL     1       8.069  22.381  53.024  1.00  0.00     0.007 A 
ENDBRANCH  25  26
ENDBRANCH  24  25
ENDBRANCH   4  24
TORSDOF 5
ENDMDL
MODEL 7
REMARK VINA RESULT:      -9.4      2.687      8.105
REMARK  5 active torsions:
REMARK  status: ('A' for Active; 'I' for Inactive)
REMARK    1  A    between atoms: C_7  and  C_8 
REMARK    2  A    between atoms: C_8  and  O_9 
REMARK    3  A    between atoms: N_12  and  C_13 
REMARK    4  A    between atoms: C_13  and  C_14 
REMARK    5  A    between atoms: C_14  and  C_15 
ROOT
HETATM    1  C   UNL     1       6.479  29.626  56.371  1.00  0.00     0.199 A 
HETATM    2  C   UNL     1       5.974  30.235  57.711  1.00  0.00     0.269 A 
HETATM    3  O   UNL     1       4.808  30.478  57.996  1.00  0.00    -0.269 OA
HETATM    4  N   UNL     1       7.108  30.580  58.472  1.00  0.00    -0.314 N 
HETATM    5  C   UNL     1       8.287  30.272  57.770  1.00  0.00     0.047 A 
HETATM    6  C   UNL     1       7.975  29.692  56.535  1.00  0.00     0.017 A 
HETATM    7  C   UNL     1       9.602  30.492  58.146  1.00  0.00     0.030 A 
HETATM    8  C   UNL     1      10.615  30.124  57.255  1.00  0.00     0.002 A 
HETATM    9  C   UNL     1      10.305  29.555  56.011  1.00  0.00     0.001 A 
HETATM   10  C   UNL     1       8.978  29.338  55.641  1.00  0.00     0.013 A 
ENDROOT
BRANCH   1  11
HETATM   11  C   UNL     1       6.106  28.183  56.126  1.00  0.00     0.025 A 
HETATM   12  C   UNL     1       5.028  27.729  55.359  1.00  0.00     0.016 A 
HETATM   13  C   UNL     1       3.985  28.465  54.593  1.00  0.00     0.069 C 
HETATM   14  N   UNL     1       5.037  26.359  55.375  1.00  0.00    -0.359 N 
HETATM   15  H   UNL     1       4.369  25.768  54.901  1.00  0.00     0.166 HD
HETATM   16  C   UNL     1       6.101  25.888  56.099  1.00  0.00     0.043 A 
HETATM   17  C   UNL     1       6.792  26.997  56.590  1.00  0.00     0.003 A 
HETATM   18  C   UNL     1       6.493  24.566  56.344  1.00  0.00     0.030 A 
HETATM   19  C   UNL     1       7.946  26.754  57.369  1.00  0.00     0.014 A 
HETATM   20  C   UNL     1       8.354  25.438  57.624  1.00  0.00     0.001 A 
HETATM   21  C   UNL     1       7.637  24.360  57.117  1.00  0.00     0.002 A 
ENDBRANCH   1  11
BRANCH   1  22
HETATM   22  O   UNL     1       6.073  30.498  55.316  1.00  0.00    -0.371 OA
HETATM   23  H   UNL     1       5.107  30.374  55.266  1.00  0.00     0.212 HD
ENDBRANCH   1  22
BRANCH   4  24
HETATM   24  C   UNL     1       7.042  31.480  59.608  1.00  0.00     0.137 C 
BRANCH  24  25
HETATM   25  C   UNL     1       7.887  31.040  60.807  1.00  0.00     0.058 C 
BRANCH  25  26
HETATM   26  C   UNL     1       7.405  31.728  62.064  1.00  0.00    -0.057 A 
HETATM   27  C   UNL     1       6.030  31.844  62.320  1.00  0.00     0.007 A 
HETATM   28  C   UNL     1       5.574  32.543  63.439  1.00  0.00     0.001 A 
HETATM   29  C   UNL     1       6.486  33.127  64.315  1.00  0.00     0.000 A 
HETATM   30  C   UNL     1       7.855  33.012  64.074  1.00  0.00     0.001 A 
HETATM   31  C   UNL     1       8.313  32.317  62.953  1.00  0.00     0.007 A 
ENDBRANCH  25  26
ENDBRANCH  24  25
ENDBRANCH   4  24
TORSDOF 5
ENDMDL
MODEL 8
REMARK VINA RESULT:      -9.3      8.880     11.527
REMARK  5 active torsions:
REMARK  status: ('A' for Active; 'I' for Inactive)
REMARK    1  A    between atoms: C_7  and  C_8 
REMARK    2  A    between atoms: C_8  and  O_9 
REMARK    3  A    between atoms: N_12  and  C_13 
REMARK    4  A    between atoms: C_13  and  C_14 
REMARK    5  A    between atoms: C_14  and  C_15 
ROOT
HETATM    1  C   UNL     1       4.708  33.983  64.326  1.00  0.00     0.199 A 
HETATM    2  C   UNL     1       3.632  33.674  63.245  1.00  0.00     0.269 A 
HETATM    3  O   UNL     1       2.426  33.861  63.356  1.00  0.00    -0.269 OA
HETATM    4  N   UNL     1       4.280  33.018  62.179  1.00  0.00    -0.314 N 
HETATM    5  C   UNL     1       5.649  32.860  62.456  1.00  0.00     0.047 A 
HETATM    6  C   UNL     1       5.958  33.426  63.699  1.00  0.00     0.017 A 
HETATM    7  C   UNL     1       6.621  32.234  61.692  1.00  0.00     0.030 A 
HETATM    8  C   UNL     1       7.924  32.175  62.198  1.00  0.00     0.002 A 
HETATM    9  C   UNL     1       8.234  32.730  63.449  1.00  0.00     0.001 A 
HETATM   10  C   UNL     1       7.249  33.357  64.211  1.00  0.00     0.013 A 
ENDROOT
BRANCH   1  11
HETATM   11  C   UNL     1       4.949  35.447  64.611  1.00  0.00     0.025 A 
HETATM   12  C   UNL     1       4.870  36.067  65.862  1.00  0.00     0.016 A 
HETATM   13  C   UNL     1       4.555  35.524  67.212  1.00  0.00     0.069 C 
HETATM   14  N   UNL     1       5.165  37.395  65.702  1.00  0.00    -0.359 N 
HETATM   15  H   UNL     1       5.184  38.080  66.445  1.00  0.00     0.166 HD
HETATM   16  C   UNL     1       5.467  37.672  64.394  1.00  0.00     0.043 A 
HETATM   17  C   UNL     1       5.338  36.481  63.678  1.00  0.00     0.003 A 
HETATM   18  C   UNL     1       5.845  38.886  63.808  1.00  0.00     0.030 A 
HETATM   19  C   UNL     1       5.611  36.522  62.292  1.00  0.00     0.014 A 
HETATM   20  C   UNL     1       5.992  37.727  61.687  1.00  0.00     0.001 A 
HETATM   21  C   UNL     1       6.107  38.893  62.437  1.00  0.00     0.002 A 
ENDBRANCH   1  11
BRANCH   1  22
HETATM   22  O   UNL     1       4.380  33.230  65.494  1.00  0.00    -0.371 OA
HETATM   23  H   UNL     1       3.436  33.422  65.641  1.00  0.00     0.212 HD
ENDBRANCH   1  22
BRANCH   4  24
HETATM   24  C   UNL     1       3.557  32.274  61.166  1.00  0.00     0.137 C 
BRANCH  24  25
HETATM   25  C   UNL     1       3.740  32.811  59.743  1.00  0.00     0.058 C 
BRANCH  25  26
HETATM   26  C   UNL     1       3.281  34.249  59.665  1.00  0.00    -0.057 A 
HETATM   27  C   UNL     1       1.964  34.587  60.012  1.00  0.00     0.007 A 
HETATM   28  C   UNL     1       1.509  35.899  59.872  1.00  0.00     0.001 A 
HETATM   29  C   UNL     1       2.366  36.886  59.390  1.00  0.00     0.000 A 
HETATM   30  C   UNL     1       3.679  36.562  59.049  1.00  0.00     0.001 A 
HETATM   31  C   UNL     1       4.134  35.249  59.184  1.00  0.00     0.007 A 
ENDBRANCH  25  26
ENDBRANCH  24  25
ENDBRANCH   4  24
TORSDOF 5
ENDMDL
MODEL 9
REMARK VINA RESULT:      -9.1      5.603      9.467
REMARK  5 active torsions:
REMARK  status: ('A' for Active; 'I' for Inactive)
REMARK    1  A    between atoms: C_7  and  C_8 
REMARK    2  A    between atoms: C_8  and  O_9 
REMARK    3  A    between atoms: N_12  and  C_13 
REMARK    4  A    between atoms: C_13  and  C_14 
REMARK    5  A    between atoms: C_14  and  C_15 
ROOT
HETATM    1  C   UNL     1       4.336  33.430  62.129  1.00  0.00     0.199 A 
HETATM    2  C   UNL     1       5.315  32.771  61.116  1.00  0.00     0.269 A 
HETATM    3  O   UNL     1       5.031  32.383  59.989  1.00  0.00    -0.269 OA
HETATM    4  N   UNL     1       6.544  32.579  61.779  1.00  0.00    -0.314 N 
HETATM    5  C   UNL     1       6.463  33.030  63.108  1.00  0.00     0.047 A 
HETATM    6  C   UNL     1       5.191  33.557  63.362  1.00  0.00     0.017 A 
HETATM    7  C   UNL     1       7.430  32.983  64.099  1.00  0.00     0.030 A 
HETATM    8  C   UNL     1       7.101  33.471  65.368  1.00  0.00     0.002 A 
HETATM    9  C   UNL     1       5.823  33.988  65.629  1.00  0.00     0.001 A 
HETATM   10  C   UNL     1       4.856  34.031  64.625  1.00  0.00     0.013 A 
ENDROOT
BRANCH   1  11
HETATM   11  C   UNL     1       3.847  34.813  61.763  1.00  0.00     0.025 A 
HETATM   12  C   UNL     1       2.584  35.133  61.257  1.00  0.00     0.016 A 
HETATM   13  C   UNL     1       1.403  34.282  60.946  1.00  0.00     0.069 C 
HETATM   14  N   UNL     1       2.530  36.488  61.065  1.00  0.00    -0.359 N 
HETATM   15  H   UNL     1       1.731  36.993  60.707  1.00  0.00     0.166 HD
HETATM   16  C   UNL     1       3.702  37.082  61.454  1.00  0.00     0.043 A 
HETATM   17  C   UNL     1       4.555  36.068  61.892  1.00  0.00     0.003 A 
HETATM   18  C   UNL     1       4.056  38.436  61.450  1.00  0.00     0.030 A 
HETATM   19  C   UNL     1       5.835  36.447  62.356  1.00  0.00     0.014 A 
HETATM   20  C   UNL     1       6.206  37.798  62.360  1.00  0.00     0.001 A 
HETATM   21  C   UNL     1       5.327  38.778  61.913  1.00  0.00     0.002 A 
ENDBRANCH   1  11
BRANCH   1  22
HETATM   22  O   UNL     1       3.275  32.506  62.373  1.00  0.00    -0.371 OA
HETATM   23  H   UNL     1       2.499  33.075  62.528  1.00  0.00     0.212 HD
ENDBRANCH   1  22
BRANCH   4  24
HETATM   24  C   UNL     1       7.570  31.686  61.278  1.00  0.00     0.137 C 
BRANCH  24  25
HETATM   25  C   UNL     1       8.552  32.342  60.302  1.00  0.00     0.058 C 
BRANCH  25  26
HETATM   26  C   UNL     1       8.999  31.341  59.261  1.00  0.00    -0.057 A 
HETATM   27  C   UNL     1      10.162  31.577  58.512  1.00  0.00     0.007 A 
HETATM   28  C   UNL     1      10.542  30.697  57.497  1.00  0.00     0.001 A 
HETATM   29  C   UNL     1       9.767  29.571  57.225  1.00  0.00     0.000 A 
HETATM   30  C   UNL     1       8.614  29.324  57.968  1.00  0.00     0.001 A 
HETATM   31  C   UNL     1       8.230  30.206  58.980  1.00  0.00     0.007 A 
ENDBRANCH  25  26
ENDBRANCH  24  25
ENDBRANCH   4  24
TORSDOF 5
ENDMDL
MODEL 10
REMARK VINA RESULT:      -9.0      2.274      8.336
REMARK  5 active torsions:
REMARK  status: ('A' for Active; 'I' for Inactive)
REMARK    1  A    between atoms: C_7  and  C_8 
REMARK    2  A    between atoms: C_8  and  O_9 
REMARK    3  A    between atoms: N_12  and  C_13 
REMARK    4  A    between atoms: C_13  and  C_14 
REMARK    5  A    between atoms: C_14  and  C_15 
ROOT
HETATM    1  C   UNL     1       6.973  28.111  55.381  1.00  0.00     0.199 A 
HETATM    2  C   UNL     1       5.598  28.485  56.005  1.00  0.00     0.269 A 
HETATM    3  O   UNL     1       4.498  28.212  55.539  1.00  0.00    -0.269 OA
HETATM    4  N   UNL     1       5.850  29.309  57.121  1.00  0.00    -0.314 N 
HETATM    5  C   UNL     1       7.232  29.515  57.279  1.00  0.00     0.047 A 
HETATM    6  C   UNL     1       7.940  28.819  56.293  1.00  0.00     0.017 A 
HETATM    7  C   UNL     1       7.889  30.291  58.220  1.00  0.00     0.030 A 
HETATM    8  C   UNL     1       9.284  30.367  58.157  1.00  0.00     0.002 A 
HETATM    9  C   UNL     1       9.996  29.680  57.162  1.00  0.00     0.001 A 
HETATM   10  C   UNL     1       9.326  28.902  56.218  1.00  0.00     0.013 A 
ENDROOT
BRANCH   1  11
HETATM   11  C   UNL     1       7.319  26.640  55.394  1.00  0.00     0.025 A 
HETATM   12  C   UNL     1       7.492  25.844  56.531  1.00  0.00     0.016 A 
HETATM   13  C   UNL     1       7.391  26.164  57.981  1.00  0.00     0.069 C 
HETATM   14  N   UNL     1       7.788  24.571  56.122  1.00  0.00    -0.359 N 
HETATM   15  H   UNL     1       7.961  23.788  56.737  1.00  0.00     0.166 HD
HETATM   16  C   UNL     1       7.788  24.487  54.754  1.00  0.00     0.043 A 
HETATM   17  C   UNL     1       7.504  25.761  54.260  1.00  0.00     0.003 A 
HETATM   18  C   UNL     1       8.014  23.376  53.932  1.00  0.00     0.030 A 
HETATM   19  C   UNL     1       7.442  25.918  52.857  1.00  0.00     0.014 A 
HETATM   20  C   UNL     1       7.665  24.818  52.019  1.00  0.00     0.001 A 
HETATM   21  C   UNL     1       7.946  23.564  52.551  1.00  0.00     0.002 A 
ENDBRANCH   1  11
BRANCH   1  22
HETATM   22  O   UNL     1       7.031  28.690  54.077  1.00  0.00    -0.371 OA
HETATM   23  H   UNL     1       6.169  29.134  53.977  1.00  0.00     0.212 HD
ENDBRANCH   1  22
BRANCH   4  24
HETATM   24  C   UNL     1       4.823  30.128  57.734  1.00  0.00     0.137 C 
BRANCH  24  25
HETATM   25  C   UNL     1       4.634  31.497  57.074  1.00  0.00     0.058 C 
BRANCH  25  26
HETATM   26  C   UNL     1       4.541  32.576  58.129  1.00  0.00    -0.057 A 
HETATM   27  C   UNL     1       5.134  32.384  59.386  1.00  0.00     0.007 A 
HETATM   28  C   UNL     1       4.989  33.342  60.391  1.00  0.00     0.001 A 
HETATM   29  C   UNL     1       4.256  34.502  60.148  1.00  0.00     0.000 A 
HETATM   30  C   UNL     1       3.668  34.705  58.900  1.00  0.00     0.001 A 
HETATM   31  C   UNL     1       3.808  33.746  57.895  1.00  0.00     0.007 A 
ENDBRANCH  25  26
ENDBRANCH  24  25
ENDBRANCH   4  24
TORSDOF 5
ENDMDL
