MODEL 1
REMARK VINA RESULT:     -11.0      0.000      0.000
REMARK  7 active torsions:
REMARK  status: ('A' for Active; 'I' for Inactive)
REMARK    1  A    between atoms: O_2  and  C_3 
REMARK    2  A    between atoms: C_5  and  C_6 
REMARK    3  A    between atoms: C_8  and  N_9 
REMARK    4  A    between atoms: N_12  and  C_14 
REMARK    5  A    between atoms: C_14  and  C_15 
REMARK       I    between atoms: C_15  and  N_16 
REMARK    6  A    between atoms: N_16  and  N_17 
REMARK       I    between atoms: N_17  and  C_18 
REMARK    7  A    between atoms: C_18  and  C_19 
ROOT
HETATM    1  N   UNL     1       5.431  26.948  55.503  1.00  0.00    -0.357 N 
HETATM    2  C   UNL     1       5.028  28.300  55.086  1.00  0.00     0.152 C 
HETATM    3  C   UNL     1       6.020  29.358  55.626  1.00  0.00     0.255 C 
HETATM    4  N   UNL     1       6.141  29.214  57.143  1.00  0.00    -0.060 N 
HETATM    5  H   UNL     1       5.191  29.282  57.524  1.00  0.00     0.280 HD
HETATM    6  C   UNL     1       6.630  27.802  57.505  1.00  0.00     0.255 C 
HETATM    7  C   UNL     1       5.610  26.777  56.960  1.00  0.00     0.152 C 
ENDROOT
BRANCH   4   8
HETATM    8  C   UNL     1       6.935  30.331  57.822  1.00  0.00     0.338 C 
BRANCH   8   9
HETATM    9  C   UNL     1       8.397  30.029  58.156  1.00  0.00     0.262 C 
HETATM   10  N   UNL     1       8.830  30.299  59.435  1.00  0.00    -0.266 N 
HETATM   11  H   UNL     1       9.764  29.964  59.673  1.00  0.00     0.190 HD
HETATM   12  O   UNL     1       9.187  29.603  57.315  1.00  0.00    -0.270 OA
BRANCH  10  13
HETATM   13  N   UNL     1       7.966  30.624  60.498  1.00  0.00    -0.263 N 
HETATM   14  C   UNL     1       8.514  31.255  61.608  1.00  0.00     0.270 C 
HETATM   15  O   UNL     1       9.720  31.280  61.831  1.00  0.00    -0.266 OA
HETATM   16  H   UNL     1       7.010  30.862  60.230  1.00  0.00     0.190 HD
BRANCH  14  17
HETATM   17  C   UNL     1       7.553  31.889  62.547  1.00  0.00     0.033 A 
HETATM   18  C   UNL     1       8.059  32.672  63.592  1.00  0.00     0.019 A 
HETATM   19  C   UNL     1       7.186  33.267  64.507  1.00  0.00     0.025 A 
HETATM   20  C   UNL     1       5.812  33.064  64.386  1.00  0.00     0.034 A 
HETATM   21 CL   UNL     1       4.737  33.783  65.518  1.00  0.00    -0.084 Cl
HETATM   22  C   UNL     1       5.303  32.273  63.356  1.00  0.00     0.025 A 
HETATM   23  C   UNL     1       6.171  31.683  62.432  1.00  0.00     0.019 A 
ENDBRANCH  14  17
ENDBRANCH  10  13
ENDBRANCH   8   9
ENDBRANCH   4   8
BRANCH   1  24
HETATM   24  C   UNL     1       6.233  26.178  54.701  1.00  0.00     0.169 A 
HETATM   25  N   UNL     1       6.523  24.928  54.988  1.00  0.00    -0.223 NA
HETATM   26  C   UNL     1       7.293  24.339  53.995  1.00  0.00     0.076 A 
HETATM   27  C   UNL     1       7.613  25.179  52.949  1.00  0.00     0.085 A 
HETATM   28  S   UNL     1       6.929  26.723  53.213  1.00  0.00    -0.062 SA
BRANCH  26  29
HETATM   29  C   UNL     1       7.675  22.933  54.070  1.00  0.00    -0.004 A 
HETATM   30  C   UNL     1       7.924  22.296  55.294  1.00  0.00     0.050 A 
HETATM   31  C   UNL     1       8.304  20.949  55.344  1.00  0.00     0.069 A 
HETATM   32  C   UNL     1       8.437  20.228  54.158  1.00  0.00     0.037 A 
HETATM   33  C   UNL     1       8.186  20.848  52.933  1.00  0.00     0.004 A 
HETATM   34  C   UNL     1       7.805  22.191  52.890  1.00  0.00     0.014 A 
BRANCH  31  35
HETATM   35  O   UNL     1       8.512  20.466  56.607  1.00  0.00    -0.356 OA
HETATM   36  C   UNL     1       8.339  21.381  57.683  1.00  0.00     0.210 C 
ENDBRANCH  31  35
ENDBRANCH  26  29
ENDBRANCH   1  24
TORSDOF 7
ENDMDL
MODEL 2
REMARK VINA RESULT:     -10.5      4.043     11.346
REMARK  7 active torsions:
REMARK  status: ('A' for Active; 'I' for Inactive)
REMARK    1  A    between atoms: O_2  and  C_3 
REMARK    2  A    between atoms: C_5  and  C_6 
REMARK    3  A    between atoms: C_8  and  N_9 
REMARK    4  A    between atoms: N_12  and  C_14 
REMARK    5  A    between atoms: C_14  and  C_15 
REMARK       I    between atoms: C_15  and  N_16 
REMARK    6  A    between atoms: N_16  and  N_17 
REMARK       I    between atoms: N_17  and  C_18 
REMARK    7  A    between atoms: C_18  and  C_19 
ROOT
HETATM    1  N   UNL     1       7.595  31.327  58.611  1.00  0.00    -0.357 N 
HETATM    2  C   UNL     1       6.246  31.636  58.111  1.00  0.00     0.152 C 
HETATM    3  C   UNL     1       5.398  30.348  57.992  1.00  0.00     0.255 C 
HETATM    4  N   UNL     1       6.137  29.331  57.121  1.00  0.00    -0.060 N 
HETATM    5  H   UNL     1       6.339  29.796  56.230  1.00  0.00     0.280 HD
HETATM    6  C   UNL     1       7.507  29.003  57.737  1.00  0.00     0.255 C 
HETATM    7  C   UNL     1       8.326  30.310  57.829  1.00  0.00     0.152 C 
ENDROOT
BRANCH   4   8
HETATM    8  C   UNL     1       5.314  28.094  56.759  1.00  0.00     0.338 C 
BRANCH   8   9
HETATM    9  C   UNL     1       4.512  28.159  55.458  1.00  0.00     0.262 C 
HETATM   10  N   UNL     1       4.599  27.087  54.598  1.00  0.00    -0.266 N 
HETATM   11  H   UNL     1       3.954  27.091  53.808  1.00  0.00     0.190 HD
HETATM   12  O   UNL     1       3.843  29.144  55.148  1.00  0.00    -0.270 OA
BRANCH  10  13
HETATM   13  N   UNL     1       5.199  25.860  54.941  1.00  0.00    -0.263 N 
HETATM   14  C   UNL     1       5.919  25.193  53.957  1.00  0.00     0.270 C 
HETATM   15  O   UNL     1       5.819  25.461  52.764  1.00  0.00    -0.266 OA
HETATM   16  H   UNL     1       5.515  25.781  55.908  1.00  0.00     0.190 HD
BRANCH  14  17
HETATM   17  C   UNL     1       6.813  24.102  54.420  1.00  0.00     0.033 A 
HETATM   18  C   UNL     1       7.301  23.192  53.474  1.00  0.00     0.019 A 
HETATM   19  C   UNL     1       8.129  22.141  53.877  1.00  0.00     0.025 A 
HETATM   20  C   UNL     1       8.452  21.989  55.224  1.00  0.00     0.034 A 
HETATM   21 CL   UNL     1       9.457  20.688  55.724  1.00  0.00    -0.084 Cl
HETATM   22  C   UNL     1       7.956  22.883  56.173  1.00  0.00     0.025 A 
HETATM   23  C   UNL     1       7.135  23.943  55.775  1.00  0.00     0.019 A 
ENDBRANCH  14  17
ENDBRANCH  10  13
ENDBRANCH   8   9
ENDBRANCH   4   8
BRANCH   1  24
HETATM   24  C   UNL     1       7.871  31.371  59.954  1.00  0.00     0.169 A 
HETATM   25  N   UNL     1       7.174  32.106  60.792  1.00  0.00    -0.223 NA
HETATM   26  C   UNL     1       7.599  31.932  62.101  1.00  0.00     0.076 A 
HETATM   27  C   UNL     1       8.662  31.065  62.246  1.00  0.00     0.085 A 
HETATM   28  S   UNL     1       9.125  30.454  60.718  1.00  0.00    -0.062 SA
BRANCH  26  29
HETATM   29  C   UNL     1       6.922  32.598  63.209  1.00  0.00    -0.004 A 
HETATM   30  C   UNL     1       5.530  32.754  63.243  1.00  0.00     0.050 A 
HETATM   31  C   UNL     1       4.901  33.409  64.310  1.00  0.00     0.069 A 
HETATM   32  C   UNL     1       5.671  33.916  65.355  1.00  0.00     0.037 A 
HETATM   33  C   UNL     1       7.059  33.761  65.338  1.00  0.00     0.004 A 
HETATM   34  C   UNL     1       7.679  33.105  64.273  1.00  0.00     0.014 A 
BRANCH  31  35
HETATM   35  O   UNL     1       3.539  33.485  64.204  1.00  0.00    -0.356 OA
HETATM   36  C   UNL     1       3.018  34.328  63.182  1.00  0.00     0.210 C 
ENDBRANCH  31  35
ENDBRANCH  26  29
ENDBRANCH   1  24
TORSDOF 7
ENDMDL
MODEL 3
REMARK VINA RESULT:     -10.5      3.967     10.394
REMARK  7 active torsions:
REMARK  status: ('A' for Active; 'I' for Inactive)
REMARK    1  A    between atoms: O_2  and  C_3 
REMARK    2  A    between atoms: C_5  and  C_6 
REMARK    3  A    between atoms: C_8  and  N_9 
REMARK    4  A    between atoms: N_12  and  C_14 
REMARK    5  A    between atoms: C_14  and  C_15 
REMARK       I    between atoms: C_15  and  N_16 
REMARK    6  A    between atoms: N_16  and  N_17 
REMARK       I    between atoms: N_17  and  C_18 
REMARK    7  A    between atoms: C_18  and  C_19 
ROOT
HETATM    1  N   UNL     1       8.884  28.648  56.769  1.00  0.00    -0.357 N 
HETATM    2  C   UNL     1       8.438  28.871  55.385  1.00  0.00     0.152 C 
HETATM    3  C   UNL     1       6.894  28.947  55.313  1.00  0.00     0.255 C 
HETATM    4  N   UNL     1       6.293  27.687  55.936  1.00  0.00    -0.060 N 
HETATM    5  H   UNL     1       6.707  26.888  55.445  1.00  0.00     0.280 HD
HETATM    6  C   UNL     1       6.745  27.553  57.400  1.00  0.00     0.255 C 
HETATM    7  C   UNL     1       8.287  27.468  57.429  1.00  0.00     0.152 C 
ENDROOT
BRANCH   4   8
HETATM    8  C   UNL     1       4.783  27.547  55.744  1.00  0.00     0.338 C 
BRANCH   8   9
HETATM    9  C   UNL     1       4.237  27.850  54.348  1.00  0.00     0.262 C 
HETATM   10  N   UNL     1       4.452  26.916  53.359  1.00  0.00    -0.266 N 
HETATM   11  H   UNL     1       3.963  27.075  52.477  1.00  0.00     0.190 HD
HETATM   12  O   UNL     1       3.662  28.906  54.084  1.00  0.00    -0.270 OA
BRANCH  10  13
HETATM   13  N   UNL     1       4.945  25.621  53.605  1.00  0.00    -0.263 N 
HETATM   14  C   UNL     1       6.236  25.328  53.182  1.00  0.00     0.270 C 
HETATM   15  O   UNL     1       6.843  26.021  52.372  1.00  0.00    -0.266 OA
HETATM   16  H   UNL     1       4.603  25.176  54.457  1.00  0.00     0.190 HD
BRANCH  14  17
HETATM   17  C   UNL     1       6.851  24.100  53.745  1.00  0.00     0.033 A 
HETATM   18  C   UNL     1       6.885  23.948  55.137  1.00  0.00     0.019 A 
HETATM   19  C   UNL     1       7.475  22.815  55.703  1.00  0.00     0.025 A 
HETATM   20  C   UNL     1       8.045  21.845  54.879  1.00  0.00     0.034 A 
HETATM   21 CL   UNL     1       8.783  20.457  55.573  1.00  0.00    -0.084 Cl
HETATM   22  C   UNL     1       8.027  21.998  53.493  1.00  0.00     0.025 A 
HETATM   23  C   UNL     1       7.430  23.125  52.920  1.00  0.00     0.019 A 
ENDBRANCH  14  17
ENDBRANCH  10  13
ENDBRANCH   8   9
ENDBRANCH   4   8
BRANCH   1  24
HETATM   24  C   UNL     1       9.190  29.707  57.586  1.00  0.00     0.169 A 
HETATM   25  N   UNL     1       8.409  30.081  58.575  1.00  0.00    -0.223 NA
HETATM   26  C   UNL     1       8.964  31.129  59.297  1.00  0.00     0.076 A 
HETATM   27  C   UNL     1      10.179  31.571  58.818  1.00  0.00     0.085 A 
HETATM   28  S   UNL     1      10.635  30.651  57.451  1.00  0.00    -0.062 SA
BRANCH  26  29
HETATM   29  C   UNL     1       8.302  31.661  60.483  1.00  0.00    -0.004 A 
HETATM   30  C   UNL     1       6.981  32.131  60.448  1.00  0.00     0.050 A 
HETATM   31  C   UNL     1       6.368  32.651  61.595  1.00  0.00     0.069 A 
HETATM   32  C   UNL     1       7.082  32.704  62.791  1.00  0.00     0.037 A 
HETATM   33  C   UNL     1       8.395  32.233  62.842  1.00  0.00     0.004 A 
HETATM   34  C   UNL     1       9.000  31.713  61.696  1.00  0.00     0.014 A 
BRANCH  31  35
HETATM   35  O   UNL     1       5.079  33.070  61.408  1.00  0.00    -0.356 OA
HETATM   36  C   UNL     1       4.052  32.271  61.986  1.00  0.00     0.210 C 
ENDBRANCH  31  35
ENDBRANCH  26  29
ENDBRANCH   1  24
TORSDOF 7
ENDMDL
MODEL 4
REMARK VINA RESULT:     -10.3      3.952     10.509
REMARK  7 active torsions:
REMARK  status: ('A' for Active; 'I' for Inactive)
REMARK    1  A    between atoms: O_2  and  C_3 
REMARK    2  A    between atoms: C_5  and  C_6 
REMARK    3  A    between atoms: C_8  and  N_9 
REMARK    4  A    between atoms: N_12  and  C_14 
REMARK    5  A    between atoms: C_14  and  C_15 
REMARK       I    between atoms: C_15  and  N_16 
REMARK    6  A    between atoms: N_16  and  N_17 
REMARK       I    between atoms: N_17  and  C_18 
REMARK    7  A    between atoms: C_18  and  C_19 
ROOT
HETATM    1  N   UNL     1       7.209  28.231  56.320  1.00  0.00    -0.357 N 
HETATM    2  C   UNL     1       7.755  28.357  54.959  1.00  0.00     0.152 C 
HETATM    3  C   UNL     1       6.616  28.379  53.912  1.00  0.00     0.255 C 
HETATM    4  N   UNL     1       5.739  27.140  54.089  1.00  0.00    -0.060 N 
HETATM    5  H   UNL     1       6.360  26.326  54.031  1.00  0.00     0.280 HD
HETATM    6  C   UNL     1       5.147  27.107  55.508  1.00  0.00     0.255 C 
HETATM    7  C   UNL     1       6.313  27.074  56.522  1.00  0.00     0.152 C 
ENDROOT
BRANCH   4   8
HETATM    8  C   UNL     1       4.699  26.940  52.986  1.00  0.00     0.338 C 
BRANCH   8   9
HETATM    9  C   UNL     1       5.195  27.066  51.544  1.00  0.00     0.262 C 
HETATM   10  N   UNL     1       6.041  26.089  51.070  1.00  0.00    -0.266 N 
HETATM   11  H   UNL     1       6.247  26.119  50.071  1.00  0.00     0.190 HD
HETATM   12  O   UNL     1       4.897  28.023  50.830  1.00  0.00    -0.270 OA
BRANCH  10  13
HETATM   13  N   UNL     1       6.298  24.884  51.751  1.00  0.00    -0.263 N 
HETATM   14  C   UNL     1       7.534  24.741  52.370  1.00  0.00     0.270 C 
HETATM   15  O   UNL     1       8.492  25.464  52.116  1.00  0.00    -0.266 OA
HETATM   16  H   UNL     1       5.487  24.443  52.185  1.00  0.00     0.190 HD
BRANCH  14  17
HETATM   17  C   UNL     1       7.655  23.635  53.353  1.00  0.00     0.033 A 
HETATM   18  C   UNL     1       7.920  22.344  52.877  1.00  0.00     0.019 A 
HETATM   19  C   UNL     1       8.019  21.275  53.772  1.00  0.00     0.025 A 
HETATM   20  C   UNL     1       7.836  21.494  55.136  1.00  0.00     0.034 A 
HETATM   21 CL   UNL     1       7.944  20.179  56.236  1.00  0.00    -0.084 Cl
HETATM   22  C   UNL     1       7.556  22.774  55.614  1.00  0.00     0.025 A 
HETATM   23  C   UNL     1       7.465  23.849  54.725  1.00  0.00     0.019 A 
ENDBRANCH  14  17
ENDBRANCH  10  13
ENDBRANCH   8   9
ENDBRANCH   4   8
BRANCH   1  24
HETATM   24  C   UNL     1       6.936  29.346  57.071  1.00  0.00     0.169 A 
HETATM   25  N   UNL     1       7.484  29.553  58.249  1.00  0.00    -0.223 NA
HETATM   26  C   UNL     1       7.107  30.777  58.781  1.00  0.00     0.076 A 
HETATM   27  C   UNL     1       6.231  31.495  57.995  1.00  0.00     0.085 A 
HETATM   28  S   UNL     1       5.885  30.625  56.565  1.00  0.00    -0.062 SA
BRANCH  26  29
HETATM   29  C   UNL     1       7.649  31.246  60.052  1.00  0.00    -0.004 A 
HETATM   30  C   UNL     1       6.953  32.148  60.868  1.00  0.00     0.050 A 
HETATM   31  C   UNL     1       7.497  32.597  62.078  1.00  0.00     0.069 A 
HETATM   32  C   UNL     1       8.751  32.139  62.479  1.00  0.00     0.037 A 
HETATM   33  C   UNL     1       9.452  31.234  61.680  1.00  0.00     0.004 A 
HETATM   34  C   UNL     1       8.903  30.789  60.476  1.00  0.00     0.014 A 
BRANCH  31  35
HETATM   35  O   UNL     1       6.704  33.475  62.765  1.00  0.00    -0.356 OA
HETATM   36  C   UNL     1       6.965  33.626  64.157  1.00  0.00     0.210 C 
ENDBRANCH  31  35
ENDBRANCH  26  29
ENDBRANCH   1  24
TORSDOF 7
ENDMDL
MODEL 5
REMARK VINA RESULT:      -9.9      4.152     11.222
REMARK  7 active torsions:
REMARK  status: ('A' for Active; 'I' for Inactive)
REMARK    1  A    between atoms: O_2  and  C_3 
REMARK    2  A    between atoms: C_5  and  C_6 
REMARK    3  A    between atoms: C_8  and  N_9 
REMARK    4  A    between atoms: N_12  and  C_14 
REMARK    5  A    between atoms: C_14  and  C_15 
REMARK       I    between atoms: C_15  and  N_16 
REMARK    6  A    between atoms: N_16  and  N_17 
REMARK       I    between atoms: N_17  and  C_18 
REMARK    7  A    between atoms: C_18  and  C_19 
ROOT
HETATM    1  N   UNL     1       4.995  31.472  57.754  1.00  0.00    -0.357 N 
HETATM    2  C   UNL     1       3.908  30.490  57.887  1.00  0.00     0.152 C 
HETATM    3  C   UNL     1       4.289  29.156  57.202  1.00  0.00     0.255 C 
HETATM    4  N   UNL     1       4.674  29.424  55.746  1.00  0.00    -0.060 N 
HETATM    5  H   UNL     1       3.884  29.917  55.317  1.00  0.00     0.280 HD
HETATM    6  C   UNL     1       5.858  30.403  55.683  1.00  0.00     0.255 C 
HETATM    7  C   UNL     1       5.435  31.723  56.366  1.00  0.00     0.152 C 
ENDROOT
BRANCH   4   8
HETATM    8  C   UNL     1       4.875  28.163  54.905  1.00  0.00     0.338 C 
BRANCH   8   9
HETATM    9  C   UNL     1       3.960  27.994  53.691  1.00  0.00     0.262 C 
HETATM   10  N   UNL     1       3.987  26.785  53.031  1.00  0.00    -0.266 N 
HETATM   11  H   UNL     1       3.274  26.649  52.315  1.00  0.00     0.190 HD
HETATM   12  O   UNL     1       3.249  28.908  53.273  1.00  0.00    -0.270 OA
BRANCH  10  13
HETATM   13  N   UNL     1       4.634  25.640  53.532  1.00  0.00    -0.263 N 
HETATM   14  C   UNL     1       5.777  25.202  52.872  1.00  0.00     0.270 C 
HETATM   15  O   UNL     1       6.076  25.574  51.742  1.00  0.00    -0.266 OA
HETATM   16  H   UNL     1       4.580  25.511  54.542  1.00  0.00     0.190 HD
BRANCH  14  17
HETATM   17  C   UNL     1       6.623  24.223  53.601  1.00  0.00     0.033 A 
HETATM   18  C   UNL     1       7.380  23.310  52.855  1.00  0.00     0.019 A 
HETATM   19  C   UNL     1       8.172  22.362  53.507  1.00  0.00     0.025 A 
HETATM   20  C   UNL     1       8.193  22.315  54.900  1.00  0.00     0.034 A 
HETATM   21 CL   UNL     1       9.155  21.140  55.704  1.00  0.00    -0.084 Cl
HETATM   22  C   UNL     1       7.429  23.211  55.648  1.00  0.00     0.025 A 
HETATM   23  C   UNL     1       6.642  24.169  55.001  1.00  0.00     0.019 A 
ENDBRANCH  14  17
ENDBRANCH  10  13
ENDBRANCH   8   9
ENDBRANCH   4   8
BRANCH   1  24
HETATM   24  C   UNL     1       5.959  31.587  58.723  1.00  0.00     0.169 A 
HETATM   25  N   UNL     1       5.706  32.095  59.910  1.00  0.00    -0.223 NA
HETATM   26  C   UNL     1       6.819  32.042  60.737  1.00  0.00     0.076 A 
HETATM   27  C   UNL     1       7.944  31.507  60.146  1.00  0.00     0.085 A 
HETATM   28  S   UNL     1       7.595  31.056  58.534  1.00  0.00    -0.062 SA
BRANCH  26  29
HETATM   29  C   UNL     1       6.749  32.488  62.124  1.00  0.00    -0.004 A 
HETATM   30  C   UNL     1       5.531  32.797  62.745  1.00  0.00     0.050 A 
HETATM   31  C   UNL     1       5.487  33.237  64.074  1.00  0.00     0.069 A 
HETATM   32  C   UNL     1       6.674  33.371  64.792  1.00  0.00     0.037 A 
HETATM   33  C   UNL     1       7.894  33.060  64.189  1.00  0.00     0.004 A 
HETATM   34  C   UNL     1       7.931  32.619  62.865  1.00  0.00     0.014 A 
BRANCH  31  35
HETATM   35  O   UNL     1       4.229  33.501  64.542  1.00  0.00    -0.356 OA
HETATM   36  C   UNL     1       4.133  34.083  65.838  1.00  0.00     0.210 C 
ENDBRANCH  31  35
ENDBRANCH  26  29
ENDBRANCH   1  24
TORSDOF 7
ENDMDL
MODEL 6
REMARK VINA RESULT:      -9.4      3.410      4.867
REMARK  7 active torsions:
REMARK  status: ('A' for Active; 'I' for Inactive)
REMARK    1  A    between atoms: O_2  and  C_3 
REMARK    2  A    between atoms: C_5  and  C_6 
REMARK    3  A    between atoms: C_8  and  N_9 
REMARK    4  A    between atoms: N_12  and  C_14 
REMARK    5  A    between atoms: C_14  and  C_15 
REMARK       I    between atoms: C_15  and  N_16 
REMARK    6  A    between atoms: N_16  and  N_17 
REMARK       I    between atoms: N_17  and  C_18 
REMARK    7  A    between atoms: C_18  and  C_19 
ROOT
HETATM    1  N   UNL     1       5.632  25.699  55.691  1.00  0.00    -0.357 N 
HETATM    2  C   UNL     1       4.990  26.928  56.181  1.00  0.00     0.152 C 
HETATM    3  C   UNL     1       6.052  27.990  56.553  1.00  0.00     0.255 C 
HETATM    4  N   UNL     1       7.037  27.393  57.557  1.00  0.00    -0.060 N 
HETATM    5  H   UNL     1       6.482  27.046  58.346  1.00  0.00     0.280 HD
HETATM    6  C   UNL     1       7.722  26.154  56.956  1.00  0.00     0.255 C 
HETATM    7  C   UNL     1       6.632  25.115  56.609  1.00  0.00     0.152 C 
ENDROOT
BRANCH   4   8
HETATM    8  C   UNL     1       8.015  28.403  58.158  1.00  0.00     0.338 C 
BRANCH   8   9
HETATM    9  C   UNL     1       8.287  29.667  57.339  1.00  0.00     0.262 C 
HETATM   10  N   UNL     1       8.000  30.882  57.921  1.00  0.00    -0.266 N 
HETATM   11  H   UNL     1       8.315  31.708  57.414  1.00  0.00     0.190 HD
HETATM   12  O   UNL     1       8.705  29.621  56.183  1.00  0.00    -0.270 OA
BRANCH  10  13
HETATM   13  N   UNL     1       7.682  31.036  59.284  1.00  0.00    -0.263 N 
HETATM   14  C   UNL     1       8.328  32.045  59.989  1.00  0.00     0.270 C 
HETATM   15  O   UNL     1       9.341  32.600  59.577  1.00  0.00    -0.266 OA
HETATM   16  H   UNL     1       6.721  30.808  59.540  1.00  0.00     0.190 HD
BRANCH  14  17
HETATM   17  C   UNL     1       7.741  32.411  61.303  1.00  0.00     0.033 A 
HETATM   18  C   UNL     1       6.414  32.859  61.339  1.00  0.00     0.019 A 
HETATM   19  C   UNL     1       5.835  33.232  62.555  1.00  0.00     0.025 A 
HETATM   20  C   UNL     1       6.587  33.173  63.728  1.00  0.00     0.034 A 
HETATM   21 CL   UNL     1       5.881  33.645  65.222  1.00  0.00    -0.084 Cl
HETATM   22  C   UNL     1       7.913  32.742  63.695  1.00  0.00     0.025 A 
HETATM   23  C   UNL     1       8.495  32.359  62.484  1.00  0.00     0.019 A 
ENDBRANCH  14  17
ENDBRANCH  10  13
ENDBRANCH   8   9
ENDBRANCH   4   8
BRANCH   1  24
HETATM   24  C   UNL     1       5.861  25.514  54.351  1.00  0.00     0.169 A 
HETATM   25  N   UNL     1       5.318  26.281  53.432  1.00  0.00    -0.223 NA
HETATM   26  C   UNL     1       5.753  25.941  52.159  1.00  0.00     0.076 A 
HETATM   27  C   UNL     1       6.623  24.872  52.120  1.00  0.00     0.085 A 
HETATM   28  S   UNL     1       6.906  24.295  53.704  1.00  0.00    -0.062 SA
BRANCH  26  29
HETATM   29  C   UNL     1       5.331  26.704  50.989  1.00  0.00    -0.004 A 
HETATM   30  C   UNL     1       4.923  26.079  49.802  1.00  0.00     0.050 A 
HETATM   31  C   UNL     1       4.535  26.830  48.686  1.00  0.00     0.069 A 
HETATM   32  C   UNL     1       4.554  28.222  48.754  1.00  0.00     0.037 A 
HETATM   33  C   UNL     1       4.951  28.858  49.932  1.00  0.00     0.004 A 
HETATM   34  C   UNL     1       5.334  28.103  51.042  1.00  0.00     0.014 A 
BRANCH  31  35
HETATM   35  O   UNL     1       4.163  26.083  47.602  1.00  0.00    -0.356 OA
HETATM   36  C   UNL     1       3.007  25.266  47.748  1.00  0.00     0.210 C 
ENDBRANCH  31  35
ENDBRANCH  26  29
ENDBRANCH   1  24
TORSDOF 7
ENDMDL
MODEL 7
REMARK VINA RESULT:      -9.3      5.198      8.830
REMARK  7 active torsions:
REMARK  status: ('A' for Active; 'I' for Inactive)
REMARK    1  A    between atoms: O_2  and  C_3 
REMARK    2  A    between atoms: C_5  and  C_6 
REMARK    3  A    between atoms: C_8  and  N_9 
REMARK    4  A    between atoms: N_12  and  C_14 
REMARK    5  A    between atoms: C_14  and  C_15 
REMARK       I    between atoms: C_15  and  N_16 
REMARK    6  A    between atoms: N_16  and  N_17 
REMARK       I    between atoms: N_17  and  C_18 
REMARK    7  A    between atoms: C_18  and  C_19 
ROOT
HETATM    1  N   UNL     1       6.188  32.952  61.401  1.00  0.00    -0.357 N 
HETATM    2  C   UNL     1       6.523  34.214  62.079  1.00  0.00     0.152 C 
HETATM    3  C   UNL     1       6.505  34.032  63.615  1.00  0.00     0.255 C 
HETATM    4  N   UNL     1       5.150  33.467  64.044  1.00  0.00    -0.060 N 
HETATM    5  H   UNL     1       4.435  34.105  63.678  1.00  0.00     0.280 HD
HETATM    6  C   UNL     1       4.895  32.118  63.352  1.00  0.00     0.255 C 
HETATM    7  C   UNL     1       4.910  32.344  61.823  1.00  0.00     0.152 C 
ENDROOT
BRANCH   4   8
HETATM    8  C   UNL     1       4.932  33.432  65.557  1.00  0.00     0.338 C 
BRANCH   8   9
HETATM    9  C   UNL     1       4.135  34.589  66.163  1.00  0.00     0.262 C 
HETATM   10  N   UNL     1       4.081  34.679  67.536  1.00  0.00    -0.266 N 
HETATM   11  H   UNL     1       3.662  35.529  67.914  1.00  0.00     0.190 HD
HETATM   12  O   UNL     1       3.518  35.395  65.468  1.00  0.00    -0.270 OA
BRANCH  10  13
HETATM   13  N   UNL     1       4.884  33.910  68.399  1.00  0.00    -0.263 N 
HETATM   14  C   UNL     1       6.042  34.495  68.898  1.00  0.00     0.270 C 
HETATM   15  O   UNL     1       6.539  35.507  68.412  1.00  0.00    -0.266 OA
HETATM   16  H   UNL     1       4.384  33.249  68.993  1.00  0.00     0.190 HD
BRANCH  14  17
HETATM   17  C   UNL     1       6.681  33.813  70.052  1.00  0.00     0.033 A 
HETATM   18  C   UNL     1       6.115  32.620  70.519  1.00  0.00     0.019 A 
HETATM   19  C   UNL     1       6.676  31.962  71.617  1.00  0.00     0.025 A 
HETATM   20  C   UNL     1       7.790  32.505  72.255  1.00  0.00     0.034 A 
HETATM   21 CL   UNL     1       8.474  31.705  73.613  1.00  0.00    -0.084 Cl
HETATM   22  C   UNL     1       8.349  33.701  71.804  1.00  0.00     0.025 A 
HETATM   23  C   UNL     1       7.797  34.359  70.701  1.00  0.00     0.019 A 
ENDBRANCH  14  17
ENDBRANCH  10  13
ENDBRANCH   8   9
ENDBRANCH   4   8
BRANCH   1  24
HETATM   24  C   UNL     1       7.175  32.080  61.016  1.00  0.00     0.169 A 
HETATM   25  N   UNL     1       7.318  31.686  59.769  1.00  0.00    -0.223 NA
HETATM   26  C   UNL     1       8.424  30.862  59.618  1.00  0.00     0.076 A 
HETATM   27  C   UNL     1       9.111  30.608  60.786  1.00  0.00     0.085 A 
HETATM   28  S   UNL     1       8.364  31.424  62.089  1.00  0.00    -0.062 SA
BRANCH  26  29
HETATM   29  C   UNL     1       8.816  30.360  58.305  1.00  0.00    -0.004 A 
HETATM   30  C   UNL     1       7.884  29.819  57.408  1.00  0.00     0.050 A 
HETATM   31  C   UNL     1       8.284  29.329  56.158  1.00  0.00     0.069 A 
HETATM   32  C   UNL     1       9.629  29.382  55.797  1.00  0.00     0.037 A 
HETATM   33  C   UNL     1      10.567  29.925  56.677  1.00  0.00     0.004 A 
HETATM   34  C   UNL     1      10.162  30.413  57.921  1.00  0.00     0.014 A 
BRANCH  31  35
HETATM   35  O   UNL     1       7.264  28.831  55.393  1.00  0.00    -0.356 OA
HETATM   36  C   UNL     1       6.253  28.092  56.070  1.00  0.00     0.210 C 
ENDBRANCH  31  35
ENDBRANCH  26  29
ENDBRANCH   1  24
TORSDOF 7
ENDMDL
MODEL 8
REMARK VINA RESULT:      -9.1      7.239     10.864
REMARK  7 active torsions:
REMARK  status: ('A' for Active; 'I' for Inactive)
REMARK    1  A    between atoms: O_2  and  C_3 
REMARK    2  A    between atoms: C_5  and  C_6 
REMARK    3  A    between atoms: C_8  and  N_9 
REMARK    4  A    between atoms: N_12  and  C_14 
REMARK    5  A    between atoms: C_14  and  C_15 
REMARK       I    between atoms: C_15  and  N_16 
REMARK    6  A    between atoms: N_16  and  N_17 
REMARK       I    between atoms: N_17  and  C_18 
REMARK    7  A    between atoms: C_18  and  C_19 
ROOT
HETATM    1  N   UNL     1       5.030  27.404  49.932  1.00  0.00    -0.357 N 
HETATM    2  C   UNL     1       5.649  26.299  50.680  1.00  0.00     0.152 C 
HETATM    3  C   UNL     1       5.057  26.205  52.107  1.00  0.00     0.255 C 
HETATM    4  N   UNL     1       5.204  27.555  52.808  1.00  0.00    -0.060 N 
HETATM    5  H   UNL     1       6.199  27.801  52.771  1.00  0.00     0.280 HD
HETATM    6  C   UNL     1       4.478  28.650  52.010  1.00  0.00     0.255 C 
HETATM    7  C   UNL     1       5.103  28.721  50.598  1.00  0.00     0.152 C 
ENDROOT
BRANCH   4   8
HETATM    8  C   UNL     1       4.843  27.537  54.294  1.00  0.00     0.338 C 
BRANCH   8   9
HETATM    9  C   UNL     1       5.733  28.358  55.228  1.00  0.00     0.262 C 
HETATM   10  N   UNL     1       6.919  27.794  55.644  1.00  0.00    -0.266 N 
HETATM   11  H   UNL     1       7.555  28.409  56.151  1.00  0.00     0.190 HD
HETATM   12  O   UNL     1       5.400  29.468  55.643  1.00  0.00    -0.270 OA
BRANCH  10  13
HETATM   13  N   UNL     1       7.454  26.614  55.093  1.00  0.00    -0.263 N 
HETATM   14  C   UNL     1       7.148  25.411  55.718  1.00  0.00     0.270 C 
HETATM   15  O   UNL     1       6.691  25.349  56.855  1.00  0.00    -0.266 OA
HETATM   16  H   UNL     1       7.571  26.616  54.080  1.00  0.00     0.190 HD
BRANCH  14  17
HETATM   17  C   UNL     1       7.427  24.176  54.942  1.00  0.00     0.033 A 
HETATM   18  C   UNL     1       7.453  22.952  55.622  1.00  0.00     0.019 A 
HETATM   19  C   UNL     1       7.733  21.772  54.928  1.00  0.00     0.025 A 
HETATM   20  C   UNL     1       8.003  21.819  53.561  1.00  0.00     0.034 A 
HETATM   21 CL   UNL     1       8.362  20.371  52.709  1.00  0.00    -0.084 Cl
HETATM   22  C   UNL     1       7.994  23.037  52.881  1.00  0.00     0.025 A 
HETATM   23  C   UNL     1       7.705  24.219  53.569  1.00  0.00     0.019 A 
ENDBRANCH  14  17
ENDBRANCH  10  13
ENDBRANCH   8   9
ENDBRANCH   4   8
BRANCH   1  24
HETATM   24  C   UNL     1       3.928  27.187  49.144  1.00  0.00     0.169 A 
HETATM   25  N   UNL     1       3.061  28.136  48.868  1.00  0.00    -0.223 NA
HETATM   26  C   UNL     1       2.074  27.692  48.000  1.00  0.00     0.076 A 
HETATM   27  C   UNL     1       2.187  26.366  47.639  1.00  0.00     0.085 A 
HETATM   28  S   UNL     1       3.557  25.673  48.391  1.00  0.00    -0.062 SA
BRANCH  26  29
HETATM   29  C   UNL     1       1.043  28.597  47.503  1.00  0.00    -0.004 A 
HETATM   30  C   UNL     1       0.112  28.201  46.534  1.00  0.00     0.050 A 
HETATM   31  C   UNL     1      -0.861  29.090  46.060  1.00  0.00     0.069 A 
HETATM   32  C   UNL     1      -0.906  30.390  46.560  1.00  0.00     0.037 A 
HETATM   33  C   UNL     1       0.011  30.796  47.532  1.00  0.00     0.004 A 
HETATM   34  C   UNL     1       0.977  29.904  48.002  1.00  0.00     0.014 A 
BRANCH  31  35
HETATM   35  O   UNL     1      -1.699  28.562  45.115  1.00  0.00    -0.356 OA
HETATM   36  C   UNL     1      -1.147  28.327  43.824  1.00  0.00     0.210 C 
ENDBRANCH  31  35
ENDBRANCH  26  29
ENDBRANCH   1  24
TORSDOF 7
ENDMDL
MODEL 9
REMARK VINA RESULT:      -9.1      6.014      9.179
REMARK  7 active torsions:
REMARK  status: ('A' for Active; 'I' for Inactive)
REMARK    1  A    between atoms: O_2  and  C_3 
REMARK    2  A    between atoms: C_5  and  C_6 
REMARK    3  A    between atoms: C_8  and  N_9 
REMARK    4  A    between atoms: N_12  and  C_14 
REMARK    5  A    between atoms: C_14  and  C_15 
REMARK       I    between atoms: C_15  and  N_16 
REMARK    6  A    between atoms: N_16  and  N_17 
REMARK       I    between atoms: N_17  and  C_18 
REMARK    7  A    between atoms: C_18  and  C_19 
ROOT
HETATM    1  N   UNL     1       7.410  27.663  54.953  1.00  0.00    -0.357 N 
HETATM    2  C   UNL     1       7.302  29.037  55.469  1.00  0.00     0.152 C 
HETATM    3  C   UNL     1       5.827  29.393  55.773  1.00  0.00     0.255 C 
HETATM    4  N   UNL     1       4.979  29.158  54.522  1.00  0.00    -0.060 N 
HETATM    5  H   UNL     1       5.407  29.706  53.768  1.00  0.00     0.280 HD
HETATM    6  C   UNL     1       5.084  27.690  54.078  1.00  0.00     0.255 C 
HETATM    7  C   UNL     1       6.567  27.377  53.774  1.00  0.00     0.152 C 
ENDROOT
BRANCH   4   8
HETATM    8  C   UNL     1       3.541  29.665  54.631  1.00  0.00     0.338 C 
BRANCH   8   9
HETATM    9  C   UNL     1       3.236  31.013  53.975  1.00  0.00     0.262 C 
HETATM   10  N   UNL     1       2.942  31.019  52.630  1.00  0.00    -0.266 N 
HETATM   11  H   UNL     1       2.609  31.904  52.247  1.00  0.00     0.190 HD
HETATM   12  O   UNL     1       3.291  32.073  54.598  1.00  0.00    -0.270 OA
BRANCH  10  13
HETATM   13  N   UNL     1       2.693  29.852  51.882  1.00  0.00    -0.263 N 
HETATM   14  C   UNL     1       2.492  29.991  50.514  1.00  0.00     0.270 C 
HETATM   15  O   UNL     1       2.237  31.068  49.985  1.00  0.00    -0.266 OA
HETATM   16  H   UNL     1       3.156  29.008  52.219  1.00  0.00     0.190 HD
BRANCH  14  17
HETATM   17  C   UNL     1       2.575  28.748  49.706  1.00  0.00     0.033 A 
HETATM   18  C   UNL     1       3.767  28.011  49.735  1.00  0.00     0.019 A 
HETATM   19  C   UNL     1       3.889  26.847  48.972  1.00  0.00     0.025 A 
HETATM   20  C   UNL     1       2.828  26.431  48.168  1.00  0.00     0.034 A 
HETATM   21 CL   UNL     1       2.981  25.008  47.218  1.00  0.00    -0.084 Cl
HETATM   22  C   UNL     1       1.645  27.169  48.123  1.00  0.00     0.025 A 
HETATM   23  C   UNL     1       1.514  28.329  48.892  1.00  0.00     0.019 A 
ENDBRANCH  14  17
ENDBRANCH  10  13
ENDBRANCH   8   9
ENDBRANCH   4   8
BRANCH   1  24
HETATM   24  C   UNL     1       7.637  26.611  55.804  1.00  0.00     0.169 A 
HETATM   25  N   UNL     1       7.596  25.360  55.402  1.00  0.00    -0.223 NA
HETATM   26  C   UNL     1       7.925  24.482  56.425  1.00  0.00     0.076 A 
HETATM   27  C   UNL     1       8.193  25.090  57.634  1.00  0.00     0.085 A 
HETATM   28  S   UNL     1       8.038  26.785  57.479  1.00  0.00    -0.062 SA
BRANCH  26  29
HETATM   29  C   UNL     1       8.010  23.045  56.188  1.00  0.00    -0.004 A 
HETATM   30  C   UNL     1       7.721  22.480  54.938  1.00  0.00     0.050 A 
HETATM   31  C   UNL     1       7.795  21.096  54.736  1.00  0.00     0.069 A 
HETATM   32  C   UNL     1       8.163  20.266  55.793  1.00  0.00     0.037 A 
HETATM   33  C   UNL     1       8.461  20.816  57.041  1.00  0.00     0.004 A 
HETATM   34  C   UNL     1       8.387  22.196  57.236  1.00  0.00     0.014 A 
BRANCH  31  35
HETATM   35  O   UNL     1       7.485  20.692  53.466  1.00  0.00    -0.356 OA
HETATM   36  C   UNL     1       8.574  20.464  52.578  1.00  0.00     0.210 C 
ENDBRANCH  31  35
ENDBRANCH  26  29
ENDBRANCH   1  24
TORSDOF 7
ENDMDL
MODEL 10
REMARK VINA RESULT:      -8.9      4.377     10.956
REMARK  7 active torsions:
REMARK  status: ('A' for Active; 'I' for Inactive)
REMARK    1  A    between atoms: O_2  and  C_3 
REMARK    2  A    between atoms: C_5  and  C_6 
REMARK    3  A    between atoms: C_8  and  N_9 
REMARK    4  A    between atoms: N_12  and  C_14 
REMARK    5  A    between atoms: C_14  and  C_15 
REMARK       I    between atoms: C_15  and  N_16 
REMARK    6  A    between atoms: N_16  and  N_17 
REMARK       I    between atoms: N_17  and  C_18 
REMARK    7  A    between atoms: C_18  and  C_19 
ROOT
HETATM    1  N   UNL     1       4.120  31.787  57.349  1.00  0.00    -0.357 N 
HETATM    2  C   UNL     1       3.655  30.396  57.475  1.00  0.00     0.152 C 
HETATM    3  C   UNL     1       4.855  29.427  57.602  1.00  0.00     0.255 C 
HETATM    4  N   UNL     1       5.802  29.633  56.419  1.00  0.00    -0.060 N 
HETATM    5  H   UNL     1       5.242  29.516  55.568  1.00  0.00     0.280 HD
HETATM    6  C   UNL     1       6.302  31.087  56.387  1.00  0.00     0.255 C 
HETATM    7  C   UNL     1       5.079  32.021  56.249  1.00  0.00     0.152 C 
ENDROOT
BRANCH   4   8
HETATM    8  C   UNL     1       6.921  28.597  56.319  1.00  0.00     0.338 C 
BRANCH   8   9
HETATM    9  C   UNL     1       7.535  28.119  57.637  1.00  0.00     0.262 C 
HETATM   10  N   UNL     1       7.876  26.789  57.740  1.00  0.00    -0.266 N 
HETATM   11  H   UNL     1       8.405  26.524  58.570  1.00  0.00     0.190 HD
HETATM   12  O   UNL     1       7.685  28.870  58.600  1.00  0.00    -0.270 OA
BRANCH  10  13
HETATM   13  N   UNL     1       7.896  25.903  56.646  1.00  0.00    -0.263 N 
HETATM   14  C   UNL     1       8.597  24.712  56.790  1.00  0.00     0.270 C 
HETATM   15  O   UNL     1       9.416  24.526  57.684  1.00  0.00    -0.266 OA
HETATM   16  H   UNL     1       7.056  25.902  56.066  1.00  0.00     0.190 HD
BRANCH  14  17
HETATM   17  C   UNL     1       8.325  23.661  55.777  1.00  0.00     0.033 A 
HETATM   18  C   UNL     1       8.296  22.324  56.194  1.00  0.00     0.019 A 
HETATM   19  C   UNL     1       8.064  21.306  55.265  1.00  0.00     0.025 A 
HETATM   20  C   UNL     1       7.878  21.624  53.920  1.00  0.00     0.034 A 
HETATM   21 CL   UNL     1       7.606  20.374  52.773  1.00  0.00    -0.084 Cl
HETATM   22  C   UNL     1       7.921  22.953  53.497  1.00  0.00     0.025 A 
HETATM   23  C   UNL     1       8.144  23.975  54.423  1.00  0.00     0.019 A 
ENDBRANCH  14  17
ENDBRANCH  10  13
ENDBRANCH   8   9
ENDBRANCH   4   8
BRANCH   1  24
HETATM   24  C   UNL     1       4.268  32.580  58.459  1.00  0.00     0.169 A 
HETATM   25  N   UNL     1       5.085  32.270  59.441  1.00  0.00    -0.223 NA
HETATM   26  C   UNL     1       5.111  33.258  60.415  1.00  0.00     0.076 A 
HETATM   27  C   UNL     1       4.269  34.322  60.172  1.00  0.00     0.085 A 
HETATM   28  S   UNL     1       3.443  34.083  58.694  1.00  0.00    -0.062 SA
BRANCH  26  29
HETATM   29  C   UNL     1       6.001  33.158  61.567  1.00  0.00    -0.004 A 
HETATM   30  C   UNL     1       5.759  33.859  62.756  1.00  0.00     0.050 A 
HETATM   31  C   UNL     1       6.634  33.759  63.846  1.00  0.00     0.069 A 
HETATM   32  C   UNL     1       7.765  32.951  63.747  1.00  0.00     0.037 A 
HETATM   33  C   UNL     1       8.015  32.241  62.571  1.00  0.00     0.004 A 
HETATM   34  C   UNL     1       7.137  32.342  61.490  1.00  0.00     0.014 A 
BRANCH  31  35
HETATM   35  O   UNL     1       6.268  34.501  64.936  1.00  0.00    -0.356 OA
HETATM   36  C   UNL     1       5.329  33.912  65.829  1.00  0.00     0.210 C 
ENDBRANCH  31  35
ENDBRANCH  26  29
ENDBRANCH   1  24
TORSDOF 7
ENDMDL
