MODEL 1
REMARK VINA RESULT:      -9.2      0.000      0.000
REMARK  5 active torsions:
REMARK  status: ('A' for Active; 'I' for Inactive)
REMARK    1  A    between atoms: C_5  and  C_6 
REMARK    2  A    between atoms: C_10  and  C_11 
REMARK       I    between atoms: C_11  and  N_12 
REMARK    3  A    between atoms: N_12  and  C_13 
REMARK    4  A    between atoms: C_13  and  C_14 
REMARK    5  A    between atoms: C_14  and  O_15 
ROOT
HETATM    1  C   UNL     1       6.139  25.290  53.492  1.00  0.00     0.068 A 
HETATM    2  N   UNL     1       5.717  26.017  54.555  1.00  0.00    -0.248 NA
HETATM    3  C   UNL     1       5.118  27.205  54.365  1.00  0.00     0.068 A 
HETATM    4  C   UNL     1       4.869  27.747  53.089  1.00  0.00     0.008 A 
HETATM    5  C   UNL     1       5.259  26.943  51.997  1.00  0.00     0.046 A 
HETATM    6  C   UNL     1       5.909  25.724  52.200  1.00  0.00     0.050 A 
HETATM    7  C   UNL     1       4.738  27.927  55.488  1.00  0.00     0.032 A 
HETATM    8  C   UNL     1       4.136  29.184  55.393  1.00  0.00     0.002 A 
HETATM    9  C   UNL     1       3.915  29.745  54.144  1.00  0.00     0.001 A 
HETATM   10  C   UNL     1       4.284  29.039  53.000  1.00  0.00     0.015 A 
ENDROOT
BRANCH   5  11
HETATM   11  C   UNL     1       5.013  27.284  50.574  1.00  0.00     0.252 C 
HETATM   12  N   UNL     1       4.197  26.426  49.869  1.00  0.00    -0.354 N 
HETATM   13  H   UNL     1       3.941  25.562  50.332  1.00  0.00     0.162 HD
HETATM   14  O   UNL     1       5.599  28.237  50.076  1.00  0.00    -0.268 OA
BRANCH  12  15
HETATM   15  C   UNL     1       4.130  26.405  48.408  1.00  0.00     0.154 C 
BRANCH  15  16
HETATM   16  C   UNL     1       2.907  25.686  47.804  1.00  0.00     0.132 C 
HETATM   17  C   UNL     1       2.946  24.194  48.110  1.00  0.00     0.041 C 
BRANCH  16  18
HETATM   18  O   UNL     1       2.903  25.810  46.381  1.00  0.00    -0.394 OA
HETATM   19  H   UNL     1       2.089  25.350  46.073  1.00  0.00     0.210 HD
ENDBRANCH  16  18
ENDBRANCH  15  16
ENDBRANCH  12  15
ENDBRANCH   5  11
BRANCH   1  20
HETATM   20  C   UNL     1       6.828  24.019  53.799  1.00  0.00    -0.007 A 
HETATM   21  C   UNL     1       6.969  23.576  55.125  1.00  0.00     0.014 A 
HETATM   22  C   UNL     1       7.603  22.365  55.431  1.00  0.00     0.007 A 
HETATM   23  C   UNL     1       8.127  21.564  54.415  1.00  0.00    -0.062 A 
HETATM   24  C   UNL     1       8.783  20.252  54.724  1.00  0.00     0.048 C 
HETATM   25  C   UNL     1       8.001  21.989  53.090  1.00  0.00     0.007 A 
HETATM   26  C   UNL     1       7.368  23.200  52.790  1.00  0.00     0.014 A 
ENDBRANCH   1  20
TORSDOF 5
ENDMDL
MODEL 2
REMARK VINA RESULT:      -9.2      4.247      6.655
REMARK  5 active torsions:
REMARK  status: ('A' for Active; 'I' for Inactive)
REMARK    1  A    between atoms: C_5  and  C_6 
REMARK    2  A    between atoms: C_10  and  C_11 
REMARK       I    between atoms: C_11  and  N_12 
REMARK    3  A    between atoms: N_12  and  C_13 
REMARK    4  A    between atoms: C_13  and  C_14 
REMARK    5  A    between atoms: C_14  and  O_15 
ROOT
HETATM    1  C   UNL     1       6.866  25.865  54.834  1.00  0.00     0.068 A 
HETATM    2  N   UNL     1       5.861  26.478  54.163  1.00  0.00    -0.248 NA
HETATM    3  C   UNL     1       5.450  27.702  54.536  1.00  0.00     0.068 A 
HETATM    4  C   UNL     1       6.035  28.422  55.596  1.00  0.00     0.008 A 
HETATM    5  C   UNL     1       7.121  27.790  56.237  1.00  0.00     0.046 A 
HETATM    6  C   UNL     1       7.524  26.505  55.866  1.00  0.00     0.050 A 
HETATM    7  C   UNL     1       4.392  28.272  53.840  1.00  0.00     0.032 A 
HETATM    8  C   UNL     1       3.876  29.526  54.172  1.00  0.00     0.002 A 
HETATM    9  C   UNL     1       4.420  30.232  55.235  1.00  0.00     0.001 A 
HETATM   10  C   UNL     1       5.486  29.684  55.948  1.00  0.00     0.015 A 
ENDROOT
BRANCH   5  11
HETATM   11  C   UNL     1       7.933  28.405  57.316  1.00  0.00     0.252 C 
HETATM   12  N   UNL     1       8.714  29.482  56.960  1.00  0.00    -0.354 N 
HETATM   13  H   UNL     1       8.782  29.684  55.969  1.00  0.00     0.162 HD
HETATM   14  O   UNL     1       7.940  27.889  58.428  1.00  0.00    -0.268 OA
BRANCH  12  15
HETATM   15  C   UNL     1       9.816  29.978  57.783  1.00  0.00     0.154 C 
BRANCH  15  16
HETATM   16  C   UNL     1       9.450  31.073  58.806  1.00  0.00     0.132 C 
HETATM   17  C   UNL     1       7.959  31.384  58.760  1.00  0.00     0.041 C 
BRANCH  16  18
HETATM   18  O   UNL     1      10.130  32.292  58.504  1.00  0.00    -0.394 OA
HETATM   19  H   UNL     1       9.789  32.956  59.145  1.00  0.00     0.210 HD
ENDBRANCH  16  18
ENDBRANCH  15  16
ENDBRANCH  12  15
ENDBRANCH   5  11
BRANCH   1  20
HETATM   20  C   UNL     1       7.218  24.502  54.383  1.00  0.00    -0.007 A 
HETATM   21  C   UNL     1       7.543  24.247  53.039  1.00  0.00     0.014 A 
HETATM   22  C   UNL     1       7.897  22.965  52.600  1.00  0.00     0.007 A 
HETATM   23  C   UNL     1       7.925  21.893  53.494  1.00  0.00    -0.062 A 
HETATM   24  C   UNL     1       8.328  20.521  53.045  1.00  0.00     0.048 C 
HETATM   25  C   UNL     1       7.600  22.124  54.832  1.00  0.00     0.007 A 
HETATM   26  C   UNL     1       7.246  23.406  55.266  1.00  0.00     0.014 A 
ENDBRANCH   1  20
TORSDOF 5
ENDMDL
MODEL 3
REMARK VINA RESULT:      -9.1      2.594      5.221
REMARK  5 active torsions:
REMARK  status: ('A' for Active; 'I' for Inactive)
REMARK    1  A    between atoms: C_5  and  C_6 
REMARK    2  A    between atoms: C_10  and  C_11 
REMARK       I    between atoms: C_11  and  N_12 
REMARK    3  A    between atoms: N_12  and  C_13 
REMARK    4  A    between atoms: C_13  and  C_14 
REMARK    5  A    between atoms: C_14  and  O_15 
ROOT
HETATM    1  C   UNL     1       6.231  25.169  53.257  1.00  0.00     0.068 A 
HETATM    2  N   UNL     1       5.916  25.218  51.939  1.00  0.00    -0.248 NA
HETATM    3  C   UNL     1       5.263  26.281  51.441  1.00  0.00     0.068 A 
HETATM    4  C   UNL     1       4.897  27.396  52.220  1.00  0.00     0.008 A 
HETATM    5  C   UNL     1       5.293  27.351  53.574  1.00  0.00     0.046 A 
HETATM    6  C   UNL     1       5.944  26.230  54.094  1.00  0.00     0.050 A 
HETATM    7  C   UNL     1       4.930  26.265  50.093  1.00  0.00     0.032 A 
HETATM    8  C   UNL     1       4.226  27.310  49.491  1.00  0.00     0.002 A 
HETATM    9  C   UNL     1       3.831  28.399  50.253  1.00  0.00     0.001 A 
HETATM   10  C   UNL     1       4.155  28.442  51.608  1.00  0.00     0.015 A 
ENDROOT
BRANCH   5  11
HETATM   11  C   UNL     1       5.087  28.453  54.546  1.00  0.00     0.252 C 
HETATM   12  N   UNL     1       6.215  29.122  54.966  1.00  0.00    -0.354 N 
HETATM   13  H   UNL     1       7.106  28.726  54.688  1.00  0.00     0.162 HD
HETATM   14  O   UNL     1       3.963  28.657  54.989  1.00  0.00    -0.268 OA
BRANCH  12  15
HETATM   15  C   UNL     1       6.245  29.975  56.153  1.00  0.00     0.154 C 
BRANCH  15  16
HETATM   16  C   UNL     1       6.237  29.239  57.508  1.00  0.00     0.132 C 
HETATM   17  C   UNL     1       7.104  27.987  57.453  1.00  0.00     0.041 C 
BRANCH  16  18
HETATM   18  O   UNL     1       4.917  28.806  57.839  1.00  0.00    -0.394 OA
HETATM   19  H   UNL     1       4.879  27.852  57.599  1.00  0.00     0.210 HD
ENDBRANCH  16  18
ENDBRANCH  15  16
ENDBRANCH  12  15
ENDBRANCH   5  11
BRANCH   1  20
HETATM   20  C   UNL     1       6.908  23.941  53.724  1.00  0.00    -0.007 A 
HETATM   21  C   UNL     1       6.976  23.629  55.093  1.00  0.00     0.014 A 
HETATM   22  C   UNL     1       7.597  22.460  55.549  1.00  0.00     0.007 A 
HETATM   23  C   UNL     1       8.183  21.571  54.647  1.00  0.00    -0.062 A 
HETATM   24  C   UNL     1       8.828  20.302  55.117  1.00  0.00     0.048 C 
HETATM   25  C   UNL     1       8.131  21.865  53.282  1.00  0.00     0.007 A 
HETATM   26  C   UNL     1       7.510  23.034  52.831  1.00  0.00     0.014 A 
ENDBRANCH   1  20
TORSDOF 5
ENDMDL
MODEL 4
REMARK VINA RESULT:      -8.8      2.521      5.947
REMARK  5 active torsions:
REMARK  status: ('A' for Active; 'I' for Inactive)
REMARK    1  A    between atoms: C_5  and  C_6 
REMARK    2  A    between atoms: C_10  and  C_11 
REMARK       I    between atoms: C_11  and  N_12 
REMARK    3  A    between atoms: N_12  and  C_13 
REMARK    4  A    between atoms: C_13  and  C_14 
REMARK    5  A    between atoms: C_14  and  O_15 
ROOT
HETATM    1  C   UNL     1       7.249  26.297  55.403  1.00  0.00     0.068 A 
HETATM    2  N   UNL     1       8.099  25.287  55.711  1.00  0.00    -0.248 NA
HETATM    3  C   UNL     1       8.130  24.177  54.954  1.00  0.00     0.068 A 
HETATM    4  C   UNL     1       7.329  24.003  53.809  1.00  0.00     0.008 A 
HETATM    5  C   UNL     1       6.500  25.093  53.471  1.00  0.00     0.046 A 
HETATM    6  C   UNL     1       6.448  26.232  54.278  1.00  0.00     0.050 A 
HETATM    7  C   UNL     1       8.991  23.156  55.334  1.00  0.00     0.032 A 
HETATM    8  C   UNL     1       9.073  21.954  54.628  1.00  0.00     0.002 A 
HETATM    9  C   UNL     1       8.266  21.755  53.518  1.00  0.00     0.001 A 
HETATM   10  C   UNL     1       7.395  22.766  53.113  1.00  0.00     0.015 A 
ENDROOT
BRANCH   5  11
HETATM   11  C   UNL     1       5.644  25.154  52.260  1.00  0.00     0.252 C 
HETATM   12  N   UNL     1       6.058  26.001  51.257  1.00  0.00    -0.354 N 
HETATM   13  H   UNL     1       6.833  26.617  51.474  1.00  0.00     0.162 HD
HETATM   14  O   UNL     1       4.588  24.532  52.242  1.00  0.00    -0.268 OA
BRANCH  12  15
HETATM   15  C   UNL     1       5.183  26.446  50.173  1.00  0.00     0.154 C 
BRANCH  15  16
HETATM   16  C   UNL     1       4.716  27.914  50.247  1.00  0.00     0.132 C 
HETATM   17  C   UNL     1       5.446  28.662  51.355  1.00  0.00     0.041 C 
BRANCH  16  18
HETATM   18  O   UNL     1       3.324  27.985  50.557  1.00  0.00    -0.394 OA
HETATM   19  H   UNL     1       3.069  27.083  50.856  1.00  0.00     0.210 HD
ENDBRANCH  16  18
ENDBRANCH  15  16
ENDBRANCH  12  15
ENDBRANCH   5  11
BRANCH   1  20
HETATM   20  C   UNL     1       7.251  27.458  56.318  1.00  0.00    -0.007 A 
HETATM   21  C   UNL     1       8.435  27.880  56.946  1.00  0.00     0.014 A 
HETATM   22  C   UNL     1       8.457  28.989  57.801  1.00  0.00     0.007 A 
HETATM   23  C   UNL     1       7.288  29.704  58.064  1.00  0.00    -0.062 A 
HETATM   24  C   UNL     1       7.300  30.909  58.955  1.00  0.00     0.048 C 
HETATM   25  C   UNL     1       6.099  29.297  57.454  1.00  0.00     0.007 A 
HETATM   26  C   UNL     1       6.081  28.188  56.601  1.00  0.00     0.014 A 
ENDBRANCH   1  20
TORSDOF 5
ENDMDL
MODEL 5
REMARK VINA RESULT:      -8.7      2.674      3.573
REMARK  5 active torsions:
REMARK  status: ('A' for Active; 'I' for Inactive)
REMARK    1  A    between atoms: C_5  and  C_6 
REMARK    2  A    between atoms: C_10  and  C_11 
REMARK       I    between atoms: C_11  and  N_12 
REMARK    3  A    between atoms: N_12  and  C_13 
REMARK    4  A    between atoms: C_13  and  C_14 
REMARK    5  A    between atoms: C_14  and  O_15 
ROOT
HETATM    1  C   UNL     1       7.074  25.589  54.803  1.00  0.00     0.068 A 
HETATM    2  N   UNL     1       7.545  26.070  55.980  1.00  0.00    -0.248 NA
HETATM    3  C   UNL     1       7.280  27.336  56.345  1.00  0.00     0.068 A 
HETATM    4  C   UNL     1       6.496  28.213  55.572  1.00  0.00     0.008 A 
HETATM    5  C   UNL     1       5.963  27.670  54.383  1.00  0.00     0.046 A 
HETATM    6  C   UNL     1       6.267  26.364  53.992  1.00  0.00     0.050 A 
HETATM    7  C   UNL     1       7.817  27.792  57.542  1.00  0.00     0.032 A 
HETATM    8  C   UNL     1       7.623  29.099  57.991  1.00  0.00     0.002 A 
HETATM    9  C   UNL     1       6.881  29.985  57.224  1.00  0.00     0.001 A 
HETATM   10  C   UNL     1       6.327  29.551  56.020  1.00  0.00     0.015 A 
ENDROOT
BRANCH   5  11
HETATM   11  C   UNL     1       5.044  28.392  53.469  1.00  0.00     0.252 C 
HETATM   12  N   UNL     1       5.629  29.104  52.446  1.00  0.00    -0.354 N 
HETATM   13  H   UNL     1       6.638  29.195  52.476  1.00  0.00     0.162 HD
HETATM   14  O   UNL     1       3.842  28.394  53.708  1.00  0.00    -0.268 OA
BRANCH  12  15
HETATM   15  C   UNL     1       4.925  30.134  51.683  1.00  0.00     0.154 C 
BRANCH  15  16
HETATM   16  C   UNL     1       5.250  30.192  50.176  1.00  0.00     0.132 C 
HETATM   17  C   UNL     1       5.490  28.796  49.616  1.00  0.00     0.041 C 
BRANCH  16  18
HETATM   18  O   UNL     1       6.448  30.935  49.948  1.00  0.00    -0.394 OA
HETATM   19  H   UNL     1       7.168  30.268  49.877  1.00  0.00     0.210 HD
ENDBRANCH  16  18
ENDBRANCH  15  16
ENDBRANCH  12  15
ENDBRANCH   5  11
BRANCH   1  20
HETATM   20  C   UNL     1       7.454  24.201  54.463  1.00  0.00    -0.007 A 
HETATM   21  C   UNL     1       7.586  23.796  53.124  1.00  0.00     0.014 A 
HETATM   22  C   UNL     1       7.964  22.491  52.786  1.00  0.00     0.007 A 
HETATM   23  C   UNL     1       8.208  21.544  53.782  1.00  0.00    -0.062 A 
HETATM   24  C   UNL     1       8.639  20.151  53.438  1.00  0.00     0.048 C 
HETATM   25  C   UNL     1       8.076  21.925  55.119  1.00  0.00     0.007 A 
HETATM   26  C   UNL     1       7.698  23.230  55.453  1.00  0.00     0.014 A 
ENDBRANCH   1  20
TORSDOF 5
ENDMDL
MODEL 6
REMARK VINA RESULT:      -8.6      3.603      6.720
REMARK  5 active torsions:
REMARK  status: ('A' for Active; 'I' for Inactive)
REMARK    1  A    between atoms: C_5  and  C_6 
REMARK    2  A    between atoms: C_10  and  C_11 
REMARK       I    between atoms: C_11  and  N_12 
REMARK    3  A    between atoms: N_12  and  C_13 
REMARK    4  A    between atoms: C_13  and  C_14 
REMARK    5  A    between atoms: C_14  and  O_15 
ROOT
HETATM    1  C   UNL     1       8.047  27.094  56.591  1.00  0.00     0.068 A 
HETATM    2  N   UNL     1       8.566  25.933  57.060  1.00  0.00    -0.248 NA
HETATM    3  C   UNL     1       8.217  24.763  56.497  1.00  0.00     0.068 A 
HETATM    4  C   UNL     1       7.341  24.667  55.399  1.00  0.00     0.008 A 
HETATM    5  C   UNL     1       6.864  25.894  54.888  1.00  0.00     0.046 A 
HETATM    6  C   UNL     1       7.204  27.104  55.496  1.00  0.00     0.050 A 
HETATM    7  C   UNL     1       8.748  23.600  57.038  1.00  0.00     0.032 A 
HETATM    8  C   UNL     1       8.422  22.336  56.541  1.00  0.00     0.002 A 
HETATM    9  C   UNL     1       7.534  22.224  55.482  1.00  0.00     0.001 A 
HETATM   10  C   UNL     1       6.990  23.377  54.918  1.00  0.00     0.015 A 
ENDROOT
BRANCH   5  11
HETATM   11  C   UNL     1       6.002  26.025  53.688  1.00  0.00     0.252 C 
HETATM   12  N   UNL     1       6.243  27.109  52.874  1.00  0.00    -0.354 N 
HETATM   13  H   UNL     1       6.892  27.804  53.225  1.00  0.00     0.162 HD
HETATM   14  O   UNL     1       5.081  25.234  53.523  1.00  0.00    -0.268 OA
BRANCH  12  15
HETATM   15  C   UNL     1       5.291  27.583  51.870  1.00  0.00     0.154 C 
BRANCH  15  16
HETATM   16  C   UNL     1       4.097  28.397  52.408  1.00  0.00     0.132 C 
HETATM   17  C   UNL     1       4.551  29.393  53.468  1.00  0.00     0.041 C 
BRANCH  16  18
HETATM   18  O   UNL     1       3.145  27.538  53.037  1.00  0.00    -0.394 OA
HETATM   19  H   UNL     1       3.469  26.621  52.884  1.00  0.00     0.210 HD
ENDBRANCH  16  18
ENDBRANCH  15  16
ENDBRANCH  12  15
ENDBRANCH   5  11
BRANCH   1  20
HETATM   20  C   UNL     1       8.451  28.326  57.301  1.00  0.00    -0.007 A 
HETATM   21  C   UNL     1       9.692  28.934  57.045  1.00  0.00     0.014 A 
HETATM   22  C   UNL     1      10.082  30.112  57.696  1.00  0.00     0.007 A 
HETATM   23  C   UNL     1       9.242  30.711  58.636  1.00  0.00    -0.062 A 
HETATM   24  C   UNL     1       9.633  31.986  59.321  1.00  0.00     0.048 C 
HETATM   25  C   UNL     1       8.007  30.120  58.910  1.00  0.00     0.007 A 
HETATM   26  C   UNL     1       7.623  28.943  58.258  1.00  0.00     0.014 A 
ENDBRANCH   1  20
TORSDOF 5
ENDMDL
MODEL 7
REMARK VINA RESULT:      -8.3      4.061      7.588
REMARK  5 active torsions:
REMARK  status: ('A' for Active; 'I' for Inactive)
REMARK    1  A    between atoms: C_5  and  C_6 
REMARK    2  A    between atoms: C_10  and  C_11 
REMARK       I    between atoms: C_11  and  N_12 
REMARK    3  A    between atoms: N_12  and  C_13 
REMARK    4  A    between atoms: C_13  and  C_14 
REMARK    5  A    between atoms: C_14  and  O_15 
ROOT
HETATM    1  C   UNL     1       7.076  27.375  56.392  1.00  0.00     0.068 A 
HETATM    2  N   UNL     1       6.158  27.450  55.398  1.00  0.00    -0.248 NA
HETATM    3  C   UNL     1       5.991  26.416  54.555  1.00  0.00     0.068 A 
HETATM    4  C   UNL     1       6.713  25.212  54.660  1.00  0.00     0.008 A 
HETATM    5  C   UNL     1       7.616  25.133  55.742  1.00  0.00     0.046 A 
HETATM    6  C   UNL     1       7.809  26.221  56.596  1.00  0.00     0.050 A 
HETATM    7  C   UNL     1       5.065  26.557  53.531  1.00  0.00     0.032 A 
HETATM    8  C   UNL     1       4.842  25.551  52.589  1.00  0.00     0.002 A 
HETATM    9  C   UNL     1       5.570  24.372  52.660  1.00  0.00     0.001 A 
HETATM   10  C   UNL     1       6.503  24.203  53.682  1.00  0.00     0.015 A 
ENDROOT
BRANCH   5  11
HETATM   11  C   UNL     1       8.411  23.928  56.087  1.00  0.00     0.252 C 
HETATM   12  N   UNL     1       8.888  23.184  55.031  1.00  0.00    -0.354 N 
HETATM   13  H   UNL     1       8.548  23.435  54.110  1.00  0.00     0.162 HD
HETATM   14  O   UNL     1       8.531  23.607  57.263  1.00  0.00    -0.268 OA
BRANCH  12  15
HETATM   15  C   UNL     1       9.374  21.812  55.173  1.00  0.00     0.154 C 
BRANCH  15  16
HETATM   16  C   UNL     1       8.347  20.702  54.870  1.00  0.00     0.132 C 
HETATM   17  C   UNL     1       7.528  20.365  56.109  1.00  0.00     0.041 C 
BRANCH  16  18
HETATM   18  O   UNL     1       9.008  19.498  54.478  1.00  0.00    -0.394 OA
HETATM   19  H   UNL     1       9.568  19.238  55.244  1.00  0.00     0.210 HD
ENDBRANCH  16  18
ENDBRANCH  15  16
ENDBRANCH  12  15
ENDBRANCH   5  11
BRANCH   1  20
HETATM   20  C   UNL     1       7.223  28.577  57.240  1.00  0.00    -0.007 A 
HETATM   21  C   UNL     1       8.420  28.832  57.931  1.00  0.00     0.014 A 
HETATM   22  C   UNL     1       8.581  29.976  58.723  1.00  0.00     0.007 A 
HETATM   23  C   UNL     1       7.539  30.895  58.859  1.00  0.00    -0.062 A 
HETATM   24  C   UNL     1       7.705  32.137  59.681  1.00  0.00     0.048 C 
HETATM   25  C   UNL     1       6.339  30.656  58.186  1.00  0.00     0.007 A 
HETATM   26  C   UNL     1       6.183  29.512  57.396  1.00  0.00     0.014 A 
ENDBRANCH   1  20
TORSDOF 5
ENDMDL
MODEL 8
REMARK VINA RESULT:      -8.3      3.117      5.752
REMARK  5 active torsions:
REMARK  status: ('A' for Active; 'I' for Inactive)
REMARK    1  A    between atoms: C_5  and  C_6 
REMARK    2  A    between atoms: C_10  and  C_11 
REMARK       I    between atoms: C_11  and  N_12 
REMARK    3  A    between atoms: N_12  and  C_13 
REMARK    4  A    between atoms: C_13  and  C_14 
REMARK    5  A    between atoms: C_14  and  O_15 
ROOT
HETATM    1  C   UNL     1       7.060  24.958  53.615  1.00  0.00     0.068 A 
HETATM    2  N   UNL     1       6.461  25.101  52.408  1.00  0.00    -0.248 NA
HETATM    3  C   UNL     1       6.018  26.307  52.014  1.00  0.00     0.068 A 
HETATM    4  C   UNL     1       6.167  27.474  52.787  1.00  0.00     0.008 A 
HETATM    5  C   UNL     1       6.852  27.312  54.011  1.00  0.00     0.046 A 
HETATM    6  C   UNL     1       7.282  26.052  54.431  1.00  0.00     0.050 A 
HETATM    7  C   UNL     1       5.377  26.393  50.785  1.00  0.00     0.032 A 
HETATM    8  C   UNL     1       4.858  27.595  50.302  1.00  0.00     0.002 A 
HETATM    9  C   UNL     1       4.967  28.746  51.068  1.00  0.00     0.001 A 
HETATM   10  C   UNL     1       5.610  28.688  52.304  1.00  0.00     0.015 A 
ENDROOT
BRANCH   5  11
HETATM   11  C   UNL     1       7.193  28.422  54.935  1.00  0.00     0.252 C 
HETATM   12  N   UNL     1       6.165  28.915  55.708  1.00  0.00    -0.354 N 
HETATM   13  H   UNL     1       5.234  28.580  55.490  1.00  0.00     0.162 HD
HETATM   14  O   UNL     1       8.322  28.897  54.909  1.00  0.00    -0.268 OA
BRANCH  12  15
HETATM   15  C   UNL     1       6.229  30.203  56.397  1.00  0.00     0.154 C 
BRANCH  15  16
HETATM   16  C   UNL     1       6.822  30.175  57.820  1.00  0.00     0.132 C 
HETATM   17  C   UNL     1       6.547  31.482  58.552  1.00  0.00     0.041 C 
BRANCH  16  18
HETATM   18  O   UNL     1       8.242  30.026  57.771  1.00  0.00    -0.394 OA
HETATM   19  H   UNL     1       8.412  29.058  57.812  1.00  0.00     0.210 HD
ENDBRANCH  16  18
ENDBRANCH  15  16
ENDBRANCH  12  15
ENDBRANCH   5  11
BRANCH   1  20
HETATM   20  C   UNL     1       7.472  23.587  53.985  1.00  0.00    -0.007 A 
HETATM   21  C   UNL     1       7.894  22.672  53.005  1.00  0.00     0.014 A 
HETATM   22  C   UNL     1       8.306  21.376  53.341  1.00  0.00     0.007 A 
HETATM   23  C   UNL     1       8.295  20.952  54.671  1.00  0.00    -0.062 A 
HETATM   24  C   UNL     1       8.758  19.577  55.050  1.00  0.00     0.048 C 
HETATM   25  C   UNL     1       7.873  21.845  55.659  1.00  0.00     0.007 A 
HETATM   26  C   UNL     1       7.462  23.138  55.319  1.00  0.00     0.014 A 
ENDBRANCH   1  20
TORSDOF 5
ENDMDL
MODEL 9
REMARK VINA RESULT:      -8.3      4.662      7.719
REMARK  5 active torsions:
REMARK  status: ('A' for Active; 'I' for Inactive)
REMARK    1  A    between atoms: C_5  and  C_6 
REMARK    2  A    between atoms: C_10  and  C_11 
REMARK       I    between atoms: C_11  and  N_12 
REMARK    3  A    between atoms: N_12  and  C_13 
REMARK    4  A    between atoms: C_13  and  C_14 
REMARK    5  A    between atoms: C_14  and  O_15 
ROOT
HETATM    1  C   UNL     1       7.018  27.347  55.464  1.00  0.00     0.068 A 
HETATM    2  N   UNL     1       5.983  28.084  54.994  1.00  0.00    -0.248 NA
HETATM    3  C   UNL     1       5.705  29.281  55.539  1.00  0.00     0.068 A 
HETATM    4  C   UNL     1       6.463  29.847  56.582  1.00  0.00     0.008 A 
HETATM    5  C   UNL     1       7.574  29.091  57.010  1.00  0.00     0.046 A 
HETATM    6  C   UNL     1       7.841  27.834  56.462  1.00  0.00     0.050 A 
HETATM    7  C   UNL     1       4.610  29.980  55.047  1.00  0.00     0.032 A 
HETATM    8  C   UNL     1       4.226  31.216  55.568  1.00  0.00     0.002 A 
HETATM    9  C   UNL     1       4.942  31.771  56.618  1.00  0.00     0.001 A 
HETATM   10  C   UNL     1       6.048  31.092  57.128  1.00  0.00     0.015 A 
ENDROOT
BRANCH   5  11
HETATM   11  C   UNL     1       8.552  29.539  58.032  1.00  0.00     0.252 C 
HETATM   12  N   UNL     1       8.057  29.770  59.296  1.00  0.00    -0.354 N 
HETATM   13  H   UNL     1       7.049  29.750  59.399  1.00  0.00     0.162 HD
HETATM   14  O   UNL     1       9.709  29.763  57.696  1.00  0.00    -0.268 OA
BRANCH  12  15
HETATM   15  C   UNL     1       8.781  30.534  60.312  1.00  0.00     0.154 C 
BRANCH  15  16
HETATM   16  C   UNL     1       8.038  31.758  60.886  1.00  0.00     0.132 C 
HETATM   17  C   UNL     1       8.447  32.014  62.331  1.00  0.00     0.041 C 
BRANCH  16  18
HETATM   18  O   UNL     1       6.628  31.532  60.895  1.00  0.00    -0.394 OA
HETATM   19  H   UNL     1       6.501  30.635  61.278  1.00  0.00     0.210 HD
ENDBRANCH  16  18
ENDBRANCH  15  16
ENDBRANCH  12  15
ENDBRANCH   5  11
BRANCH   1  20
HETATM   20  C   UNL     1       7.220  26.024  54.835  1.00  0.00    -0.007 A 
HETATM   21  C   UNL     1       7.532  25.914  53.469  1.00  0.00     0.014 A 
HETATM   22  C   UNL     1       7.744  24.669  52.863  1.00  0.00     0.007 A 
HETATM   23  C   UNL     1       7.636  23.492  53.606  1.00  0.00    -0.062 A 
HETATM   24  C   UNL     1       7.887  22.154  52.979  1.00  0.00     0.048 C 
HETATM   25  C   UNL     1       7.321  23.580  54.964  1.00  0.00     0.007 A 
HETATM   26  C   UNL     1       7.109  24.826  55.565  1.00  0.00     0.014 A 
ENDBRANCH   1  20
TORSDOF 5
ENDMDL
MODEL 10
REMARK VINA RESULT:      -8.2      6.623      9.923
REMARK  5 active torsions:
REMARK  status: ('A' for Active; 'I' for Inactive)
REMARK    1  A    between atoms: C_5  and  C_6 
REMARK    2  A    between atoms: C_10  and  C_11 
REMARK       I    between atoms: C_11  and  N_12 
REMARK    3  A    between atoms: N_12  and  C_13 
REMARK    4  A    between atoms: C_13  and  C_14 
REMARK    5  A    between atoms: C_14  and  O_15 
ROOT
HETATM    1  C   UNL     1       7.876  31.506  59.986  1.00  0.00     0.068 A 
HETATM    2  N   UNL     1       9.182  31.402  59.637  1.00  0.00    -0.248 NA
HETATM    3  C   UNL     1       9.529  30.761  58.508  1.00  0.00     0.068 A 
HETATM    4  C   UNL     1       8.590  30.197  57.622  1.00  0.00     0.008 A 
HETATM    5  C   UNL     1       7.235  30.375  57.974  1.00  0.00     0.046 A 
HETATM    6  C   UNL     1       6.881  31.014  59.164  1.00  0.00     0.050 A 
HETATM    7  C   UNL     1      10.881  30.649  58.214  1.00  0.00     0.032 A 
HETATM    8  C   UNL     1      11.340  29.976  57.080  1.00  0.00     0.002 A 
HETATM    9  C   UNL     1      10.429  29.387  56.216  1.00  0.00     0.001 A 
HETATM   10  C   UNL     1       9.065  29.488  56.486  1.00  0.00     0.015 A 
ENDROOT
BRANCH   5  11
HETATM   11  C   UNL     1       6.087  29.937  57.141  1.00  0.00     0.252 C 
HETATM   12  N   UNL     1       5.690  28.626  57.283  1.00  0.00    -0.354 N 
HETATM   13  H   UNL     1       6.292  28.027  57.836  1.00  0.00     0.162 HD
HETATM   14  O   UNL     1       5.611  30.714  56.323  1.00  0.00    -0.268 OA
BRANCH  12  15
HETATM   15  C   UNL     1       4.833  27.940  56.316  1.00  0.00     0.154 C 
BRANCH  15  16
HETATM   16  C   UNL     1       5.389  26.620  55.745  1.00  0.00     0.132 C 
HETATM   17  C   UNL     1       6.891  26.717  55.513  1.00  0.00     0.041 C 
BRANCH  16  18
HETATM   18  O   UNL     1       4.799  26.333  54.476  1.00  0.00    -0.394 OA
HETATM   19  H   UNL     1       5.067  27.069  53.882  1.00  0.00     0.210 HD
ENDBRANCH  16  18
ENDBRANCH  15  16
ENDBRANCH  12  15
ENDBRANCH   5  11
BRANCH   1  20
HETATM   20  C   UNL     1       7.593  32.187  61.267  1.00  0.00    -0.007 A 
HETATM   21  C   UNL     1       6.518  33.084  61.386  1.00  0.00     0.014 A 
HETATM   22  C   UNL     1       6.225  33.723  62.598  1.00  0.00     0.007 A 
HETATM   23  C   UNL     1       7.012  33.491  63.728  1.00  0.00    -0.062 A 
HETATM   24  C   UNL     1       6.695  34.146  65.039  1.00  0.00     0.048 C 
HETATM   25  C   UNL     1       8.089  32.608  63.629  1.00  0.00     0.007 A 
HETATM   26  C   UNL     1       8.378  31.973  62.416  1.00  0.00     0.014 A 
ENDBRANCH   1  20
TORSDOF 5
ENDMDL
