MODEL 1
REMARK VINA RESULT:      -8.4      0.000      0.000
REMARK  10 active torsions:
REMARK  status: ('A' for Active; 'I' for Inactive)
REMARK    1  A    between atoms: C_6  and  C_7 
REMARK    2  A    between atoms: C_7  and  C_8 
REMARK       I    between atoms: C_8  and  N_9 
REMARK    3  A    between atoms: N_9  and  C_10 
REMARK    4  A    between atoms: C_10  and  C_11 
REMARK    5  A    between atoms: C_11  and  N_12 
REMARK    6  A    between atoms: C_17  and  C_18 
REMARK    7  A    between atoms: C_27  and  C_28 
REMARK    8  A    between atoms: C_28  and  O_29 
REMARK    9  A    between atoms: O_29  and  C_30 
REMARK   10  A    between atoms: C_30  and  C_31 
ROOT
HETATM    1  C   UNL     1       4.933  25.452  57.577  1.00  0.00     0.071 C 
HETATM    2  C   UNL     1       5.690  25.001  56.355  1.00  0.00     0.048 C 
HETATM    3  N   UNL     1       4.880  24.684  55.263  1.00  0.00    -0.229 NA
HETATM    4  C   UNL     1       5.422  24.833  54.101  1.00  0.00     0.170 C 
HETATM    5  N   UNL     1       6.923  25.180  53.917  1.00  0.00    -0.318 N 
HETATM    6  C   UNL     1       7.060  26.066  52.992  1.00  0.00     0.011 C 
HETATM    7  C   UNL     1       7.734  24.599  55.000  1.00  0.00     0.169 C 
HETATM    8  S   UNL     1       4.575  25.023  52.608  1.00  0.00    -0.086 SA
HETATM    9  C   UNL     1       5.886  26.171  52.030  1.00  0.00     0.135 C 
HETATM   10  C   UNL     1       7.036  25.016  56.253  1.00  0.00     0.069 C 
ENDROOT
BRANCH   6  11
HETATM   11  C   UNL     1       8.239  26.995  52.976  1.00  0.00     0.156 C 
BRANCH  11  12
HETATM   12  C   UNL     1       8.019  28.162  53.923  1.00  0.00     0.223 C 
HETATM   13  N   UNL     1       6.736  28.388  54.343  1.00  0.00    -0.359 N 
HETATM   14  H   UNL     1       5.981  27.758  54.067  1.00  0.00     0.162 HD
HETATM   15  O   UNL     1       8.942  28.919  54.223  1.00  0.00    -0.273 OA
BRANCH  13  16
HETATM   16  C   UNL     1       6.319  29.633  55.007  1.00  0.00     0.150 C 
BRANCH  16  17
HETATM   17  C   UNL     1       4.825  29.735  55.403  1.00  0.00     0.253 C 
BRANCH  17  18
HETATM   18  N   UNL     1       4.616  30.304  56.794  1.00  0.00    -0.077 N 
HETATM   19  H   UNL     1       4.946  29.588  57.470  1.00  0.00     0.279 HD
HETATM   20  C   UNL     1       5.429  31.536  57.082  1.00  0.00     0.269 C 
HETATM   21  C   UNL     1       3.161  30.540  57.097  1.00  0.00     0.269 C 
ENDBRANCH  17  18
ENDBRANCH  16  17
ENDBRANCH  13  16
ENDBRANCH  11  12
ENDBRANCH   6  11
BRANCH   7  22
HETATM   22  C   UNL     1       7.925  23.097  54.781  1.00  0.00     0.008 A 
HETATM   23  C   UNL     1       8.231  22.544  53.523  1.00  0.00     0.125 A 
HETATM   24  F   UNL     1       8.340  23.330  52.446  1.00  0.00    -0.205 F 
HETATM   25  C   UNL     1       8.435  21.179  53.344  1.00  0.00     0.043 A 
HETATM   26  C   UNL     1       8.318  20.314  54.425  1.00  0.00     0.003 A 
HETATM   27  C   UNL     1       7.977  20.819  55.677  1.00  0.00     0.001 A 
HETATM   28  C   UNL     1       7.770  22.192  55.854  1.00  0.00     0.013 A 
ENDBRANCH   7  22
BRANCH  10  29
HETATM   29  C   UNL     1       7.922  25.792  57.129  1.00  0.00     0.294 C 
HETATM   30  O   UNL     1       8.365  25.251  58.138  1.00  0.00    -0.259 OA
BRANCH  29  31
HETATM   31  O   UNL     1       7.861  27.094  56.820  1.00  0.00    -0.313 OA
BRANCH  31  32
HETATM   32  C   UNL     1       7.525  27.977  57.901  1.00  0.00     0.217 C 
BRANCH  32  33
HETATM   33  C   UNL     1       8.508  29.107  57.999  1.00  0.00    -0.034 A 
HETATM   34  C   UNL     1       9.655  29.110  57.195  1.00  0.00     0.009 A 
HETATM   35  C   UNL     1      10.554  30.175  57.254  1.00  0.00     0.001 A 
HETATM   36  C   UNL     1      10.318  31.241  58.121  1.00  0.00     0.000 A 
HETATM   37  C   UNL     1       9.185  31.242  58.933  1.00  0.00     0.001 A 
HETATM   38  C   UNL     1       8.284  30.178  58.874  1.00  0.00     0.009 A 
ENDBRANCH  32  33
ENDBRANCH  31  32
ENDBRANCH  29  31
ENDBRANCH  10  29
TORSDOF 10
ENDMDL
MODEL 2
REMARK VINA RESULT:      -8.2      2.725      6.393
REMARK  10 active torsions:
REMARK  status: ('A' for Active; 'I' for Inactive)
REMARK    1  A    between atoms: C_6  and  C_7 
REMARK    2  A    between atoms: C_7  and  C_8 
REMARK       I    between atoms: C_8  and  N_9 
REMARK    3  A    between atoms: N_9  and  C_10 
REMARK    4  A    between atoms: C_10  and  C_11 
REMARK    5  A    between atoms: C_11  and  N_12 
REMARK    6  A    between atoms: C_17  and  C_18 
REMARK    7  A    between atoms: C_27  and  C_28 
REMARK    8  A    between atoms: C_28  and  O_29 
REMARK    9  A    between atoms: O_29  and  C_30 
REMARK   10  A    between atoms: C_30  and  C_31 
ROOT
HETATM    1  C   UNL     1       5.437  25.193  53.877  1.00  0.00     0.071 C 
HETATM    2  C   UNL     1       5.755  26.517  54.522  1.00  0.00     0.048 C 
HETATM    3  N   UNL     1       5.604  27.618  53.676  1.00  0.00    -0.229 NA
HETATM    4  C   UNL     1       5.318  28.735  54.255  1.00  0.00     0.170 C 
HETATM    5  N   UNL     1       5.304  28.897  55.797  1.00  0.00    -0.318 N 
HETATM    6  C   UNL     1       4.284  29.597  56.157  1.00  0.00     0.011 C 
HETATM    7  C   UNL     1       6.299  28.015  56.429  1.00  0.00     0.169 C 
HETATM    8  S   UNL     1       4.587  30.106  53.500  1.00  0.00    -0.086 SA
HETATM    9  C   UNL     1       3.680  30.458  55.058  1.00  0.00     0.135 C 
HETATM   10  C   UNL     1       6.036  26.670  55.833  1.00  0.00     0.069 C 
ENDROOT
BRANCH   6  11
HETATM   11  C   UNL     1       3.684  29.448  57.525  1.00  0.00     0.156 C 
BRANCH  11  12
HETATM   12  C   UNL     1       3.971  30.673  58.377  1.00  0.00     0.223 C 
HETATM   13  N   UNL     1       5.281  31.048  58.504  1.00  0.00    -0.359 N 
HETATM   14  H   UNL     1       6.015  30.550  57.997  1.00  0.00     0.162 HD
HETATM   15  O   UNL     1       3.072  31.242  58.994  1.00  0.00    -0.273 OA
BRANCH  13  16
HETATM   16  C   UNL     1       5.744  32.011  59.516  1.00  0.00     0.150 C 
BRANCH  16  17
HETATM   17  C   UNL     1       7.246  31.947  59.891  1.00  0.00     0.253 C 
BRANCH  17  18
HETATM   18  N   UNL     1       7.527  31.034  61.069  1.00  0.00    -0.077 N 
HETATM   19  H   UNL     1       7.051  30.130  60.875  1.00  0.00     0.279 HD
HETATM   20  C   UNL     1       8.980  30.693  61.249  1.00  0.00     0.269 C 
HETATM   21  C   UNL     1       6.938  31.561  62.349  1.00  0.00     0.269 C 
ENDBRANCH  17  18
ENDBRANCH  16  17
ENDBRANCH  13  16
ENDBRANCH  11  12
ENDBRANCH   6  11
BRANCH   7  22
HETATM   22  C   UNL     1       7.709  28.585  56.256  1.00  0.00     0.008 A 
HETATM   23  C   UNL     1       8.478  29.053  57.337  1.00  0.00     0.125 A 
HETATM   24  F   UNL     1       7.979  29.041  58.579  1.00  0.00    -0.205 F 
HETATM   25  C   UNL     1       9.772  29.537  57.171  1.00  0.00     0.043 A 
HETATM   26  C   UNL     1      10.333  29.587  55.901  1.00  0.00     0.003 A 
HETATM   27  C   UNL     1       9.588  29.170  54.802  1.00  0.00     0.001 A 
HETATM   28  C   UNL     1       8.286  28.685  54.971  1.00  0.00     0.013 A 
ENDBRANCH   7  22
BRANCH  10  29
HETATM   29  C   UNL     1       5.721  25.677  56.867  1.00  0.00     0.294 C 
HETATM   30  O   UNL     1       4.578  25.642  57.313  1.00  0.00    -0.259 OA
BRANCH  29  31
HETATM   31  O   UNL     1       6.846  25.153  57.369  1.00  0.00    -0.313 OA
BRANCH  31  32
HETATM   32  C   UNL     1       7.877  24.854  56.414  1.00  0.00     0.217 C 
BRANCH  32  33
HETATM   33  C   UNL     1       7.945  23.380  56.139  1.00  0.00    -0.034 A 
HETATM   34  C   UNL     1       7.738  22.898  54.840  1.00  0.00     0.009 A 
HETATM   35  C   UNL     1       7.835  21.534  54.570  1.00  0.00     0.001 A 
HETATM   36  C   UNL     1       8.133  20.639  55.597  1.00  0.00     0.000 A 
HETATM   37  C   UNL     1       8.330  21.107  56.895  1.00  0.00     0.001 A 
HETATM   38  C   UNL     1       8.233  22.472  57.167  1.00  0.00     0.009 A 
ENDBRANCH  32  33
ENDBRANCH  31  32
ENDBRANCH  29  31
ENDBRANCH  10  29
TORSDOF 10
ENDMDL
MODEL 3
REMARK VINA RESULT:      -7.4      8.100     10.686
REMARK  10 active torsions:
REMARK  status: ('A' for Active; 'I' for Inactive)
REMARK    1  A    between atoms: C_6  and  C_7 
REMARK    2  A    between atoms: C_7  and  C_8 
REMARK       I    between atoms: C_8  and  N_9 
REMARK    3  A    between atoms: N_9  and  C_10 
REMARK    4  A    between atoms: C_10  and  C_11 
REMARK    5  A    between atoms: C_11  and  N_12 
REMARK    6  A    between atoms: C_17  and  C_18 
REMARK    7  A    between atoms: C_27  and  C_28 
REMARK    8  A    between atoms: C_28  and  O_29 
REMARK    9  A    between atoms: O_29  and  C_30 
REMARK   10  A    between atoms: C_30  and  C_31 
ROOT
HETATM    1  C   UNL     1       2.541  33.935  63.085  1.00  0.00     0.071 C 
HETATM    2  C   UNL     1       3.594  33.517  62.092  1.00  0.00     0.048 C 
HETATM    3  N   UNL     1       3.379  32.260  61.524  1.00  0.00    -0.229 NA
HETATM    4  C   UNL     1       3.871  32.087  60.343  1.00  0.00     0.170 C 
HETATM    5  N   UNL     1       4.782  33.137  59.655  1.00  0.00    -0.318 N 
HETATM    6  C   UNL     1       4.454  33.260  58.415  1.00  0.00     0.011 C 
HETATM    7  C   UNL     1       5.587  33.867  60.649  1.00  0.00     0.169 C 
HETATM    8  S   UNL     1       3.362  30.894  59.203  1.00  0.00    -0.086 SA
HETATM    9  C   UNL     1       3.675  32.087  57.842  1.00  0.00     0.135 C 
HETATM   10  C   UNL     1       4.595  34.319  61.671  1.00  0.00     0.069 C 
ENDROOT
BRANCH   6  11
HETATM   11  C   UNL     1       4.721  34.533  57.665  1.00  0.00     0.156 C 
BRANCH  11  12
HETATM   12  C   UNL     1       3.600  35.535  57.887  1.00  0.00     0.223 C 
HETATM   13  N   UNL     1       3.946  36.859  57.904  1.00  0.00    -0.359 N 
HETATM   14  H   UNL     1       4.909  37.147  57.719  1.00  0.00     0.162 HD
HETATM   15  O   UNL     1       2.453  35.162  58.128  1.00  0.00    -0.273 OA
BRANCH  13  16
HETATM   16  C   UNL     1       3.047  37.915  58.397  1.00  0.00     0.150 C 
BRANCH  16  17
HETATM   17  C   UNL     1       3.720  39.230  58.865  1.00  0.00     0.253 C 
BRANCH  17  18
HETATM   18  N   UNL     1       4.730  39.018  59.976  1.00  0.00    -0.077 N 
HETATM   19  H   UNL     1       4.684  38.016  60.245  1.00  0.00     0.279 HD
HETATM   20  C   UNL     1       6.157  39.258  59.563  1.00  0.00     0.269 C 
HETATM   21  C   UNL     1       4.390  39.809  61.210  1.00  0.00     0.269 C 
ENDBRANCH  17  18
ENDBRANCH  16  17
ENDBRANCH  13  16
ENDBRANCH  11  12
ENDBRANCH   6  11
BRANCH   7  22
HETATM   22  C   UNL     1       6.746  33.000  61.145  1.00  0.00     0.008 A 
HETATM   23  C   UNL     1       7.556  32.245  60.277  1.00  0.00     0.125 A 
HETATM   24  F   UNL     1       7.317  32.238  58.961  1.00  0.00    -0.205 F 
HETATM   25  C   UNL     1       8.628  31.486  60.737  1.00  0.00     0.043 A 
HETATM   26  C   UNL     1       8.912  31.444  62.097  1.00  0.00     0.003 A 
HETATM   27  C   UNL     1       8.108  32.146  62.990  1.00  0.00     0.001 A 
HETATM   28  C   UNL     1       7.029  32.906  62.525  1.00  0.00     0.013 A 
ENDBRANCH   7  22
BRANCH  10  29
HETATM   29  C   UNL     1       4.600  35.779  61.817  1.00  0.00     0.294 C 
HETATM   30  O   UNL     1       3.815  36.436  61.139  1.00  0.00    -0.259 OA
BRANCH  29  31
HETATM   31  O   UNL     1       5.697  36.179  62.473  1.00  0.00    -0.313 OA
BRANCH  31  32
HETATM   32  C   UNL     1       5.466  36.904  63.692  1.00  0.00     0.217 C 
BRANCH  32  33
HETATM   33  C   UNL     1       5.087  35.974  64.807  1.00  0.00    -0.034 A 
HETATM   34  C   UNL     1       3.936  36.222  65.567  1.00  0.00     0.009 A 
HETATM   35  C   UNL     1       3.558  35.343  66.580  1.00  0.00     0.001 A 
HETATM   36  C   UNL     1       4.329  34.213  66.848  1.00  0.00     0.000 A 
HETATM   37  C   UNL     1       5.482  33.963  66.106  1.00  0.00     0.001 A 
HETATM   38  C   UNL     1       5.862  34.841  65.091  1.00  0.00     0.009 A 
ENDBRANCH  32  33
ENDBRANCH  31  32
ENDBRANCH  29  31
ENDBRANCH  10  29
TORSDOF 10
ENDMDL
MODEL 4
REMARK VINA RESULT:      -7.2      5.371      8.815
REMARK  10 active torsions:
REMARK  status: ('A' for Active; 'I' for Inactive)
REMARK    1  A    between atoms: C_6  and  C_7 
REMARK    2  A    between atoms: C_7  and  C_8 
REMARK       I    between atoms: C_8  and  N_9 
REMARK    3  A    between atoms: N_9  and  C_10 
REMARK    4  A    between atoms: C_10  and  C_11 
REMARK    5  A    between atoms: C_11  and  N_12 
REMARK    6  A    between atoms: C_17  and  C_18 
REMARK    7  A    between atoms: C_27  and  C_28 
REMARK    8  A    between atoms: C_28  and  O_29 
REMARK    9  A    between atoms: O_29  and  C_30 
REMARK   10  A    between atoms: C_30  and  C_31 
ROOT
HETATM    1  C   UNL     1       1.851  27.037  48.019  1.00  0.00     0.071 C 
HETATM    2  C   UNL     1       2.548  28.346  48.289  1.00  0.00     0.048 C 
HETATM    3  N   UNL     1       1.690  29.390  48.640  1.00  0.00    -0.229 NA
HETATM    4  C   UNL     1       2.203  30.310  49.385  1.00  0.00     0.170 C 
HETATM    5  N   UNL     1       3.712  30.354  49.740  1.00  0.00    -0.318 N 
HETATM    6  C   UNL     1       3.864  30.655  50.984  1.00  0.00     0.011 C 
HETATM    7  C   UNL     1       4.527  29.807  48.642  1.00  0.00     0.169 C 
HETATM    8  S   UNL     1       1.320  31.412  50.380  1.00  0.00    -0.086 SA
HETATM    9  C   UNL     1       2.668  31.341  51.625  1.00  0.00     0.135 C 
HETATM   10  C   UNL     1       3.889  28.494  48.324  1.00  0.00     0.069 C 
ENDROOT
BRANCH   6  11
HETATM   11  C   UNL     1       5.086  30.225  51.741  1.00  0.00     0.156 C 
BRANCH  11  12
HETATM   12  C   UNL     1       4.721  29.249  52.847  1.00  0.00     0.223 C 
HETATM   13  N   UNL     1       5.498  29.267  53.973  1.00  0.00    -0.359 N 
HETATM   14  H   UNL     1       6.253  29.949  54.073  1.00  0.00     0.162 HD
HETATM   15  O   UNL     1       3.822  28.424  52.694  1.00  0.00    -0.273 OA
BRANCH  13  16
HETATM   16  C   UNL     1       5.463  28.201  54.987  1.00  0.00     0.150 C 
BRANCH  16  17
HETATM   17  C   UNL     1       6.829  27.758  55.570  1.00  0.00     0.253 C 
BRANCH  17  18
HETATM   18  N   UNL     1       6.786  27.516  57.066  1.00  0.00    -0.077 N 
HETATM   19  H   UNL     1       5.788  27.554  57.354  1.00  0.00     0.279 HD
HETATM   20  C   UNL     1       7.273  26.154  57.482  1.00  0.00     0.269 C 
HETATM   21  C   UNL     1       7.496  28.596  57.837  1.00  0.00     0.269 C 
ENDBRANCH  17  18
ENDBRANCH  16  17
ENDBRANCH  13  16
ENDBRANCH  11  12
ENDBRANCH   6  11
BRANCH   7  22
HETATM   22  C   UNL     1       4.637  30.818  47.499  1.00  0.00     0.008 A 
HETATM   23  C   UNL     1       5.273  32.064  47.644  1.00  0.00     0.125 A 
HETATM   24  F   UNL     1       5.791  32.427  48.823  1.00  0.00    -0.205 F 
HETATM   25  C   UNL     1       5.396  32.961  46.586  1.00  0.00     0.043 A 
HETATM   26  C   UNL     1       4.861  32.642  45.344  1.00  0.00     0.003 A 
HETATM   27  C   UNL     1       4.189  31.435  45.173  1.00  0.00     0.001 A 
HETATM   28  C   UNL     1       4.065  30.536  46.238  1.00  0.00     0.013 A 
ENDBRANCH   7  22
BRANCH  10  29
HETATM   29  C   UNL     1       4.838  27.385  48.475  1.00  0.00     0.294 C 
HETATM   30  O   UNL     1       5.032  26.648  47.512  1.00  0.00    -0.259 OA
BRANCH  29  31
HETATM   31  O   UNL     1       5.123  27.186  49.768  1.00  0.00    -0.313 OA
BRANCH  31  32
HETATM   32  C   UNL     1       4.624  25.965  50.337  1.00  0.00     0.217 C 
BRANCH  32  33
HETATM   33  C   UNL     1       5.459  25.535  51.508  1.00  0.00    -0.034 A 
HETATM   34  C   UNL     1       4.842  25.088  52.683  1.00  0.00     0.009 A 
HETATM   35  C   UNL     1       5.611  24.653  53.761  1.00  0.00     0.001 A 
HETATM   36  C   UNL     1       7.002  24.667  53.677  1.00  0.00     0.000 A 
HETATM   37  C   UNL     1       7.626  25.121  52.516  1.00  0.00     0.001 A 
HETATM   38  C   UNL     1       6.858  25.556  51.436  1.00  0.00     0.009 A 
ENDBRANCH  32  33
ENDBRANCH  31  32
ENDBRANCH  29  31
ENDBRANCH  10  29
TORSDOF 10
ENDMDL
MODEL 5
REMARK VINA RESULT:      -7.2      4.994      7.575
REMARK  10 active torsions:
REMARK  status: ('A' for Active; 'I' for Inactive)
REMARK    1  A    between atoms: C_6  and  C_7 
REMARK    2  A    between atoms: C_7  and  C_8 
REMARK       I    between atoms: C_8  and  N_9 
REMARK    3  A    between atoms: N_9  and  C_10 
REMARK    4  A    between atoms: C_10  and  C_11 
REMARK    5  A    between atoms: C_11  and  N_12 
REMARK    6  A    between atoms: C_17  and  C_18 
REMARK    7  A    between atoms: C_27  and  C_28 
REMARK    8  A    between atoms: C_28  and  O_29 
REMARK    9  A    between atoms: O_29  and  C_30 
REMARK   10  A    between atoms: C_30  and  C_31 
ROOT
HETATM    1  C   UNL     1       3.111  28.909  53.026  1.00  0.00     0.071 C 
HETATM    2  C   UNL     1       3.100  28.950  51.519  1.00  0.00     0.048 C 
HETATM    3  N   UNL     1       1.908  29.424  50.967  1.00  0.00    -0.229 NA
HETATM    4  C   UNL     1       2.012  29.988  49.812  1.00  0.00     0.170 C 
HETATM    5  N   UNL     1       3.335  30.001  49.003  1.00  0.00    -0.318 N 
HETATM    6  C   UNL     1       3.520  31.164  48.478  1.00  0.00     0.011 C 
HETATM    7  C   UNL     1       4.121  28.783  49.260  1.00  0.00     0.169 C 
HETATM    8  S   UNL     1       0.875  31.091  49.122  1.00  0.00    -0.086 SA
HETATM    9  C   UNL     1       2.265  32.013  48.351  1.00  0.00     0.135 C 
HETATM   10  C   UNL     1       4.176  28.683  50.750  1.00  0.00     0.069 C 
ENDROOT
BRANCH   6  11
HETATM   11  C   UNL     1       4.900  31.657  48.154  1.00  0.00     0.156 C 
BRANCH  11  12
HETATM   12  C   UNL     1       5.274  32.834  49.040  1.00  0.00     0.223 C 
HETATM   13  N   UNL     1       5.638  32.550  50.328  1.00  0.00    -0.359 N 
HETATM   14  H   UNL     1       5.704  31.582  50.648  1.00  0.00     0.162 HD
HETATM   15  O   UNL     1       5.166  33.991  48.637  1.00  0.00    -0.273 OA
BRANCH  13  16
HETATM   16  C   UNL     1       5.736  33.577  51.377  1.00  0.00     0.150 C 
BRANCH  16  17
HETATM   17  C   UNL     1       4.432  33.897  52.151  1.00  0.00     0.253 C 
BRANCH  17  18
HETATM   18  N   UNL     1       3.721  32.657  52.656  1.00  0.00    -0.077 N 
HETATM   19  H   UNL     1       4.088  31.851  52.113  1.00  0.00     0.279 HD
HETATM   20  C   UNL     1       4.001  32.332  54.098  1.00  0.00     0.269 C 
HETATM   21  C   UNL     1       2.239  32.708  52.398  1.00  0.00     0.269 C 
ENDBRANCH  17  18
ENDBRANCH  16  17
ENDBRANCH  13  16
ENDBRANCH  11  12
ENDBRANCH   6  11
BRANCH   7  22
HETATM   22  C   UNL     1       3.525  27.591  48.508  1.00  0.00     0.008 A 
HETATM   23  C   UNL     1       3.983  26.273  48.687  1.00  0.00     0.125 A 
HETATM   24  F   UNL     1       4.998  26.015  49.520  1.00  0.00    -0.205 F 
HETATM   25  C   UNL     1       3.410  25.192  48.023  1.00  0.00     0.043 A 
HETATM   26  C   UNL     1       2.364  25.404  47.133  1.00  0.00     0.003 A 
HETATM   27  C   UNL     1       1.910  26.699  46.899  1.00  0.00     0.001 A 
HETATM   28  C   UNL     1       2.490  27.784  47.567  1.00  0.00     0.013 A 
ENDBRANCH   7  22
BRANCH  10  29
HETATM   29  C   UNL     1       5.560  28.681  51.237  1.00  0.00     0.294 C 
HETATM   30  O   UNL     1       6.260  29.663  51.010  1.00  0.00    -0.259 OA
BRANCH  29  31
HETATM   31  O   UNL     1       5.923  27.446  51.608  1.00  0.00    -0.313 OA
BRANCH  31  32
HETATM   32  C   UNL     1       6.497  27.331  52.920  1.00  0.00     0.217 C 
BRANCH  32  33
HETATM   33  C   UNL     1       6.908  25.917  53.206  1.00  0.00    -0.034 A 
HETATM   34  C   UNL     1       6.545  25.311  54.416  1.00  0.00     0.009 A 
HETATM   35  C   UNL     1       6.892  23.986  54.673  1.00  0.00     0.001 A 
HETATM   36  C   UNL     1       7.610  23.256  53.727  1.00  0.00     0.000 A 
HETATM   37  C   UNL     1       7.986  23.852  52.524  1.00  0.00     0.001 A 
HETATM   38  C   UNL     1       7.638  25.179  52.265  1.00  0.00     0.009 A 
ENDBRANCH  32  33
ENDBRANCH  31  32
ENDBRANCH  29  31
ENDBRANCH  10  29
TORSDOF 10
ENDMDL
MODEL 6
REMARK VINA RESULT:      -7.1      5.895      8.379
REMARK  10 active torsions:
REMARK  status: ('A' for Active; 'I' for Inactive)
REMARK    1  A    between atoms: C_6  and  C_7 
REMARK    2  A    between atoms: C_7  and  C_8 
REMARK       I    between atoms: C_8  and  N_9 
REMARK    3  A    between atoms: N_9  and  C_10 
REMARK    4  A    between atoms: C_10  and  C_11 
REMARK    5  A    between atoms: C_11  and  N_12 
REMARK    6  A    between atoms: C_17  and  C_18 
REMARK    7  A    between atoms: C_27  and  C_28 
REMARK    8  A    between atoms: C_28  and  O_29 
REMARK    9  A    between atoms: O_29  and  C_30 
REMARK   10  A    between atoms: C_30  and  C_31 
ROOT
HETATM    1  C   UNL     1       3.440  28.212  53.600  1.00  0.00     0.071 C 
HETATM    2  C   UNL     1       3.396  28.586  52.141  1.00  0.00     0.048 C 
HETATM    3  N   UNL     1       2.347  29.443  51.800  1.00  0.00    -0.229 NA
HETATM    4  C   UNL     1       2.556  30.208  50.782  1.00  0.00     0.170 C 
HETATM    5  N   UNL     1       3.815  30.080  49.886  1.00  0.00    -0.318 N 
HETATM    6  C   UNL     1       4.273  31.250  49.600  1.00  0.00     0.011 C 
HETATM    7  C   UNL     1       4.275  28.683  49.819  1.00  0.00     0.169 C 
HETATM    8  S   UNL     1       1.717  31.676  50.433  1.00  0.00    -0.086 SA
HETATM    9  C   UNL     1       3.271  32.383  49.757  1.00  0.00     0.135 C 
HETATM   10  C   UNL     1       4.346  28.245  51.246  1.00  0.00     0.069 C 
ENDROOT
BRANCH   6  11
HETATM   11  C   UNL     1       5.723  31.456  49.271  1.00  0.00     0.156 C 
BRANCH  11  12
HETATM   12  C   UNL     1       5.930  32.774  48.543  1.00  0.00     0.223 C 
HETATM   13  N   UNL     1       5.758  32.767  47.185  1.00  0.00    -0.359 N 
HETATM   14  H   UNL     1       5.451  31.919  46.705  1.00  0.00     0.162 HD
HETATM   15  O   UNL     1       6.319  33.776  49.142  1.00  0.00    -0.273 OA
BRANCH  13  16
HETATM   16  C   UNL     1       6.205  33.868  46.316  1.00  0.00     0.150 C 
BRANCH  16  17
HETATM   17  C   UNL     1       7.734  33.999  46.104  1.00  0.00     0.253 C 
BRANCH  17  18
HETATM   18  N   UNL     1       8.269  35.372  46.465  1.00  0.00    -0.077 N 
HETATM   19  H   UNL     1       8.922  35.655  45.708  1.00  0.00     0.279 HD
HETATM   20  C   UNL     1       7.218  36.448  46.512  1.00  0.00     0.269 C 
HETATM   21  C   UNL     1       9.072  35.352  47.738  1.00  0.00     0.269 C 
ENDBRANCH  17  18
ENDBRANCH  16  17
ENDBRANCH  13  16
ENDBRANCH  11  12
ENDBRANCH   6  11
BRANCH   7  22
HETATM   22  C   UNL     1       3.375  27.866  48.889  1.00  0.00     0.008 A 
HETATM   23  C   UNL     1       3.842  26.758  48.158  1.00  0.00     0.125 A 
HETATM   24  F   UNL     1       5.126  26.390  48.233  1.00  0.00    -0.205 F 
HETATM   25  C   UNL     1       3.005  26.002  47.342  1.00  0.00     0.043 A 
HETATM   26  C   UNL     1       1.666  26.349  47.214  1.00  0.00     0.003 A 
HETATM   27  C   UNL     1       1.177  27.464  47.890  1.00  0.00     0.001 A 
HETATM   28  C   UNL     1       2.021  28.223  48.709  1.00  0.00     0.013 A 
ENDBRANCH   7  22
BRANCH  10  29
HETATM   29  C   UNL     1       5.698  27.802  51.605  1.00  0.00     0.294 C 
HETATM   30  O   UNL     1       6.480  28.629  52.065  1.00  0.00    -0.259 OA
BRANCH  29  31
HETATM   31  O   UNL     1       5.948  26.595  51.082  1.00  0.00    -0.313 OA
BRANCH  31  32
HETATM   32  C   UNL     1       5.257  25.494  51.693  1.00  0.00     0.217 C 
BRANCH  32  33
HETATM   33  C   UNL     1       6.081  24.881  52.787  1.00  0.00    -0.034 A 
HETATM   34  C   UNL     1       7.266  24.201  52.476  1.00  0.00     0.009 A 
HETATM   35  C   UNL     1       8.055  23.660  53.491  1.00  0.00     0.001 A 
HETATM   36  C   UNL     1       7.664  23.788  54.823  1.00  0.00     0.000 A 
HETATM   37  C   UNL     1       6.481  24.453  55.142  1.00  0.00     0.001 A 
HETATM   38  C   UNL     1       5.690  24.995  54.128  1.00  0.00     0.009 A 
ENDBRANCH  32  33
ENDBRANCH  31  32
ENDBRANCH  29  31
ENDBRANCH  10  29
TORSDOF 10
ENDMDL
MODEL 7
REMARK VINA RESULT:      -7.0      5.384      8.046
REMARK  10 active torsions:
REMARK  status: ('A' for Active; 'I' for Inactive)
REMARK    1  A    between atoms: C_6  and  C_7 
REMARK    2  A    between atoms: C_7  and  C_8 
REMARK       I    between atoms: C_8  and  N_9 
REMARK    3  A    between atoms: N_9  and  C_10 
REMARK    4  A    between atoms: C_10  and  C_11 
REMARK    5  A    between atoms: C_11  and  N_12 
REMARK    6  A    between atoms: C_17  and  C_18 
REMARK    7  A    between atoms: C_27  and  C_28 
REMARK    8  A    between atoms: C_28  and  O_29 
REMARK    9  A    between atoms: O_29  and  C_30 
REMARK   10  A    between atoms: C_30  and  C_31 
ROOT
HETATM    1  C   UNL     1       0.370  31.275  50.288  1.00  0.00     0.071 C 
HETATM    2  C   UNL     1       1.605  30.740  49.611  1.00  0.00     0.048 C 
HETATM    3  N   UNL     1       1.712  31.080  48.261  1.00  0.00    -0.229 NA
HETATM    4  C   UNL     1       2.913  31.150  47.794  1.00  0.00     0.170 C 
HETATM    5  N   UNL     1       4.156  30.725  48.618  1.00  0.00    -0.318 N 
HETATM    6  C   UNL     1       5.109  31.577  48.448  1.00  0.00     0.011 C 
HETATM    7  C   UNL     1       3.826  29.627  49.541  1.00  0.00     0.169 C 
HETATM    8  S   UNL     1       3.397  32.011  46.377  1.00  0.00    -0.086 SA
HETATM    9  C   UNL     1       4.986  32.431  47.196  1.00  0.00     0.135 C 
HETATM   10  C   UNL     1       2.601  30.097  50.256  1.00  0.00     0.069 C 
ENDROOT
BRANCH   6  11
HETATM   11  C   UNL     1       6.167  31.774  49.494  1.00  0.00     0.156 C 
BRANCH  11  12
HETATM   12  C   UNL     1       5.916  33.048  50.283  1.00  0.00     0.223 C 
HETATM   13  N   UNL     1       5.488  32.905  51.575  1.00  0.00    -0.359 N 
HETATM   14  H   UNL     1       5.399  31.976  51.992  1.00  0.00     0.162 HD
HETATM   15  O   UNL     1       6.010  34.153  49.751  1.00  0.00    -0.273 OA
BRANCH  13  16
HETATM   16  C   UNL     1       4.924  34.015  52.359  1.00  0.00     0.150 C 
BRANCH  16  17
HETATM   17  C   UNL     1       5.039  33.898  53.900  1.00  0.00     0.253 C 
BRANCH  17  18
HETATM   18  N   UNL     1       4.057  32.908  54.496  1.00  0.00    -0.077 N 
HETATM   19  H   UNL     1       3.609  32.407  53.704  1.00  0.00     0.279 HD
HETATM   20  C   UNL     1       4.698  31.839  55.339  1.00  0.00     0.269 C 
HETATM   21  C   UNL     1       2.950  33.592  55.251  1.00  0.00     0.269 C 
ENDBRANCH  17  18
ENDBRANCH  16  17
ENDBRANCH  13  16
ENDBRANCH  11  12
ENDBRANCH   6  11
BRANCH   7  22
HETATM   22  C   UNL     1       3.719  28.302  48.783  1.00  0.00     0.008 A 
HETATM   23  C   UNL     1       4.816  27.707  48.134  1.00  0.00     0.125 A 
HETATM   24  F   UNL     1       6.011  28.307  48.133  1.00  0.00    -0.205 F 
HETATM   25  C   UNL     1       4.713  26.484  47.477  1.00  0.00     0.043 A 
HETATM   26  C   UNL     1       3.492  25.823  47.432  1.00  0.00     0.003 A 
HETATM   27  C   UNL     1       2.374  26.401  48.029  1.00  0.00     0.001 A 
HETATM   28  C   UNL     1       2.480  27.632  48.687  1.00  0.00     0.013 A 
ENDBRANCH   7  22
BRANCH  10  29
HETATM   29  C   UNL     1       2.812  30.147  51.708  1.00  0.00     0.294 C 
HETATM   30  O   UNL     1       3.125  31.220  52.215  1.00  0.00    -0.259 OA
BRANCH  29  31
HETATM   31  O   UNL     1       2.913  28.909  52.208  1.00  0.00    -0.313 OA
BRANCH  31  32
HETATM   32  C   UNL     1       3.971  28.703  53.157  1.00  0.00     0.217 C 
BRANCH  32  33
HETATM   33  C   UNL     1       4.602  27.354  52.976  1.00  0.00    -0.034 A 
HETATM   34  C   UNL     1       4.991  26.605  54.094  1.00  0.00     0.009 A 
HETATM   35  C   UNL     1       5.545  25.335  53.934  1.00  0.00     0.001 A 
HETATM   36  C   UNL     1       5.721  24.806  52.657  1.00  0.00     0.000 A 
HETATM   37  C   UNL     1       5.348  25.548  51.537  1.00  0.00     0.001 A 
HETATM   38  C   UNL     1       4.794  26.818  51.695  1.00  0.00     0.009 A 
ENDBRANCH  32  33
ENDBRANCH  31  32
ENDBRANCH  29  31
ENDBRANCH  10  29
TORSDOF 10
ENDMDL
MODEL 8
REMARK VINA RESULT:      -6.9      5.626      8.065
REMARK  10 active torsions:
REMARK  status: ('A' for Active; 'I' for Inactive)
REMARK    1  A    between atoms: C_6  and  C_7 
REMARK    2  A    between atoms: C_7  and  C_8 
REMARK       I    between atoms: C_8  and  N_9 
REMARK    3  A    between atoms: N_9  and  C_10 
REMARK    4  A    between atoms: C_10  and  C_11 
REMARK    5  A    between atoms: C_11  and  N_12 
REMARK    6  A    between atoms: C_17  and  C_18 
REMARK    7  A    between atoms: C_27  and  C_28 
REMARK    8  A    between atoms: C_28  and  O_29 
REMARK    9  A    between atoms: O_29  and  C_30 
REMARK   10  A    between atoms: C_30  and  C_31 
ROOT
HETATM    1  C   UNL     1       3.011  28.648  53.358  1.00  0.00     0.071 C 
HETATM    2  C   UNL     1       3.193  28.696  51.863  1.00  0.00     0.048 C 
HETATM    3  N   UNL     1       2.116  29.254  51.171  1.00  0.00    -0.229 NA
HETATM    4  C   UNL     1       2.403  29.815  50.046  1.00  0.00     0.170 C 
HETATM    5  N   UNL     1       3.815  29.738  49.410  1.00  0.00    -0.318 N 
HETATM    6  C   UNL     1       4.145  30.887  48.927  1.00  0.00     0.011 C 
HETATM    7  C   UNL     1       4.477  28.467  49.747  1.00  0.00     0.169 C 
HETATM    8  S   UNL     1       1.442  30.998  49.233  1.00  0.00    -0.086 SA
HETATM    9  C   UNL     1       2.977  31.823  48.655  1.00  0.00     0.135 C 
HETATM   10  C   UNL     1       4.337  28.357  51.231  1.00  0.00     0.069 C 
ENDROOT
BRANCH   6  11
HETATM   11  C   UNL     1       5.585  31.285  48.785  1.00  0.00     0.156 C 
BRANCH  11  12
HETATM   12  C   UNL     1       5.829  32.657  49.390  1.00  0.00     0.223 C 
HETATM   13  N   UNL     1       6.209  33.655  48.533  1.00  0.00    -0.359 N 
HETATM   14  H   UNL     1       6.268  33.481  47.528  1.00  0.00     0.162 HD
HETATM   15  O   UNL     1       5.771  32.835  50.606  1.00  0.00    -0.273 OA
BRANCH  13  16
HETATM   16  C   UNL     1       6.763  34.938  48.994  1.00  0.00     0.150 C 
BRANCH  16  17
HETATM   17  C   UNL     1       6.905  36.050  47.925  1.00  0.00     0.253 C 
BRANCH  17  18
HETATM   18  N   UNL     1       8.220  35.986  47.171  1.00  0.00    -0.077 N 
HETATM   19  H   UNL     1       8.488  36.964  46.941  1.00  0.00     0.279 HD
HETATM   20  C   UNL     1       9.363  35.433  47.976  1.00  0.00     0.269 C 
HETATM   21  C   UNL     1       8.087  35.260  45.860  1.00  0.00     0.269 C 
ENDBRANCH  17  18
ENDBRANCH  16  17
ENDBRANCH  13  16
ENDBRANCH  11  12
ENDBRANCH   6  11
BRANCH   7  22
HETATM   22  C   UNL     1       3.900  27.323  48.911  1.00  0.00     0.008 A 
HETATM   23  C   UNL     1       4.078  25.969  49.250  1.00  0.00     0.125 A 
HETATM   24  F   UNL     1       4.798  25.628  50.324  1.00  0.00    -0.205 F 
HETATM   25  C   UNL     1       3.519  24.938  48.499  1.00  0.00     0.043 A 
HETATM   26  C   UNL     1       2.775  25.234  47.364  1.00  0.00     0.003 A 
HETATM   27  C   UNL     1       2.611  26.560  46.975  1.00  0.00     0.001 A 
HETATM   28  C   UNL     1       3.176  27.595  47.730  1.00  0.00     0.013 A 
ENDBRANCH   7  22
BRANCH  10  29
HETATM   29  C   UNL     1       5.645  28.256  51.888  1.00  0.00     0.294 C 
HETATM   30  O   UNL     1       6.458  29.158  51.712  1.00  0.00    -0.259 OA
BRANCH  29  31
HETATM   31  O   UNL     1       5.841  27.014  52.351  1.00  0.00    -0.313 OA
BRANCH  31  32
HETATM   32  C   UNL     1       7.052  26.808  53.094  1.00  0.00     0.217 C 
BRANCH  32  33
HETATM   33  C   UNL     1       7.251  25.355  53.408  1.00  0.00    -0.034 A 
HETATM   34  C   UNL     1       7.797  24.496  52.445  1.00  0.00     0.009 A 
HETATM   35  C   UNL     1       8.018  23.152  52.743  1.00  0.00     0.001 A 
HETATM   36  C   UNL     1       7.689  22.653  54.002  1.00  0.00     0.000 A 
HETATM   37  C   UNL     1       7.134  23.495  54.963  1.00  0.00     0.001 A 
HETATM   38  C   UNL     1       6.913  24.841  54.668  1.00  0.00     0.009 A 
ENDBRANCH  32  33
ENDBRANCH  31  32
ENDBRANCH  29  31
ENDBRANCH  10  29
TORSDOF 10
ENDMDL
MODEL 9
REMARK VINA RESULT:      -6.8     10.301     13.570
REMARK  10 active torsions:
REMARK  status: ('A' for Active; 'I' for Inactive)
REMARK    1  A    between atoms: C_6  and  C_7 
REMARK    2  A    between atoms: C_7  and  C_8 
REMARK       I    between atoms: C_8  and  N_9 
REMARK    3  A    between atoms: N_9  and  C_10 
REMARK    4  A    between atoms: C_10  and  C_11 
REMARK    5  A    between atoms: C_11  and  N_12 
REMARK    6  A    between atoms: C_17  and  C_18 
REMARK    7  A    between atoms: C_27  and  C_28 
REMARK    8  A    between atoms: C_28  and  O_29 
REMARK    9  A    between atoms: O_29  and  C_30 
REMARK   10  A    between atoms: C_30  and  C_31 
ROOT
HETATM    1  C   UNL     1       7.029  33.463  65.732  1.00  0.00     0.071 C 
HETATM    2  C   UNL     1       6.363  34.266  64.644  1.00  0.00     0.048 C 
HETATM    3  N   UNL     1       6.805  33.963  63.355  1.00  0.00    -0.229 NA
HETATM    4  C   UNL     1       5.954  34.169  62.408  1.00  0.00     0.170 C 
HETATM    5  N   UNL     1       4.588  34.862  62.648  1.00  0.00    -0.318 N 
HETATM    6  C   UNL     1       3.662  34.250  61.994  1.00  0.00     0.011 C 
HETATM    7  C   UNL     1       4.684  35.854  63.732  1.00  0.00     0.169 C 
HETATM    8  S   UNL     1       5.992  33.444  60.840  1.00  0.00    -0.086 SA
HETATM    9  C   UNL     1       4.156  33.393  60.839  1.00  0.00     0.135 C 
HETATM   10  C   UNL     1       5.336  35.116  64.855  1.00  0.00     0.069 C 
ENDROOT
BRANCH   6  11
HETATM   11  C   UNL     1       2.232  34.295  62.448  1.00  0.00     0.156 C 
BRANCH  11  12
HETATM   12  C   UNL     1       1.317  34.721  61.312  1.00  0.00     0.223 C 
HETATM   13  N   UNL     1       1.911  35.294  60.220  1.00  0.00    -0.359 N 
HETATM   14  H   UNL     1       2.927  35.374  60.163  1.00  0.00     0.162 HD
HETATM   15  O   UNL     1       0.095  34.634  61.414  1.00  0.00    -0.273 OA
BRANCH  13  16
HETATM   16  C   UNL     1       1.154  36.020  59.187  1.00  0.00     0.150 C 
BRANCH  16  17
HETATM   17  C   UNL     1       1.833  36.151  57.801  1.00  0.00     0.253 C 
BRANCH  17  18
HETATM   18  N   UNL     1       3.004  35.205  57.620  1.00  0.00    -0.077 N 
HETATM   19  H   UNL     1       3.114  34.681  58.511  1.00  0.00     0.279 HD
HETATM   20  C   UNL     1       2.790  34.158  56.561  1.00  0.00     0.269 C 
HETATM   21  C   UNL     1       4.297  35.940  57.393  1.00  0.00     0.269 C 
ENDBRANCH  17  18
ENDBRANCH  16  17
ENDBRANCH  13  16
ENDBRANCH  11  12
ENDBRANCH   6  11
BRANCH   7  22
HETATM   22  C   UNL     1       5.383  37.123  63.238  1.00  0.00     0.008 A 
HETATM   23  C   UNL     1       5.674  38.209  64.084  1.00  0.00     0.125 A 
HETATM   24  F   UNL     1       5.315  38.179  65.372  1.00  0.00    -0.205 F 
HETATM   25  C   UNL     1       6.341  39.343  63.630  1.00  0.00     0.043 A 
HETATM   26  C   UNL     1       6.722  39.434  62.298  1.00  0.00     0.003 A 
HETATM   27  C   UNL     1       6.416  38.397  61.421  1.00  0.00     0.001 A 
HETATM   28  C   UNL     1       5.743  37.258  61.880  1.00  0.00     0.013 A 
ENDBRANCH   7  22
BRANCH  10  29
HETATM   29  C   UNL     1       4.494  35.111  66.057  1.00  0.00     0.294 C 
HETATM   30  O   UNL     1       3.276  35.159  65.915  1.00  0.00    -0.259 OA
BRANCH  29  31
HETATM   31  O   UNL     1       5.233  35.356  67.147  1.00  0.00    -0.313 OA
BRANCH  31  32
HETATM   32  C   UNL     1       4.933  34.551  68.298  1.00  0.00     0.217 C 
BRANCH  32  33
HETATM   33  C   UNL     1       6.131  34.420  69.191  1.00  0.00    -0.034 A 
HETATM   34  C   UNL     1       6.178  33.410  70.161  1.00  0.00     0.009 A 
HETATM   35  C   UNL     1       7.304  33.260  70.969  1.00  0.00     0.001 A 
HETATM   36  C   UNL     1       8.390  34.121  70.820  1.00  0.00     0.000 A 
HETATM   37  C   UNL     1       8.350  35.136  69.866  1.00  0.00     0.001 A 
HETATM   38  C   UNL     1       7.224  35.288  69.056  1.00  0.00     0.009 A 
ENDBRANCH  32  33
ENDBRANCH  31  32
ENDBRANCH  29  31
ENDBRANCH  10  29
TORSDOF 10
ENDMDL
MODEL 10
REMARK VINA RESULT:      -6.8      8.141     12.843
REMARK  10 active torsions:
REMARK  status: ('A' for Active; 'I' for Inactive)
REMARK    1  A    between atoms: C_6  and  C_7 
REMARK    2  A    between atoms: C_7  and  C_8 
REMARK       I    between atoms: C_8  and  N_9 
REMARK    3  A    between atoms: N_9  and  C_10 
REMARK    4  A    between atoms: C_10  and  C_11 
REMARK    5  A    between atoms: C_11  and  N_12 
REMARK    6  A    between atoms: C_17  and  C_18 
REMARK    7  A    between atoms: C_27  and  C_28 
REMARK    8  A    between atoms: C_28  and  O_29 
REMARK    9  A    between atoms: O_29  and  C_30 
REMARK   10  A    between atoms: C_30  and  C_31 
ROOT
HETATM    1  C   UNL     1       1.636  35.055  61.670  1.00  0.00     0.071 C 
HETATM    2  C   UNL     1       3.024  35.344  62.182  1.00  0.00     0.048 C 
HETATM    3  N   UNL     1       3.203  35.065  63.539  1.00  0.00    -0.229 NA
HETATM    4  C   UNL     1       4.406  34.761  63.894  1.00  0.00     0.170 C 
HETATM    5  N   UNL     1       5.613  34.855  62.924  1.00  0.00    -0.318 N 
HETATM    6  C   UNL     1       6.376  33.826  63.069  1.00  0.00     0.011 C 
HETATM    7  C   UNL     1       5.424  35.945  61.953  1.00  0.00     0.169 C 
HETATM    8  S   UNL     1       4.849  33.896  65.322  1.00  0.00    -0.086 SA
HETATM    9  C   UNL     1       6.212  33.092  64.391  1.00  0.00     0.135 C 
HETATM   10  C   UNL     1       4.056  35.715  61.396  1.00  0.00     0.069 C 
ENDROOT
BRANCH   6  11
HETATM   11  C   UNL     1       7.247  33.343  61.946  1.00  0.00     0.156 C 
BRANCH  11  12
HETATM   12  C   UNL     1       6.467  32.434  61.011  1.00  0.00     0.223 C 
HETATM   13  N   UNL     1       7.018  32.188  59.782  1.00  0.00    -0.359 N 
HETATM   14  H   UNL     1       7.938  32.562  59.541  1.00  0.00     0.162 HD
HETATM   15  O   UNL     1       5.353  32.014  61.317  1.00  0.00    -0.273 OA
BRANCH  13  16
HETATM   16  C   UNL     1       6.262  31.586  58.673  1.00  0.00     0.150 C 
BRANCH  16  17
HETATM   17  C   UNL     1       7.018  30.545  57.809  1.00  0.00     0.253 C 
BRANCH  17  18
HETATM   18  N   UNL     1       6.449  29.144  57.935  1.00  0.00    -0.077 N 
HETATM   19  H   UNL     1       6.107  29.039  58.910  1.00  0.00     0.279 HD
HETATM   20  C   UNL     1       5.255  28.885  57.059  1.00  0.00     0.269 C 
HETATM   21  C   UNL     1       7.500  28.086  57.734  1.00  0.00     0.269 C 
ENDBRANCH  17  18
ENDBRANCH  16  17
ENDBRANCH  13  16
ENDBRANCH  11  12
ENDBRANCH   6  11
BRANCH   7  22
HETATM   22  C   UNL     1       5.685  37.302  62.610  1.00  0.00     0.008 A 
HETATM   23  C   UNL     1       6.203  38.402  61.903  1.00  0.00     0.125 A 
HETATM   24  F   UNL     1       6.519  38.288  60.609  1.00  0.00    -0.205 F 
HETATM   25  C   UNL     1       6.404  39.642  62.505  1.00  0.00     0.043 A 
HETATM   26  C   UNL     1       6.108  39.812  63.852  1.00  0.00     0.003 A 
HETATM   27  C   UNL     1       5.631  38.735  64.594  1.00  0.00     0.001 A 
HETATM   28  C   UNL     1       5.432  37.489  63.987  1.00  0.00     0.013 A 
ENDBRANCH   7  22
BRANCH  10  29
HETATM   29  C   UNL     1       4.091  35.538  59.940  1.00  0.00     0.294 C 
HETATM   30  O   UNL     1       4.206  34.401  59.493  1.00  0.00    -0.259 OA
BRANCH  29  31
HETATM   31  O   UNL     1       4.290  36.715  59.331  1.00  0.00    -0.313 OA
BRANCH  31  32
HETATM   32  C   UNL     1       3.118  37.522  59.135  1.00  0.00     0.217 C 
BRANCH  32  33
HETATM   33  C   UNL     1       3.306  38.893  59.715  1.00  0.00    -0.034 A 
HETATM   34  C   UNL     1       2.743  39.212  60.959  1.00  0.00     0.009 A 
HETATM   35  C   UNL     1       2.944  40.472  61.520  1.00  0.00     0.001 A 
HETATM   36  C   UNL     1       3.702  41.426  60.843  1.00  0.00     0.000 A 
HETATM   37  C   UNL     1       4.256  41.123  59.600  1.00  0.00     0.001 A 
HETATM   38  C   UNL     1       4.057  39.862  59.037  1.00  0.00     0.009 A 
ENDBRANCH  32  33
ENDBRANCH  31  32
ENDBRANCH  29  31
ENDBRANCH  10  29
TORSDOF 10
ENDMDL
