MODEL 1
REMARK VINA RESULT:      -8.9      0.000      0.000
REMARK  2 active torsions:
REMARK  status: ('A' for Active; 'I' for Inactive)
REMARK    1  A    between atoms: C_4  and  N_5 
REMARK       I    between atoms: N_5  and  C_6 
REMARK    2  A    between atoms: C_6  and  C_7 
ROOT
HETATM    1  C   UNL     1       7.101  26.056  56.742  1.00  0.00     0.099 C 
HETATM    2  C   UNL     1       7.758  25.069  56.101  1.00  0.00     0.079 C 
HETATM    3  S   UNL     1       7.822  24.849  54.394  1.00  0.00    -0.082 SA
HETATM    4  C   UNL     1       7.999  23.090  54.267  1.00  0.00     0.032 A 
HETATM    5  C   UNL     1       8.504  22.314  55.311  1.00  0.00     0.052 A 
HETATM    6  N   UNL     1       8.809  22.867  56.558  1.00  0.00    -0.321 N 
HETATM    7  C   UNL     1       7.680  22.472  53.051  1.00  0.00     0.021 A 
HETATM    8  C   UNL     1       7.872  21.099  52.878  1.00  0.00     0.002 A 
HETATM    9  C   UNL     1       8.400  20.337  53.916  1.00  0.00     0.002 A 
HETATM   10  C   UNL     1       8.721  20.943  55.130  1.00  0.00     0.031 A 
HETATM   11  C   UNL     1       8.501  24.121  56.998  1.00  0.00     0.263 C 
HETATM   12  O   UNL     1       8.807  24.431  58.151  1.00  0.00    -0.267 OA
HETATM   13  H   UNL     1       9.245  22.283  57.261  1.00  0.00     0.169 HD
ENDROOT
BRANCH   1  14
HETATM   14  C   UNL     1       6.330  27.165  56.126  1.00  0.00     0.247 C 
HETATM   15  N   UNL     1       6.745  28.458  56.270  1.00  0.00    -0.324 N 
HETATM   16  H   UNL     1       5.981  29.088  56.046  1.00  0.00     0.169 HD
HETATM   17  O   UNL     1       5.254  26.982  55.562  1.00  0.00    -0.268 OA
BRANCH  15  18
HETATM   18  C   UNL     1       7.945  29.078  56.656  1.00  0.00     0.035 A 
HETATM   19  C   UNL     1       8.216  29.561  57.937  1.00  0.00     0.029 A 
HETATM   20  C   UNL     1       9.449  30.157  58.221  1.00  0.00     0.002 A 
HETATM   21  C   UNL     1      10.431  30.251  57.237  1.00  0.00     0.000 A 
HETATM   22  C   UNL     1      10.189  29.729  55.970  1.00  0.00     0.002 A 
HETATM   23  C   UNL     1       8.956  29.136  55.688  1.00  0.00     0.029 A 
ENDBRANCH  15  18
ENDBRANCH   1  14
TORSDOF 2
ENDMDL
MODEL 2
REMARK VINA RESULT:      -8.5      2.256      3.139
REMARK  2 active torsions:
REMARK  status: ('A' for Active; 'I' for Inactive)
REMARK    1  A    between atoms: C_4  and  N_5 
REMARK       I    between atoms: N_5  and  C_6 
REMARK    2  A    between atoms: C_6  and  C_7 
ROOT
HETATM    1  C   UNL     1       6.376  28.398  55.576  1.00  0.00     0.099 C 
HETATM    2  C   UNL     1       6.331  27.196  54.968  1.00  0.00     0.079 C 
HETATM    3  S   UNL     1       5.970  25.696  55.735  1.00  0.00    -0.082 SA
HETATM    4  C   UNL     1       6.892  24.555  54.740  1.00  0.00     0.032 A 
HETATM    5  C   UNL     1       7.272  24.846  53.429  1.00  0.00     0.052 A 
HETATM    6  N   UNL     1       7.032  26.098  52.854  1.00  0.00    -0.321 N 
HETATM    7  C   UNL     1       7.190  23.294  55.272  1.00  0.00     0.021 A 
HETATM    8  C   UNL     1       7.850  22.334  54.501  1.00  0.00     0.002 A 
HETATM    9  C   UNL     1       8.203  22.624  53.186  1.00  0.00     0.002 A 
HETATM   10  C   UNL     1       7.911  23.877  52.647  1.00  0.00     0.031 A 
HETATM   11  C   UNL     1       6.601  27.225  53.491  1.00  0.00     0.263 C 
HETATM   12  O   UNL     1       6.486  28.263  52.836  1.00  0.00    -0.267 OA
HETATM   13  H   UNL     1       7.255  26.240  51.877  1.00  0.00     0.169 HD
ENDROOT
BRANCH   1  14
HETATM   14  C   UNL     1       6.100  28.690  57.005  1.00  0.00     0.247 C 
HETATM   15  N   UNL     1       7.120  29.014  57.853  1.00  0.00    -0.324 N 
HETATM   16  H   UNL     1       6.813  28.902  58.814  1.00  0.00     0.169 HD
HETATM   17  O   UNL     1       4.983  28.554  57.498  1.00  0.00    -0.268 OA
BRANCH  15  18
HETATM   18  C   UNL     1       8.449  29.439  57.691  1.00  0.00     0.035 A 
HETATM   19  C   UNL     1       9.386  28.824  56.858  1.00  0.00     0.029 A 
HETATM   20  C   UNL     1      10.686  29.332  56.762  1.00  0.00     0.002 A 
HETATM   21  C   UNL     1      11.052  30.472  57.474  1.00  0.00     0.000 A 
HETATM   22  C   UNL     1      10.112  31.120  58.269  1.00  0.00     0.002 A 
HETATM   23  C   UNL     1       8.816  30.611  58.365  1.00  0.00     0.029 A 
ENDBRANCH  15  18
ENDBRANCH   1  14
TORSDOF 2
ENDMDL
MODEL 3
REMARK VINA RESULT:      -8.5      1.805      6.955
REMARK  2 active torsions:
REMARK  status: ('A' for Active; 'I' for Inactive)
REMARK    1  A    between atoms: C_4  and  N_5 
REMARK       I    between atoms: N_5  and  C_6 
REMARK    2  A    between atoms: C_6  and  C_7 
ROOT
HETATM    1  C   UNL     1       6.528  25.355  54.152  1.00  0.00     0.099 C 
HETATM    2  C   UNL     1       6.731  26.513  54.811  1.00  0.00     0.079 C 
HETATM    3  S   UNL     1       7.688  27.831  54.251  1.00  0.00    -0.082 SA
HETATM    4  C   UNL     1       8.254  28.535  55.776  1.00  0.00     0.032 A 
HETATM    5  C   UNL     1       7.581  28.338  56.983  1.00  0.00     0.052 A 
HETATM    6  N   UNL     1       6.474  27.490  57.079  1.00  0.00    -0.321 N 
HETATM    7  C   UNL     1       9.378  29.371  55.751  1.00  0.00     0.021 A 
HETATM    8  C   UNL     1       9.818  30.008  56.913  1.00  0.00     0.002 A 
HETATM    9  C   UNL     1       9.128  29.825  58.108  1.00  0.00     0.002 A 
HETATM   10  C   UNL     1       8.007  28.995  58.144  1.00  0.00     0.031 A 
HETATM   11  C   UNL     1       6.020  26.623  56.129  1.00  0.00     0.263 C 
HETATM   12  O   UNL     1       5.050  25.911  56.398  1.00  0.00    -0.267 OA
HETATM   13  H   UNL     1       5.972  27.436  57.956  1.00  0.00     0.169 HD
ENDROOT
BRANCH   1  14
HETATM   14  C   UNL     1       7.050  24.982  52.814  1.00  0.00     0.247 C 
HETATM   15  N   UNL     1       7.874  23.903  52.669  1.00  0.00    -0.324 N 
HETATM   16  H   UNL     1       8.354  23.958  51.776  1.00  0.00     0.169 HD
HETATM   17  O   UNL     1       6.851  25.673  51.817  1.00  0.00    -0.268 OA
BRANCH  15  18
HETATM   18  C   UNL     1       8.198  22.788  53.460  1.00  0.00     0.035 A 
HETATM   19  C   UNL     1       8.754  22.853  54.739  1.00  0.00     0.029 A 
HETATM   20  C   UNL     1       9.033  21.679  55.448  1.00  0.00     0.002 A 
HETATM   21  C   UNL     1       8.733  20.435  54.898  1.00  0.00     0.000 A 
HETATM   22  C   UNL     1       8.134  20.362  53.644  1.00  0.00     0.002 A 
HETATM   23  C   UNL     1       7.859  21.533  52.938  1.00  0.00     0.029 A 
ENDBRANCH  15  18
ENDBRANCH   1  14
TORSDOF 2
ENDMDL
MODEL 4
REMARK VINA RESULT:      -8.3      2.715      7.476
REMARK  2 active torsions:
REMARK  status: ('A' for Active; 'I' for Inactive)
REMARK    1  A    between atoms: C_4  and  N_5 
REMARK       I    between atoms: N_5  and  C_6 
REMARK    2  A    between atoms: C_6  and  C_7 
ROOT
HETATM    1  C   UNL     1       7.230  28.387  55.009  1.00  0.00     0.099 C 
HETATM    2  C   UNL     1       8.006  28.755  56.048  1.00  0.00     0.079 C 
HETATM    3  S   UNL     1       7.594  28.597  57.713  1.00  0.00    -0.082 SA
HETATM    4  C   UNL     1       8.484  29.952  58.431  1.00  0.00     0.032 A 
HETATM    5  C   UNL     1       9.595  30.526  57.812  1.00  0.00     0.052 A 
HETATM    6  N   UNL     1      10.013  30.130  56.538  1.00  0.00    -0.321 N 
HETATM    7  C   UNL     1       8.093  30.414  59.695  1.00  0.00     0.021 A 
HETATM    8  C   UNL     1       8.808  31.429  60.334  1.00  0.00     0.002 A 
HETATM    9  C   UNL     1       9.930  31.980  59.720  1.00  0.00     0.002 A 
HETATM   10  C   UNL     1      10.327  31.526  58.463  1.00  0.00     0.031 A 
HETATM   11  C   UNL     1       9.343  29.322  55.668  1.00  0.00     0.263 C 
HETATM   12  O   UNL     1       9.839  29.112  54.559  1.00  0.00    -0.267 OA
HETATM   13  H   UNL     1      10.868  30.518  56.160  1.00  0.00     0.169 HD
ENDROOT
BRANCH   1  14
HETATM   14  C   UNL     1       5.891  27.750  55.073  1.00  0.00     0.247 C 
HETATM   15  N   UNL     1       5.646  26.586  54.401  1.00  0.00    -0.324 N 
HETATM   16  H   UNL     1       4.645  26.446  54.315  1.00  0.00     0.169 HD
HETATM   17  O   UNL     1       4.937  28.284  55.635  1.00  0.00    -0.268 OA
BRANCH  15  18
HETATM   18  C   UNL     1       6.447  25.591  53.817  1.00  0.00     0.035 A 
HETATM   19  C   UNL     1       7.068  25.697  52.572  1.00  0.00     0.029 A 
HETATM   20  C   UNL     1       7.853  24.647  52.082  1.00  0.00     0.002 A 
HETATM   21  C   UNL     1       8.046  23.496  52.844  1.00  0.00     0.000 A 
HETATM   22  C   UNL     1       7.471  23.401  54.107  1.00  0.00     0.002 A 
HETATM   23  C   UNL     1       6.686  24.449  54.592  1.00  0.00     0.029 A 
ENDBRANCH  15  18
ENDBRANCH   1  14
TORSDOF 2
ENDMDL
MODEL 5
REMARK VINA RESULT:      -8.1      2.662      7.591
REMARK  2 active torsions:
REMARK  status: ('A' for Active; 'I' for Inactive)
REMARK    1  A    between atoms: C_4  and  N_5 
REMARK       I    between atoms: N_5  and  C_6 
REMARK    2  A    between atoms: C_6  and  C_7 
ROOT
HETATM    1  C   UNL     1       6.886  26.684  57.099  1.00  0.00     0.099 C 
HETATM    2  C   UNL     1       7.172  27.990  57.271  1.00  0.00     0.079 C 
HETATM    3  S   UNL     1       8.751  28.677  57.293  1.00  0.00    -0.082 SA
HETATM    4  C   UNL     1       8.520  30.067  58.369  1.00  0.00     0.032 A 
HETATM    5  C   UNL     1       7.267  30.642  58.588  1.00  0.00     0.052 A 
HETATM    6  N   UNL     1       6.101  30.092  58.046  1.00  0.00    -0.321 N 
HETATM    7  C   UNL     1       9.648  30.645  58.967  1.00  0.00     0.021 A 
HETATM    8  C   UNL     1       9.526  31.786  59.764  1.00  0.00     0.002 A 
HETATM    9  C   UNL     1       8.276  32.367  59.956  1.00  0.00     0.002 A 
HETATM   10  C   UNL     1       7.147  31.800  59.365  1.00  0.00     0.031 A 
HETATM   11  C   UNL     1       5.974  28.882  57.428  1.00  0.00     0.263 C 
HETATM   12  O   UNL     1       4.855  28.531  57.049  1.00  0.00    -0.267 OA
HETATM   13  H   UNL     1       5.225  30.584  58.166  1.00  0.00     0.169 HD
ENDROOT
BRANCH   1  14
HETATM   14  C   UNL     1       7.850  25.580  56.865  1.00  0.00     0.247 C 
HETATM   15  N   UNL     1       7.746  24.797  55.750  1.00  0.00    -0.324 N 
HETATM   16  H   UNL     1       8.279  23.944  55.883  1.00  0.00     0.169 HD
HETATM   17  O   UNL     1       8.700  25.264  57.695  1.00  0.00    -0.268 OA
BRANCH  15  18
HETATM   18  C   UNL     1       7.080  24.907  54.519  1.00  0.00     0.035 A 
HETATM   19  C   UNL     1       5.694  24.891  54.359  1.00  0.00     0.029 A 
HETATM   20  C   UNL     1       5.128  25.015  53.085  1.00  0.00     0.002 A 
HETATM   21  C   UNL     1       5.941  25.183  51.966  1.00  0.00     0.000 A 
HETATM   22  C   UNL     1       7.322  25.249  52.120  1.00  0.00     0.002 A 
HETATM   23  C   UNL     1       7.884  25.123  53.392  1.00  0.00     0.029 A 
ENDBRANCH  15  18
ENDBRANCH   1  14
TORSDOF 2
ENDMDL
MODEL 6
REMARK VINA RESULT:      -7.9      3.364      7.363
REMARK  2 active torsions:
REMARK  status: ('A' for Active; 'I' for Inactive)
REMARK    1  A    between atoms: C_4  and  N_5 
REMARK       I    between atoms: N_5  and  C_6 
REMARK    2  A    between atoms: C_6  and  C_7 
ROOT
HETATM    1  C   UNL     1       6.758  25.453  54.499  1.00  0.00     0.099 C 
HETATM    2  C   UNL     1       5.705  26.259  54.735  1.00  0.00     0.079 C 
HETATM    3  S   UNL     1       4.835  27.150  53.545  1.00  0.00    -0.082 SA
HETATM    4  C   UNL     1       4.281  28.550  54.481  1.00  0.00     0.032 A 
HETATM    5  C   UNL     1       4.161  28.518  55.871  1.00  0.00     0.052 A 
HETATM    6  N   UNL     1       4.566  27.409  56.618  1.00  0.00    -0.321 N 
HETATM    7  C   UNL     1       3.889  29.704  53.789  1.00  0.00     0.021 A 
HETATM    8  C   UNL     1       3.377  30.806  54.476  1.00  0.00     0.002 A 
HETATM    9  C   UNL     1       3.237  30.757  55.861  1.00  0.00     0.002 A 
HETATM   10  C   UNL     1       3.624  29.613  56.558  1.00  0.00     0.031 A 
HETATM   11  C   UNL     1       5.277  26.334  56.173  1.00  0.00     0.263 C 
HETATM   12  O   UNL     1       5.592  25.460  56.984  1.00  0.00    -0.267 OA
HETATM   13  H   UNL     1       4.390  27.398  57.615  1.00  0.00     0.169 HD
ENDROOT
BRANCH   1  14
HETATM   14  C   UNL     1       7.367  25.139  53.182  1.00  0.00     0.247 C 
HETATM   15  N   UNL     1       8.116  24.008  53.019  1.00  0.00    -0.324 N 
HETATM   16  H   UNL     1       8.677  24.089  52.177  1.00  0.00     0.169 HD
HETATM   17  O   UNL     1       7.312  25.916  52.232  1.00  0.00    -0.268 OA
BRANCH  15  18
HETATM   18  C   UNL     1       8.282  22.815  53.741  1.00  0.00     0.035 A 
HETATM   19  C   UNL     1       8.726  22.738  55.062  1.00  0.00     0.029 A 
HETATM   20  C   UNL     1       8.849  21.495  55.694  1.00  0.00     0.002 A 
HETATM   21  C   UNL     1       8.504  20.325  55.023  1.00  0.00     0.000 A 
HETATM   22  C   UNL     1       8.015  20.395  53.722  1.00  0.00     0.002 A 
HETATM   23  C   UNL     1       7.894  21.635  53.092  1.00  0.00     0.029 A 
ENDBRANCH  15  18
ENDBRANCH   1  14
TORSDOF 2
ENDMDL
MODEL 7
REMARK VINA RESULT:      -7.9      8.812     11.650
REMARK  2 active torsions:
REMARK  status: ('A' for Active; 'I' for Inactive)
REMARK    1  A    between atoms: C_4  and  N_5 
REMARK       I    between atoms: N_5  and  C_6 
REMARK    2  A    between atoms: C_6  and  C_7 
ROOT
HETATM    1  C   UNL     1       4.663  33.909  64.394  1.00  0.00     0.099 C 
HETATM    2  C   UNL     1       5.746  33.658  63.632  1.00  0.00     0.079 C 
HETATM    3  S   UNL     1       5.816  33.787  61.916  1.00  0.00    -0.082 SA
HETATM    4  C   UNL     1       7.039  32.566  61.516  1.00  0.00     0.032 A 
HETATM    5  C   UNL     1       7.986  32.129  62.443  1.00  0.00     0.052 A 
HETATM    6  N   UNL     1       7.966  32.556  63.774  1.00  0.00    -0.321 N 
HETATM    7  C   UNL     1       7.091  32.076  60.205  1.00  0.00     0.021 A 
HETATM    8  C   UNL     1       8.082  31.169  59.823  1.00  0.00     0.002 A 
HETATM    9  C   UNL     1       9.038  30.757  60.746  1.00  0.00     0.002 A 
HETATM   10  C   UNL     1       8.995  31.239  62.054  1.00  0.00     0.031 A 
HETATM   11  C   UNL     1       6.976  33.259  64.395  1.00  0.00     0.263 C 
HETATM   12  O   UNL     1       7.100  33.515  65.595  1.00  0.00    -0.267 OA
HETATM   13  H   UNL     1       8.716  32.273  64.391  1.00  0.00     0.169 HD
ENDROOT
BRANCH   1  14
HETATM   14  C   UNL     1       3.331  34.372  63.932  1.00  0.00     0.247 C 
HETATM   15  N   UNL     1       3.113  35.694  63.665  1.00  0.00    -0.324 N 
HETATM   16  H   UNL     1       2.114  35.876  63.642  1.00  0.00     0.169 HD
HETATM   17  O   UNL     1       2.360  33.621  63.871  1.00  0.00    -0.268 OA
BRANCH  15  18
HETATM   18  C   UNL     1       3.935  36.809  63.437  1.00  0.00     0.035 A 
HETATM   19  C   UNL     1       4.951  37.238  64.292  1.00  0.00     0.029 A 
HETATM   20  C   UNL     1       5.721  38.360  63.968  1.00  0.00     0.002 A 
HETATM   21  C   UNL     1       5.501  39.046  62.775  1.00  0.00     0.000 A 
HETATM   22  C   UNL     1       4.522  38.598  61.893  1.00  0.00     0.002 A 
HETATM   23  C   UNL     1       3.754  37.479  62.219  1.00  0.00     0.029 A 
ENDBRANCH  15  18
ENDBRANCH   1  14
TORSDOF 2
ENDMDL
MODEL 8
REMARK VINA RESULT:      -7.8      2.130      7.248
REMARK  2 active torsions:
REMARK  status: ('A' for Active; 'I' for Inactive)
REMARK    1  A    between atoms: C_4  and  N_5 
REMARK       I    between atoms: N_5  and  C_6 
REMARK    2  A    between atoms: C_6  and  C_7 
ROOT
HETATM    1  C   UNL     1       7.390  25.462  55.161  1.00  0.00     0.099 C 
HETATM    2  C   UNL     1       6.965  26.398  56.033  1.00  0.00     0.079 C 
HETATM    3  S   UNL     1       5.489  27.279  55.919  1.00  0.00    -0.082 SA
HETATM    4  C   UNL     1       5.922  28.805  56.710  1.00  0.00     0.032 A 
HETATM    5  C   UNL     1       6.981  28.902  57.615  1.00  0.00     0.052 A 
HETATM    6  N   UNL     1       7.826  27.820  57.877  1.00  0.00    -0.321 N 
HETATM    7  C   UNL     1       5.130  29.934  56.464  1.00  0.00     0.021 A 
HETATM    8  C   UNL     1       5.387  31.140  57.120  1.00  0.00     0.002 A 
HETATM    9  C   UNL     1       6.428  31.222  58.040  1.00  0.00     0.002 A 
HETATM   10  C   UNL     1       7.222  30.103  58.292  1.00  0.00     0.031 A 
HETATM   11  C   UNL     1       7.882  26.639  57.197  1.00  0.00     0.263 C 
HETATM   12  O   UNL     1       8.725  25.805  57.535  1.00  0.00    -0.267 OA
HETATM   13  H   UNL     1       8.532  27.912  58.596  1.00  0.00     0.169 HD
ENDROOT
BRANCH   1  14
HETATM   14  C   UNL     1       6.678  24.973  53.954  1.00  0.00     0.247 C 
HETATM   15  N   UNL     1       6.908  23.714  53.478  1.00  0.00    -0.324 N 
HETATM   16  H   UNL     1       6.575  23.645  52.522  1.00  0.00     0.169 HD
HETATM   17  O   UNL     1       5.945  25.700  53.286  1.00  0.00    -0.268 OA
BRANCH  15  18
HETATM   18  C   UNL     1       7.491  22.547  53.999  1.00  0.00     0.035 A 
HETATM   19  C   UNL     1       7.500  22.195  55.349  1.00  0.00     0.029 A 
HETATM   20  C   UNL     1       8.104  21.003  55.765  1.00  0.00     0.002 A 
HETATM   21  C   UNL     1       8.678  20.141  54.833  1.00  0.00     0.000 A 
HETATM   22  C   UNL     1       8.631  20.460  53.479  1.00  0.00     0.002 A 
HETATM   23  C   UNL     1       8.030  21.651  53.067  1.00  0.00     0.029 A 
ENDBRANCH  15  18
ENDBRANCH   1  14
TORSDOF 2
ENDMDL
MODEL 9
REMARK VINA RESULT:      -7.8      3.300      3.961
REMARK  2 active torsions:
REMARK  status: ('A' for Active; 'I' for Inactive)
REMARK    1  A    between atoms: C_4  and  N_5 
REMARK       I    between atoms: N_5  and  C_6 
REMARK    2  A    between atoms: C_6  and  C_7 
ROOT
HETATM    1  C   UNL     1       5.361  25.323  54.383  1.00  0.00     0.099 C 
HETATM    2  C   UNL     1       6.425  24.532  54.630  1.00  0.00     0.079 C 
HETATM    3  S   UNL     1       7.265  23.586  53.461  1.00  0.00    -0.082 SA
HETATM    4  C   UNL     1       7.852  22.237  54.450  1.00  0.00     0.032 A 
HETATM    5  C   UNL     1       8.010  22.339  55.832  1.00  0.00     0.052 A 
HETATM    6  N   UNL     1       7.621  23.483  56.535  1.00  0.00    -0.321 N 
HETATM    7  C   UNL     1       8.229  21.051  53.806  1.00  0.00     0.021 A 
HETATM    8  C   UNL     1       8.767  19.986  54.533  1.00  0.00     0.002 A 
HETATM    9  C   UNL     1       8.945  20.105  55.908  1.00  0.00     0.002 A 
HETATM   10  C   UNL     1       8.572  21.282  56.558  1.00  0.00     0.031 A 
HETATM   11  C   UNL     1       6.892  24.532  56.057  1.00  0.00     0.263 C 
HETATM   12  O   UNL     1       6.597  25.444  56.831  1.00  0.00    -0.267 OA
HETATM   13  H   UNL     1       7.825  23.544  57.525  1.00  0.00     0.169 HD
ENDROOT
BRANCH   1  14
HETATM   14  C   UNL     1       4.714  25.568  53.070  1.00  0.00     0.247 C 
HETATM   15  N   UNL     1       4.039  26.733  52.839  1.00  0.00    -0.324 N 
HETATM   16  H   UNL     1       3.436  26.623  52.030  1.00  0.00     0.169 HD
HETATM   17  O   UNL     1       4.669  24.711  52.190  1.00  0.00    -0.268 OA
BRANCH  15  18
HETATM   18  C   UNL     1       3.993  27.993  53.459  1.00  0.00     0.035 A 
HETATM   19  C   UNL     1       4.462  28.266  54.745  1.00  0.00     0.029 A 
HETATM   20  C   UNL     1       4.375  29.561  55.268  1.00  0.00     0.002 A 
HETATM   21  C   UNL     1       3.845  30.597  54.503  1.00  0.00     0.000 A 
HETATM   22  C   UNL     1       3.419  30.345  53.202  1.00  0.00     0.002 A 
HETATM   23  C   UNL     1       3.504  29.052  52.683  1.00  0.00     0.029 A 
ENDBRANCH  15  18
ENDBRANCH   1  14
TORSDOF 2
ENDMDL
MODEL 10
REMARK VINA RESULT:      -7.5      2.964      4.772
REMARK  2 active torsions:
REMARK  status: ('A' for Active; 'I' for Inactive)
REMARK    1  A    between atoms: C_4  and  N_5 
REMARK       I    between atoms: N_5  and  C_6 
REMARK    2  A    between atoms: C_6  and  C_7 
ROOT
HETATM    1  C   UNL     1       7.820  29.470  57.660  1.00  0.00     0.099 C 
HETATM    2  C   UNL     1       7.317  28.277  57.285  1.00  0.00     0.079 C 
HETATM    3  S   UNL     1       8.219  26.823  57.094  1.00  0.00    -0.082 SA
HETATM    4  C   UNL     1       7.290  25.989  55.836  1.00  0.00     0.032 A 
HETATM    5  C   UNL     1       5.946  26.273  55.588  1.00  0.00     0.052 A 
HETATM    6  N   UNL     1       5.278  27.305  56.254  1.00  0.00    -0.321 N 
HETATM    7  C   UNL     1       7.914  24.964  55.112  1.00  0.00     0.021 A 
HETATM    8  C   UNL     1       7.203  24.228  54.162  1.00  0.00     0.002 A 
HETATM    9  C   UNL     1       5.856  24.502  53.939  1.00  0.00     0.002 A 
HETATM   10  C   UNL     1       5.226  25.520  54.654  1.00  0.00     0.031 A 
HETATM   11  C   UNL     1       5.834  28.265  57.048  1.00  0.00     0.263 C 
HETATM   12  O   UNL     1       5.099  29.133  57.523  1.00  0.00    -0.267 OA
HETATM   13  H   UNL     1       4.285  27.427  56.100  1.00  0.00     0.169 HD
ENDROOT
BRANCH   1  14
HETATM   14  C   UNL     1       9.229  29.776  58.014  1.00  0.00     0.247 C 
HETATM   15  N   UNL     1       9.515  30.548  59.103  1.00  0.00    -0.324 N 
HETATM   16  H   UNL     1      10.470  30.888  59.038  1.00  0.00     0.169 HD
HETATM   17  O   UNL     1      10.172  29.442  57.300  1.00  0.00    -0.268 OA
BRANCH  15  18
HETATM   18  C   UNL     1       8.802  30.967  60.239  1.00  0.00     0.035 A 
HETATM   19  C   UNL     1       9.054  30.535  61.542  1.00  0.00     0.029 A 
HETATM   20  C   UNL     1       8.288  31.021  62.607  1.00  0.00     0.002 A 
HETATM   21  C   UNL     1       7.285  31.961  62.383  1.00  0.00     0.000 A 
HETATM   22  C   UNL     1       7.058  32.434  61.095  1.00  0.00     0.002 A 
HETATM   23  C   UNL     1       7.822  31.947  60.033  1.00  0.00     0.029 A 
ENDBRANCH  15  18
ENDBRANCH   1  14
TORSDOF 2
ENDMDL
