MODEL 1
REMARK VINA RESULT:      -9.5      0.000      0.000
REMARK  5 active torsions:
REMARK  status: ('A' for Active; 'I' for Inactive)
REMARK    1  A    between atoms: C_7  and  C_8 
REMARK    2  A    between atoms: N_9  and  C_10 
REMARK    3  A    between atoms: C_10  and  C_11 
REMARK       I    between atoms: C_11  and  N_12 
REMARK    4  A    between atoms: N_12  and  C_13 
REMARK    5  A    between atoms: C_13  and  C_14 
ROOT
HETATM    1  C   UNL     1       6.900  27.977  55.543  1.00  0.00     0.158 C 
HETATM    2  N   UNL     1       5.609  28.164  56.192  1.00  0.00    -0.326 N 
HETATM    3  C   UNL     1       5.722  29.123  57.200  1.00  0.00     0.255 C 
HETATM    4  O   UNL     1       4.826  29.686  57.800  1.00  0.00    -0.267 OA
HETATM    5  C   UNL     1       7.149  29.395  57.404  1.00  0.00     0.040 A 
HETATM    6  C   UNL     1       7.863  28.699  56.432  1.00  0.00    -0.015 A 
HETATM    7  C   UNL     1       7.754  30.220  58.333  1.00  0.00     0.017 A 
HETATM    8  C   UNL     1       9.143  30.339  58.277  1.00  0.00     0.001 A 
HETATM    9  C   UNL     1       9.881  29.645  57.300  1.00  0.00     0.001 A 
HETATM   10  C   UNL     1       9.243  28.823  56.365  1.00  0.00     0.011 A 
ENDROOT
BRANCH   1  11
HETATM   11  C   UNL     1       7.303  26.537  55.470  1.00  0.00     0.004 A 
HETATM   12  C   UNL     1       7.572  25.716  56.566  1.00  0.00     0.017 A 
HETATM   13  C   UNL     1       7.543  26.024  58.027  1.00  0.00     0.069 C 
HETATM   14  N   UNL     1       7.909  24.466  56.088  1.00  0.00    -0.354 N 
HETATM   15  C   UNL     1       8.268  23.341  56.929  1.00  0.00     0.156 C 
HETATM   16  C   UNL     1       7.857  24.445  54.711  1.00  0.00     0.045 A 
HETATM   17  C   UNL     1       7.481  25.725  54.294  1.00  0.00     0.001 A 
HETATM   18  C   UNL     1       8.111  23.409  53.792  1.00  0.00     0.030 A 
HETATM   19  C   UNL     1       7.349  25.964  52.907  1.00  0.00     0.014 A 
HETATM   20  C   UNL     1       7.597  24.940  51.989  1.00  0.00     0.001 A 
HETATM   21  C   UNL     1       7.974  23.679  52.428  1.00  0.00     0.002 A 
ENDBRANCH   1  11
BRANCH   2  22
HETATM   22  C   UNL     1       4.401  28.137  55.378  1.00  0.00     0.229 C 
BRANCH  22  23
HETATM   23  C   UNL     1       4.452  28.911  54.059  1.00  0.00     0.235 C 
HETATM   24  N   UNL     1       4.488  28.144  52.916  1.00  0.00    -0.357 N 
HETATM   25  H   UNL     1       4.311  27.150  53.007  1.00  0.00     0.162 HD
HETATM   26  O   UNL     1       4.604  30.133  54.042  1.00  0.00    -0.272 OA
BRANCH  24  27
HETATM   27  C   UNL     1       4.456  28.761  51.600  1.00  0.00     0.154 C 
BRANCH  27  28
HETATM   28  C   UNL     1       5.280  27.991  50.553  1.00  0.00     0.139 C 
HETATM   29  O   UNL     1       4.628  26.735  50.251  1.00  0.00    -0.384 OA
HETATM   30  C   UNL     1       4.644  26.563  48.831  1.00  0.00     0.168 C 
HETATM   31  C   UNL     1       4.565  27.959  48.265  1.00  0.00     0.029 C 
HETATM   32  C   UNL     1       5.422  28.743  49.229  1.00  0.00     0.035 C 
ENDBRANCH  27  28
ENDBRANCH  24  27
ENDBRANCH  22  23
ENDBRANCH   2  22
TORSDOF 5
ENDMDL
MODEL 2
REMARK VINA RESULT:      -9.0      2.048      3.798
REMARK  5 active torsions:
REMARK  status: ('A' for Active; 'I' for Inactive)
REMARK    1  A    between atoms: C_7  and  C_8 
REMARK    2  A    between atoms: N_9  and  C_10 
REMARK    3  A    between atoms: C_10  and  C_11 
REMARK       I    between atoms: C_11  and  N_12 
REMARK    4  A    between atoms: N_12  and  C_13 
REMARK    5  A    between atoms: C_13  and  C_14 
ROOT
HETATM    1  C   UNL     1       6.924  28.028  55.554  1.00  0.00     0.158 C 
HETATM    2  N   UNL     1       5.628  28.230  56.188  1.00  0.00    -0.326 N 
HETATM    3  C   UNL     1       5.743  29.178  57.206  1.00  0.00     0.255 C 
HETATM    4  O   UNL     1       4.848  29.749  57.800  1.00  0.00    -0.267 OA
HETATM    5  C   UNL     1       7.171  29.426  57.431  1.00  0.00     0.040 A 
HETATM    6  C   UNL     1       7.887  28.727  56.462  1.00  0.00    -0.015 A 
HETATM    7  C   UNL     1       7.776  30.232  58.375  1.00  0.00     0.017 A 
HETATM    8  C   UNL     1       9.168  30.330  58.338  1.00  0.00     0.001 A 
HETATM    9  C   UNL     1       9.907  29.634  57.365  1.00  0.00     0.001 A 
HETATM   10  C   UNL     1       9.269  28.831  56.414  1.00  0.00     0.011 A 
ENDROOT
BRANCH   1  11
HETATM   11  C   UNL     1       7.306  26.584  55.473  1.00  0.00     0.004 A 
HETATM   12  C   UNL     1       7.556  25.750  56.564  1.00  0.00     0.017 A 
HETATM   13  C   UNL     1       7.523  26.048  58.027  1.00  0.00     0.069 C 
HETATM   14  N   UNL     1       7.877  24.499  56.079  1.00  0.00    -0.354 N 
HETATM   15  C   UNL     1       8.214  23.363  56.914  1.00  0.00     0.156 C 
HETATM   16  C   UNL     1       7.833  24.489  54.702  1.00  0.00     0.045 A 
HETATM   17  C   UNL     1       7.479  25.777  54.292  1.00  0.00     0.001 A 
HETATM   18  C   UNL     1       8.076  23.456  53.776  1.00  0.00     0.030 A 
HETATM   19  C   UNL     1       7.358  26.028  52.906  1.00  0.00     0.014 A 
HETATM   20  C   UNL     1       7.596  25.007  51.982  1.00  0.00     0.001 A 
HETATM   21  C   UNL     1       7.951  23.738  52.414  1.00  0.00     0.002 A 
ENDBRANCH   1  11
BRANCH   2  22
HETATM   22  C   UNL     1       4.430  28.229  55.359  1.00  0.00     0.229 C 
BRANCH  22  23
HETATM   23  C   UNL     1       4.196  29.475  54.500  1.00  0.00     0.235 C 
HETATM   24  N   UNL     1       3.422  30.459  55.072  1.00  0.00    -0.357 N 
HETATM   25  H   UNL     1       3.203  30.377  56.058  1.00  0.00     0.162 HD
HETATM   26  O   UNL     1       4.555  29.514  53.323  1.00  0.00    -0.272 OA
BRANCH  24  27
HETATM   27  C   UNL     1       3.194  31.723  54.389  1.00  0.00     0.154 C 
BRANCH  27  28
HETATM   28  C   UNL     1       3.219  32.934  55.338  1.00  0.00     0.139 C 
HETATM   29  O   UNL     1       2.756  32.532  56.649  1.00  0.00    -0.384 OA
HETATM   30  C   UNL     1       3.639  33.101  57.619  1.00  0.00     0.168 C 
HETATM   31  C   UNL     1       4.987  33.151  56.943  1.00  0.00     0.029 C 
HETATM   32  C   UNL     1       4.619  33.520  55.527  1.00  0.00     0.035 C 
ENDBRANCH  27  28
ENDBRANCH  24  27
ENDBRANCH  22  23
ENDBRANCH   2  22
TORSDOF 5
ENDMDL
MODEL 3
REMARK VINA RESULT:      -9.0      9.253     14.024
REMARK  5 active torsions:
REMARK  status: ('A' for Active; 'I' for Inactive)
REMARK    1  A    between atoms: C_7  and  C_8 
REMARK    2  A    between atoms: N_9  and  C_10 
REMARK    3  A    between atoms: C_10  and  C_11 
REMARK       I    between atoms: C_11  and  N_12 
REMARK    4  A    between atoms: N_12  and  C_13 
REMARK    5  A    between atoms: C_13  and  C_14 
ROOT
HETATM    1  C   UNL     1       4.367  35.924  62.693  1.00  0.00     0.158 C 
HETATM    2  N   UNL     1       4.577  35.957  64.135  1.00  0.00    -0.326 N 
HETATM    3  C   UNL     1       5.069  37.207  64.512  1.00  0.00     0.255 C 
HETATM    4  O   UNL     1       5.158  37.668  65.634  1.00  0.00    -0.267 OA
HETATM    5  C   UNL     1       5.437  37.933  63.291  1.00  0.00     0.040 A 
HETATM    6  C   UNL     1       5.040  37.166  62.198  1.00  0.00    -0.015 A 
HETATM    7  C   UNL     1       6.024  39.177  63.162  1.00  0.00     0.017 A 
HETATM    8  C   UNL     1       6.221  39.661  61.868  1.00  0.00     0.001 A 
HETATM    9  C   UNL     1       5.825  38.901  60.752  1.00  0.00     0.001 A 
HETATM   10  C   UNL     1       5.224  37.648  60.912  1.00  0.00     0.011 A 
ENDROOT
BRANCH   1  11
HETATM   11  C   UNL     1       5.012  34.740  62.045  1.00  0.00     0.004 A 
HETATM   12  C   UNL     1       4.642  34.188  60.818  1.00  0.00     0.017 A 
HETATM   13  C   UNL     1       3.562  34.593  59.869  1.00  0.00     0.069 C 
HETATM   14  N   UNL     1       5.471  33.113  60.568  1.00  0.00    -0.354 N 
HETATM   15  C   UNL     1       5.385  32.274  59.388  1.00  0.00     0.156 C 
HETATM   16  C   UNL     1       6.378  32.954  61.592  1.00  0.00     0.045 A 
HETATM   17  C   UNL     1       6.118  33.955  62.532  1.00  0.00     0.001 A 
HETATM   18  C   UNL     1       7.409  32.013  61.777  1.00  0.00     0.030 A 
HETATM   19  C   UNL     1       6.928  34.014  63.689  1.00  0.00     0.014 A 
HETATM   20  C   UNL     1       7.953  33.083  63.878  1.00  0.00     0.001 A 
HETATM   21  C   UNL     1       8.189  32.095  62.933  1.00  0.00     0.002 A 
ENDBRANCH   1  11
BRANCH   2  22
HETATM   22  C   UNL     1       3.616  35.288  65.002  1.00  0.00     0.229 C 
BRANCH  22  23
HETATM   23  C   UNL     1       4.195  34.348  66.062  1.00  0.00     0.235 C 
HETATM   24  N   UNL     1       4.478  34.923  67.281  1.00  0.00    -0.357 N 
HETATM   25  H   UNL     1       4.139  35.862  67.452  1.00  0.00     0.162 HD
HETATM   26  O   UNL     1       4.522  33.194  65.781  1.00  0.00    -0.272 OA
BRANCH  24  27
HETATM   27  C   UNL     1       4.957  34.118  68.394  1.00  0.00     0.154 C 
BRANCH  27  28
HETATM   28  C   UNL     1       5.812  34.918  69.392  1.00  0.00     0.139 C 
HETATM   29  O   UNL     1       5.441  34.562  70.744  1.00  0.00    -0.384 OA
HETATM   30  C   UNL     1       6.644  34.378  71.495  1.00  0.00     0.168 C 
HETATM   31  C   UNL     1       7.651  33.854  70.503  1.00  0.00     0.029 C 
HETATM   32  C   UNL     1       7.310  34.637  69.259  1.00  0.00     0.035 C 
ENDBRANCH  27  28
ENDBRANCH  24  27
ENDBRANCH  22  23
ENDBRANCH   2  22
TORSDOF 5
ENDMDL
MODEL 4
REMARK VINA RESULT:      -9.0      1.975      5.058
REMARK  5 active torsions:
REMARK  status: ('A' for Active; 'I' for Inactive)
REMARK    1  A    between atoms: C_7  and  C_8 
REMARK    2  A    between atoms: N_9  and  C_10 
REMARK    3  A    between atoms: C_10  and  C_11 
REMARK       I    between atoms: C_11  and  N_12 
REMARK    4  A    between atoms: N_12  and  C_13 
REMARK    5  A    between atoms: C_13  and  C_14 
ROOT
HETATM    1  C   UNL     1       6.090  27.321  54.902  1.00  0.00     0.158 C 
HETATM    2  N   UNL     1       6.862  27.510  53.681  1.00  0.00    -0.326 N 
HETATM    3  C   UNL     1       7.584  26.351  53.394  1.00  0.00     0.255 C 
HETATM    4  O   UNL     1       8.160  26.065  52.361  1.00  0.00    -0.267 OA
HETATM    5  C   UNL     1       7.502  25.469  54.563  1.00  0.00     0.040 A 
HETATM    6  C   UNL     1       6.627  26.049  55.479  1.00  0.00    -0.015 A 
HETATM    7  C   UNL     1       8.107  24.245  54.774  1.00  0.00     0.017 A 
HETATM    8  C   UNL     1       7.816  23.584  55.968  1.00  0.00     0.001 A 
HETATM    9  C   UNL     1       6.933  24.153  56.904  1.00  0.00     0.001 A 
HETATM   10  C   UNL     1       6.327  25.390  56.662  1.00  0.00     0.011 A 
ENDROOT
BRANCH   1  11
HETATM   11  C   UNL     1       6.302  28.422  55.893  1.00  0.00     0.004 A 
HETATM   12  C   UNL     1       5.300  29.232  56.429  1.00  0.00     0.017 A 
HETATM   13  C   UNL     1       3.828  29.234  56.175  1.00  0.00     0.069 C 
HETATM   14  N   UNL     1       5.893  30.123  57.299  1.00  0.00    -0.354 N 
HETATM   15  C   UNL     1       5.174  31.139  58.043  1.00  0.00     0.156 C 
HETATM   16  C   UNL     1       7.254  29.911  57.355  1.00  0.00     0.045 A 
HETATM   17  C   UNL     1       7.541  28.854  56.487  1.00  0.00     0.001 A 
HETATM   18  C   UNL     1       8.262  30.560  58.094  1.00  0.00     0.030 A 
HETATM   19  C   UNL     1       8.885  28.433  56.368  1.00  0.00     0.014 A 
HETATM   20  C   UNL     1       9.891  29.071  57.100  1.00  0.00     0.001 A 
HETATM   21  C   UNL     1       9.580  30.122  57.951  1.00  0.00     0.002 A 
ENDBRANCH   1  11
BRANCH   2  22
HETATM   22  C   UNL     1       6.268  28.260  52.582  1.00  0.00     0.229 C 
BRANCH  22  23
HETATM   23  C   UNL     1       5.185  27.540  51.774  1.00  0.00     0.235 C 
HETATM   24  N   UNL     1       5.589  27.012  50.569  1.00  0.00    -0.357 N 
HETATM   25  H   UNL     1       6.583  26.981  50.374  1.00  0.00     0.162 HD
HETATM   26  O   UNL     1       4.003  27.574  52.120  1.00  0.00    -0.272 OA
BRANCH  24  27
HETATM   27  C   UNL     1       4.673  26.236  49.748  1.00  0.00     0.154 C 
BRANCH  27  28
HETATM   28  C   UNL     1       4.167  27.007  48.515  1.00  0.00     0.139 C 
HETATM   29  O   UNL     1       3.825  26.073  47.465  1.00  0.00    -0.384 OA
HETATM   30  C   UNL     1       2.571  26.479  46.909  1.00  0.00     0.168 C 
HETATM   31  C   UNL     1       1.816  27.105  48.055  1.00  0.00     0.029 C 
HETATM   32  C   UNL     1       2.911  27.832  48.797  1.00  0.00     0.035 C 
ENDBRANCH  27  28
ENDBRANCH  24  27
ENDBRANCH  22  23
ENDBRANCH   2  22
TORSDOF 5
ENDMDL
MODEL 5
REMARK VINA RESULT:      -8.7      7.122     11.298
REMARK  5 active torsions:
REMARK  status: ('A' for Active; 'I' for Inactive)
REMARK    1  A    between atoms: C_7  and  C_8 
REMARK    2  A    between atoms: N_9  and  C_10 
REMARK    3  A    between atoms: C_10  and  C_11 
REMARK       I    between atoms: C_11  and  N_12 
REMARK    4  A    between atoms: N_12  and  C_13 
REMARK    5  A    between atoms: C_13  and  C_14 
ROOT
HETATM    1  C   UNL     1       4.561  33.743  63.178  1.00  0.00     0.158 C 
HETATM    2  N   UNL     1       5.907  33.188  63.129  1.00  0.00    -0.326 N 
HETATM    3  C   UNL     1       6.487  33.243  64.397  1.00  0.00     0.255 C 
HETATM    4  O   UNL     1       7.498  32.687  64.780  1.00  0.00    -0.267 OA
HETATM    5  C   UNL     1       5.629  34.073  65.248  1.00  0.00     0.040 A 
HETATM    6  C   UNL     1       4.484  34.395  64.523  1.00  0.00    -0.015 A 
HETATM    7  C   UNL     1       5.821  34.466  66.559  1.00  0.00     0.017 A 
HETATM    8  C   UNL     1       4.812  35.223  67.156  1.00  0.00     0.001 A 
HETATM    9  C   UNL     1       3.648  35.555  66.440  1.00  0.00     0.001 A 
HETATM   10  C   UNL     1       3.474  35.136  65.117  1.00  0.00     0.011 A 
ENDROOT
BRANCH   1  11
HETATM   11  C   UNL     1       4.330  34.785  62.128  1.00  0.00     0.004 A 
HETATM   12  C   UNL     1       3.454  34.665  61.049  1.00  0.00     0.017 A 
HETATM   13  C   UNL     1       2.561  33.533  60.656  1.00  0.00     0.069 C 
HETATM   14  N   UNL     1       3.525  35.829  60.311  1.00  0.00    -0.354 N 
HETATM   15  C   UNL     1       2.766  36.077  59.101  1.00  0.00     0.156 C 
HETATM   16  C   UNL     1       4.416  36.711  60.885  1.00  0.00     0.045 A 
HETATM   17  C   UNL     1       4.936  36.087  62.023  1.00  0.00     0.001 A 
HETATM   18  C   UNL     1       4.812  38.006  60.501  1.00  0.00     0.030 A 
HETATM   19  C   UNL     1       5.879  36.796  62.801  1.00  0.00     0.014 A 
HETATM   20  C   UNL     1       6.276  38.083  62.427  1.00  0.00     0.001 A 
HETATM   21  C   UNL     1       5.748  38.678  61.290  1.00  0.00     0.002 A 
ENDBRANCH   1  11
BRANCH   2  22
HETATM   22  C   UNL     1       6.158  32.024  62.289  1.00  0.00     0.229 C 
BRANCH  22  23
HETATM   23  C   UNL     1       7.168  32.209  61.154  1.00  0.00     0.235 C 
HETATM   24  N   UNL     1       7.141  31.250  60.167  1.00  0.00    -0.357 N 
HETATM   25  H   UNL     1       6.365  30.597  60.161  1.00  0.00     0.162 HD
HETATM   26  O   UNL     1       8.042  33.075  61.212  1.00  0.00    -0.272 OA
BRANCH  24  27
HETATM   27  C   UNL     1       7.996  31.358  58.995  1.00  0.00     0.154 C 
BRANCH  27  28
HETATM   28  C   UNL     1       8.882  30.119  58.780  1.00  0.00     0.139 C 
HETATM   29  O   UNL     1       8.053  28.981  58.448  1.00  0.00    -0.384 OA
HETATM   30  C   UNL     1       8.669  28.294  57.354  1.00  0.00     0.168 C 
HETATM   31  C   UNL     1       9.358  29.370  56.552  1.00  0.00     0.029 C 
HETATM   32  C   UNL     1       9.879  30.286  57.632  1.00  0.00     0.035 C 
ENDBRANCH  27  28
ENDBRANCH  24  27
ENDBRANCH  22  23
ENDBRANCH   2  22
TORSDOF 5
ENDMDL
MODEL 6
REMARK VINA RESULT:      -8.6      6.034     10.443
REMARK  5 active torsions:
REMARK  status: ('A' for Active; 'I' for Inactive)
REMARK    1  A    between atoms: C_7  and  C_8 
REMARK    2  A    between atoms: N_9  and  C_10 
REMARK    3  A    between atoms: C_10  and  C_11 
REMARK       I    between atoms: C_11  and  N_12 
REMARK    4  A    between atoms: N_12  and  C_13 
REMARK    5  A    between atoms: C_13  and  C_14 
ROOT
HETATM    1  C   UNL     1       5.527  33.127  60.651  1.00  0.00     0.158 C 
HETATM    2  N   UNL     1       4.636  32.319  61.474  1.00  0.00    -0.326 N 
HETATM    3  C   UNL     1       5.384  31.570  62.384  1.00  0.00     0.255 C 
HETATM    4  O   UNL     1       4.982  30.957  63.355  1.00  0.00    -0.267 OA
HETATM    5  C   UNL     1       6.796  31.678  62.002  1.00  0.00     0.040 A 
HETATM    6  C   UNL     1       6.890  32.590  60.954  1.00  0.00    -0.015 A 
HETATM    7  C   UNL     1       7.898  31.062  62.563  1.00  0.00     0.017 A 
HETATM    8  C   UNL     1       9.149  31.381  62.033  1.00  0.00     0.001 A 
HETATM    9  C   UNL     1       9.264  32.302  60.976  1.00  0.00     0.001 A 
HETATM   10  C   UNL     1       8.133  32.918  60.433  1.00  0.00     0.011 A 
ENDROOT
BRANCH   1  11
HETATM   11  C   UNL     1       5.263  32.964  59.187  1.00  0.00     0.004 A 
HETATM   12  C   UNL     1       4.625  33.898  58.371  1.00  0.00     0.017 A 
HETATM   13  C   UNL     1       4.054  35.237  58.708  1.00  0.00     0.069 C 
HETATM   14  N   UNL     1       4.573  33.382  57.092  1.00  0.00    -0.354 N 
HETATM   15  C   UNL     1       3.969  34.060  55.962  1.00  0.00     0.156 C 
HETATM   16  C   UNL     1       5.169  32.140  57.048  1.00  0.00     0.045 A 
HETATM   17  C   UNL     1       5.611  31.850  58.342  1.00  0.00     0.001 A 
HETATM   18  C   UNL     1       5.358  31.242  55.980  1.00  0.00     0.030 A 
HETATM   19  C   UNL     1       6.271  30.620  58.563  1.00  0.00     0.014 A 
HETATM   20  C   UNL     1       6.463  29.724  57.507  1.00  0.00     0.001 A 
HETATM   21  C   UNL     1       6.011  30.034  56.232  1.00  0.00     0.002 A 
ENDBRANCH   1  11
BRANCH   2  22
HETATM   22  C   UNL     1       3.366  32.888  61.905  1.00  0.00     0.229 C 
BRANCH  22  23
HETATM   23  C   UNL     1       3.444  34.093  62.845  1.00  0.00     0.235 C 
HETATM   24  N   UNL     1       3.602  33.800  64.181  1.00  0.00    -0.357 N 
HETATM   25  H   UNL     1       3.822  32.844  64.434  1.00  0.00     0.162 HD
HETATM   26  O   UNL     1       3.226  35.235  62.438  1.00  0.00    -0.272 OA
BRANCH  24  27
HETATM   27  C   UNL     1       3.770  34.859  65.163  1.00  0.00     0.154 C 
BRANCH  27  28
HETATM   28  C   UNL     1       5.246  35.198  65.439  1.00  0.00     0.139 C 
HETATM   29  O   UNL     1       5.619  34.707  66.748  1.00  0.00    -0.384 OA
HETATM   30  C   UNL     1       6.894  34.069  66.629  1.00  0.00     0.168 C 
HETATM   31  C   UNL     1       6.915  33.489  65.237  1.00  0.00     0.029 C 
HETATM   32  C   UNL     1       6.206  34.555  64.438  1.00  0.00     0.035 C 
ENDBRANCH  27  28
ENDBRANCH  24  27
ENDBRANCH  22  23
ENDBRANCH   2  22
TORSDOF 5
ENDMDL
MODEL 7
REMARK VINA RESULT:      -8.6      2.104      4.481
REMARK  5 active torsions:
REMARK  status: ('A' for Active; 'I' for Inactive)
REMARK    1  A    between atoms: C_7  and  C_8 
REMARK    2  A    between atoms: N_9  and  C_10 
REMARK    3  A    between atoms: C_10  and  C_11 
REMARK       I    between atoms: C_11  and  N_12 
REMARK    4  A    between atoms: N_12  and  C_13 
REMARK    5  A    between atoms: C_13  and  C_14 
ROOT
HETATM    1  C   UNL     1       6.726  28.294  55.171  1.00  0.00     0.158 C 
HETATM    2  N   UNL     1       5.477  28.370  55.918  1.00  0.00    -0.326 N 
HETATM    3  C   UNL     1       5.651  29.172  57.047  1.00  0.00     0.255 C 
HETATM    4  O   UNL     1       4.792  29.631  57.777  1.00  0.00    -0.267 OA
HETATM    5  C   UNL     1       7.087  29.426  57.202  1.00  0.00     0.040 A 
HETATM    6  C   UNL     1       7.741  28.888  56.096  1.00  0.00    -0.015 A 
HETATM    7  C   UNL     1       7.746  30.112  58.204  1.00  0.00     0.017 A 
HETATM    8  C   UNL     1       9.129  30.253  58.081  1.00  0.00     0.001 A 
HETATM    9  C   UNL     1       9.807  29.718  56.970  1.00  0.00     0.001 A 
HETATM   10  C   UNL     1       9.114  29.036  55.965  1.00  0.00     0.011 A 
ENDROOT
BRANCH   1  11
HETATM   11  C   UNL     1       7.126  26.885  54.863  1.00  0.00     0.004 A 
HETATM   12  C   UNL     1       7.061  26.281  53.607  1.00  0.00     0.017 A 
HETATM   13  C   UNL     1       6.594  26.833  52.299  1.00  0.00     0.069 C 
HETATM   14  N   UNL     1       7.515  24.985  53.733  1.00  0.00    -0.354 N 
HETATM   15  C   UNL     1       7.584  24.034  52.640  1.00  0.00     0.156 C 
HETATM   16  C   UNL     1       7.886  24.727  55.035  1.00  0.00     0.045 A 
HETATM   17  C   UNL     1       7.655  25.895  55.766  1.00  0.00     0.001 A 
HETATM   18  C   UNL     1       8.405  23.565  55.636  1.00  0.00     0.030 A 
HETATM   19  C   UNL     1       7.966  25.893  57.145  1.00  0.00     0.014 A 
HETATM   20  C   UNL     1       8.483  24.743  57.749  1.00  0.00     0.001 A 
HETATM   21  C   UNL     1       8.698  23.594  57.001  1.00  0.00     0.002 A 
ENDBRANCH   1  11
BRANCH   2  22
HETATM   22  C   UNL     1       4.221  28.450  55.184  1.00  0.00     0.229 C 
BRANCH  22  23
HETATM   23  C   UNL     1       3.929  29.775  54.476  1.00  0.00     0.235 C 
HETATM   24  N   UNL     1       3.144  30.665  55.174  1.00  0.00    -0.357 N 
HETATM   25  H   UNL     1       2.955  30.467  56.150  1.00  0.00     0.162 HD
HETATM   26  O   UNL     1       4.254  29.956  53.303  1.00  0.00    -0.272 OA
BRANCH  24  27
HETATM   27  C   UNL     1       2.862  31.989  54.643  1.00  0.00     0.154 C 
BRANCH  27  28
HETATM   28  C   UNL     1       3.144  33.116  55.653  1.00  0.00     0.139 C 
HETATM   29  O   UNL     1       2.757  32.687  56.979  1.00  0.00    -0.384 OA
HETATM   30  C   UNL     1       3.799  33.064  57.884  1.00  0.00     0.168 C 
HETATM   31  C   UNL     1       5.070  32.984  57.076  1.00  0.00     0.029 C 
HETATM   32  C   UNL     1       4.623  33.498  55.729  1.00  0.00     0.035 C 
ENDBRANCH  27  28
ENDBRANCH  24  27
ENDBRANCH  22  23
ENDBRANCH   2  22
TORSDOF 5
ENDMDL
MODEL 8
REMARK VINA RESULT:      -8.4      5.076      9.385
REMARK  5 active torsions:
REMARK  status: ('A' for Active; 'I' for Inactive)
REMARK    1  A    between atoms: C_7  and  C_8 
REMARK    2  A    between atoms: N_9  and  C_10 
REMARK    3  A    between atoms: C_10  and  C_11 
REMARK       I    between atoms: C_11  and  N_12 
REMARK    4  A    between atoms: N_12  and  C_13 
REMARK    5  A    between atoms: C_13  and  C_14 
ROOT
HETATM    1  C   UNL     1       4.380  31.771  57.895  1.00  0.00     0.158 C 
HETATM    2  N   UNL     1       4.079  32.563  59.080  1.00  0.00    -0.326 N 
HETATM    3  C   UNL     1       3.871  33.895  58.717  1.00  0.00     0.255 C 
HETATM    4  O   UNL     1       3.397  34.788  59.393  1.00  0.00    -0.267 OA
HETATM    5  C   UNL     1       4.288  34.050  57.319  1.00  0.00     0.040 A 
HETATM    6  C   UNL     1       4.613  32.790  56.824  1.00  0.00    -0.015 A 
HETATM    7  C   UNL     1       4.328  35.194  56.545  1.00  0.00     0.017 A 
HETATM    8  C   UNL     1       4.721  35.053  55.213  1.00  0.00     0.001 A 
HETATM    9  C   UNL     1       5.051  33.788  54.695  1.00  0.00     0.001 A 
HETATM   10  C   UNL     1       4.993  32.644  55.499  1.00  0.00     0.011 A 
ENDROOT
BRANCH   1  11
HETATM   11  C   UNL     1       5.622  30.950  58.053  1.00  0.00     0.004 A 
HETATM   12  C   UNL     1       5.839  29.694  57.486  1.00  0.00     0.017 A 
HETATM   13  C   UNL     1       4.947  28.862  56.623  1.00  0.00     0.069 C 
HETATM   14  N   UNL     1       7.095  29.268  57.863  1.00  0.00    -0.354 N 
HETATM   15  C   UNL     1       7.675  27.996  57.478  1.00  0.00     0.156 C 
HETATM   16  C   UNL     1       7.710  30.215  58.652  1.00  0.00     0.045 A 
HETATM   17  C   UNL     1       6.815  31.280  58.789  1.00  0.00     0.001 A 
HETATM   18  C   UNL     1       8.980  30.230  59.261  1.00  0.00     0.030 A 
HETATM   19  C   UNL     1       7.217  32.396  59.557  1.00  0.00     0.014 A 
HETATM   20  C   UNL     1       8.476  32.418  60.164  1.00  0.00     0.001 A 
HETATM   21  C   UNL     1       9.345  31.347  60.016  1.00  0.00     0.002 A 
ENDBRANCH   1  11
BRANCH   2  22
HETATM   22  C   UNL     1       3.247  31.981  60.125  1.00  0.00     0.229 C 
BRANCH  22  23
HETATM   23  C   UNL     1       3.731  32.171  61.564  1.00  0.00     0.235 C 
HETATM   24  N   UNL     1       4.944  31.595  61.869  1.00  0.00    -0.357 N 
HETATM   25  H   UNL     1       5.506  31.240  61.104  1.00  0.00     0.162 HD
HETATM   26  O   UNL     1       3.003  32.674  62.420  1.00  0.00    -0.272 OA
BRANCH  24  27
HETATM   27  C   UNL     1       5.548  31.774  63.180  1.00  0.00     0.154 C 
BRANCH  27  28
HETATM   28  C   UNL     1       6.295  33.111  63.323  1.00  0.00     0.139 C 
HETATM   29  O   UNL     1       5.430  34.085  63.954  1.00  0.00    -0.384 OA
HETATM   30  C   UNL     1       6.196  34.771  64.948  1.00  0.00     0.168 C 
HETATM   31  C   UNL     1       7.188  33.753  65.453  1.00  0.00     0.029 C 
HETATM   32  C   UNL     1       7.550  33.009  64.191  1.00  0.00     0.035 C 
ENDBRANCH  27  28
ENDBRANCH  24  27
ENDBRANCH  22  23
ENDBRANCH   2  22
TORSDOF 5
ENDMDL
MODEL 9
REMARK VINA RESULT:      -8.4      3.046      6.376
REMARK  5 active torsions:
REMARK  status: ('A' for Active; 'I' for Inactive)
REMARK    1  A    between atoms: C_7  and  C_8 
REMARK    2  A    between atoms: N_9  and  C_10 
REMARK    3  A    between atoms: C_10  and  C_11 
REMARK       I    between atoms: C_11  and  N_12 
REMARK    4  A    between atoms: N_12  and  C_13 
REMARK    5  A    between atoms: C_13  and  C_14 
ROOT
HETATM    1  C   UNL     1       6.813  29.290  56.109  1.00  0.00     0.158 C 
HETATM    2  N   UNL     1       6.167  29.584  57.381  1.00  0.00    -0.326 N 
HETATM    3  C   UNL     1       7.088  30.162  58.256  1.00  0.00     0.255 C 
HETATM    4  O   UNL     1       6.864  30.726  59.310  1.00  0.00    -0.267 OA
HETATM    5  C   UNL     1       8.421  30.021  57.663  1.00  0.00     0.040 A 
HETATM    6  C   UNL     1       8.271  29.482  56.387  1.00  0.00    -0.015 A 
HETATM    7  C   UNL     1       9.648  30.382  58.185  1.00  0.00     0.017 A 
HETATM    8  C   UNL     1      10.771  30.182  57.381  1.00  0.00     0.001 A 
HETATM    9  C   UNL     1      10.638  29.641  56.089  1.00  0.00     0.001 A 
HETATM   10  C   UNL     1       9.383  29.292  55.581  1.00  0.00     0.011 A 
ENDROOT
BRANCH   1  11
HETATM   11  C   UNL     1       6.593  27.878  55.665  1.00  0.00     0.004 A 
HETATM   12  C   UNL     1       5.793  27.482  54.592  1.00  0.00     0.017 A 
HETATM   13  C   UNL     1       4.976  28.303  53.649  1.00  0.00     0.069 C 
HETATM   14  N   UNL     1       5.847  26.106  54.506  1.00  0.00    -0.354 N 
HETATM   15  C   UNL     1       5.132  25.322  53.518  1.00  0.00     0.156 C 
HETATM   16  C   UNL     1       6.669  25.592  55.485  1.00  0.00     0.045 A 
HETATM   17  C   UNL     1       7.151  26.674  56.227  1.00  0.00     0.001 A 
HETATM   18  C   UNL     1       7.031  24.266  55.787  1.00  0.00     0.030 A 
HETATM   19  C   UNL     1       8.032  26.410  57.300  1.00  0.00     0.014 A 
HETATM   20  C   UNL     1       8.397  25.096  57.604  1.00  0.00     0.001 A 
HETATM   21  C   UNL     1       7.901  24.038  56.856  1.00  0.00     0.002 A 
ENDBRANCH   1  11
BRANCH   2  22
HETATM   22  C   UNL     1       4.795  30.074  57.377  1.00  0.00     0.229 C 
BRANCH  22  23
HETATM   23  C   UNL     1       4.615  31.594  57.388  1.00  0.00     0.235 C 
HETATM   24  N   UNL     1       4.033  32.119  58.520  1.00  0.00    -0.357 N 
HETATM   25  H   UNL     1       3.920  31.510  59.322  1.00  0.00     0.162 HD
HETATM   26  O   UNL     1       4.839  32.270  56.384  1.00  0.00    -0.272 OA
BRANCH  24  27
HETATM   27  C   UNL     1       3.882  33.556  58.685  1.00  0.00     0.154 C 
BRANCH  27  28
HETATM   28  C   UNL     1       4.261  34.045  60.094  1.00  0.00     0.139 C 
HETATM   29  O   UNL     1       3.107  34.646  60.726  1.00  0.00    -0.384 OA
HETATM   30  C   UNL     1       3.040  34.161  62.070  1.00  0.00     0.168 C 
HETATM   31  C   UNL     1       3.607  32.764  62.013  1.00  0.00     0.029 C 
HETATM   32  C   UNL     1       4.729  32.917  61.015  1.00  0.00     0.035 C 
ENDBRANCH  27  28
ENDBRANCH  24  27
ENDBRANCH  22  23
ENDBRANCH   2  22
TORSDOF 5
ENDMDL
MODEL 10
REMARK VINA RESULT:      -8.1      8.457     11.519
REMARK  5 active torsions:
REMARK  status: ('A' for Active; 'I' for Inactive)
REMARK    1  A    between atoms: C_7  and  C_8 
REMARK    2  A    between atoms: N_9  and  C_10 
REMARK    3  A    between atoms: C_10  and  C_11 
REMARK       I    between atoms: C_11  and  N_12 
REMARK    4  A    between atoms: N_12  and  C_13 
REMARK    5  A    between atoms: C_13  and  C_14 
ROOT
HETATM    1  C   UNL     1       5.003  33.421  62.768  1.00  0.00     0.158 C 
HETATM    2  N   UNL     1       4.360  33.605  61.474  1.00  0.00    -0.326 N 
HETATM    3  C   UNL     1       5.180  33.100  60.464  1.00  0.00     0.255 C 
HETATM    4  O   UNL     1       4.888  32.886  59.302  1.00  0.00    -0.267 OA
HETATM    5  C   UNL     1       6.491  32.809  61.051  1.00  0.00     0.040 A 
HETATM    6  C   UNL     1       6.403  33.017  62.426  1.00  0.00    -0.015 A 
HETATM    7  C   UNL     1       7.641  32.357  60.433  1.00  0.00     0.017 A 
HETATM    8  C   UNL     1       8.750  32.110  61.244  1.00  0.00     0.001 A 
HETATM    9  C   UNL     1       8.679  32.312  62.634  1.00  0.00     0.001 A 
HETATM   10  C   UNL     1       7.499  32.763  63.236  1.00  0.00     0.011 A 
ENDROOT
BRANCH   1  11
HETATM   11  C   UNL     1       5.052  34.684  63.571  1.00  0.00     0.004 A 
HETATM   12  C   UNL     1       4.792  34.785  64.938  1.00  0.00     0.017 A 
HETATM   13  C   UNL     1       4.407  33.729  65.923  1.00  0.00     0.069 C 
HETATM   14  N   UNL     1       4.939  36.107  65.303  1.00  0.00    -0.354 N 
HETATM   15  C   UNL     1       4.737  36.610  66.647  1.00  0.00     0.156 C 
HETATM   16  C   UNL     1       5.298  36.872  64.214  1.00  0.00     0.045 A 
HETATM   17  C   UNL     1       5.378  36.011  63.116  1.00  0.00     0.001 A 
HETATM   18  C   UNL     1       5.560  38.250  64.098  1.00  0.00     0.030 A 
HETATM   19  C   UNL     1       5.741  36.557  61.863  1.00  0.00     0.014 A 
HETATM   20  C   UNL     1       6.004  37.925  61.741  1.00  0.00     0.001 A 
HETATM   21  C   UNL     1       5.914  38.759  62.846  1.00  0.00     0.002 A 
ENDBRANCH   1  11
BRANCH   2  22
HETATM   22  C   UNL     1       2.919  33.418  61.372  1.00  0.00     0.229 C 
BRANCH  22  23
HETATM   23  C   UNL     1       2.144  34.501  60.618  1.00  0.00     0.235 C 
HETATM   24  N   UNL     1       2.743  35.740  60.568  1.00  0.00    -0.357 N 
HETATM   25  H   UNL     1       3.706  35.814  60.875  1.00  0.00     0.162 HD
HETATM   26  O   UNL     1       0.995  34.304  60.220  1.00  0.00    -0.272 OA
BRANCH  24  27
HETATM   27  C   UNL     1       2.145  36.830  59.814  1.00  0.00     0.154 C 
BRANCH  27  28
HETATM   28  C   UNL     1       2.812  37.053  58.446  1.00  0.00     0.139 C 
HETATM   29  O   UNL     1       4.191  36.617  58.501  1.00  0.00    -0.384 OA
HETATM   30  C   UNL     1       4.460  35.862  57.317  1.00  0.00     0.168 C 
HETATM   31  C   UNL     1       3.152  35.194  56.970  1.00  0.00     0.029 C 
HETATM   32  C   UNL     1       2.147  36.265  57.317  1.00  0.00     0.035 C 
ENDBRANCH  27  28
ENDBRANCH  24  27
ENDBRANCH  22  23
ENDBRANCH   2  22
TORSDOF 5
ENDMDL
