MODEL 1
REMARK VINA RESULT:      -9.3      0.000      0.000
REMARK  4 active torsions:
REMARK  status: ('A' for Active; 'I' for Inactive)
REMARK    1  A    between atoms: C_8  and  N_9 
REMARK       I    between atoms: N_9  and  C_10 
REMARK       I    between atoms: C_10  and  N_11 
REMARK    2  A    between atoms: N_11  and  C_12 
REMARK    3  A    between atoms: C_15  and  C_16 
REMARK       I    between atoms: C_16  and  N_17 
REMARK    4  A    between atoms: N_17  and  C_18 
ROOT
HETATM    1  C   UNL     1       7.046  31.978  62.788  1.00  0.00     0.036 A 
HETATM    2  C   UNL     1       5.668  32.083  62.990  1.00  0.00     0.030 A 
HETATM    3  C   UNL     1       5.159  32.841  64.051  1.00  0.00     0.019 A 
HETATM    4  C   UNL     1       6.028  33.489  64.932  1.00  0.00     0.032 A 
HETATM    5  C   UNL     1       7.406  33.428  64.706  1.00  0.00     0.019 A 
HETATM    6  C   UNL     1       7.911  32.673  63.642  1.00  0.00     0.030 A 
ENDROOT
BRANCH   1   7
HETATM    7  N   UNL     1       7.633  31.157  61.803  1.00  0.00    -0.309 N 
HETATM    8  C   UNL     1       7.545  31.296  60.425  1.00  0.00     0.325 C 
HETATM    9  N   UNL     1       7.958  30.127  59.809  1.00  0.00    -0.305 N 
HETATM   10  O   UNL     1       7.125  32.287  59.847  1.00  0.00    -0.247 OA
HETATM   11  H   UNL     1       7.912  29.293  60.373  1.00  0.00     0.171 HD
HETATM   12  H   UNL     1       8.259  30.439  62.132  1.00  0.00     0.170 HD
BRANCH   9  13
HETATM   13  C   UNL     1       8.063  29.914  58.444  1.00  0.00     0.086 A 
HETATM   14  C   UNL     1       9.244  30.132  57.759  1.00  0.00     0.052 A 
HETATM   15  C   UNL     1      10.588  30.576  58.195  1.00  0.00     0.072 C 
HETATM   16  N   UNL     1       8.984  29.808  56.458  1.00  0.00    -0.280 N 
HETATM   17  H   UNL     1       9.621  29.825  55.668  1.00  0.00     0.189 HD
HETATM   18  N   UNL     1       7.721  29.432  56.236  1.00  0.00    -0.177 NA
HETATM   19  C   UNL     1       7.139  29.494  57.442  1.00  0.00     0.079 A 
HETATM   20  C   UNL     1       5.690  29.180  57.540  1.00  0.00     0.075 C 
ENDBRANCH   9  13
ENDBRANCH   1   7
BRANCH   4  21
HETATM   21  C   UNL     1       5.537  34.228  66.127  1.00  0.00     0.252 C 
HETATM   22  N   UNL     1       6.276  34.058  67.280  1.00  0.00    -0.352 N 
HETATM   23  H   UNL     1       7.125  33.513  67.244  1.00  0.00     0.163 HD
HETATM   24  O   UNL     1       4.571  34.976  66.040  1.00  0.00    -0.268 OA
BRANCH  22  25
HETATM   25  C   UNL     1       5.969  34.771  68.515  1.00  0.00     0.084 C 
HETATM   26  C   UNL     1       5.508  33.812  69.621  1.00  0.00     0.025 C 
HETATM   27  C   UNL     1       6.646  32.943  70.154  1.00  0.00     0.002 C 
HETATM   28  C   UNL     1       7.830  33.786  70.616  1.00  0.00     0.000 C 
HETATM   29  C   UNL     1       8.316  34.728  69.519  1.00  0.00     0.002 C 
HETATM   30  C   UNL     1       7.181  35.595  68.976  1.00  0.00     0.025 C 
ENDBRANCH  22  25
ENDBRANCH   4  21
TORSDOF 4
ENDMDL
MODEL 2
REMARK VINA RESULT:      -9.2      5.263      8.584
REMARK  4 active torsions:
REMARK  status: ('A' for Active; 'I' for Inactive)
REMARK    1  A    between atoms: C_8  and  N_9 
REMARK       I    between atoms: N_9  and  C_10 
REMARK       I    between atoms: C_10  and  N_11 
REMARK    2  A    between atoms: N_11  and  C_12 
REMARK    3  A    between atoms: C_15  and  C_16 
REMARK       I    between atoms: C_16  and  N_17 
REMARK    4  A    between atoms: N_17  and  C_18 
ROOT
HETATM    1  C   UNL     1       6.696  26.602  57.005  1.00  0.00     0.036 A 
HETATM    2  C   UNL     1       5.513  27.336  56.888  1.00  0.00     0.030 A 
HETATM    3  C   UNL     1       5.472  28.684  57.261  1.00  0.00     0.019 A 
HETATM    4  C   UNL     1       6.613  29.308  57.773  1.00  0.00     0.032 A 
HETATM    5  C   UNL     1       7.811  28.591  57.848  1.00  0.00     0.019 A 
HETATM    6  C   UNL     1       7.850  27.245  57.469  1.00  0.00     0.030 A 
ENDROOT
BRANCH   1   7
HETATM    7  N   UNL     1       6.789  25.220  56.742  1.00  0.00    -0.309 N 
HETATM    8  C   UNL     1       7.451  24.603  55.690  1.00  0.00     0.325 C 
HETATM    9  N   UNL     1       7.036  23.286  55.581  1.00  0.00    -0.305 N 
HETATM   10  O   UNL     1       8.250  25.154  54.946  1.00  0.00    -0.247 OA
HETATM   11  H   UNL     1       6.137  23.075  55.984  1.00  0.00     0.171 HD
HETATM   12  H   UNL     1       6.407  24.602  57.441  1.00  0.00     0.170 HD
BRANCH   9  13
HETATM   13  C   UNL     1       7.521  22.346  54.686  1.00  0.00     0.086 A 
HETATM   14  C   UNL     1       7.892  21.077  55.090  1.00  0.00     0.052 A 
HETATM   15  C   UNL     1       7.874  20.399  56.407  1.00  0.00     0.072 C 
HETATM   16  N   UNL     1       8.298  20.431  53.957  1.00  0.00    -0.280 N 
HETATM   17  H   UNL     1       8.621  19.474  53.862  1.00  0.00     0.189 HD
HETATM   18  N   UNL     1       8.255  21.189  52.858  1.00  0.00    -0.177 NA
HETATM   19  C   UNL     1       7.785  22.369  53.285  1.00  0.00     0.079 A 
HETATM   20  C   UNL     1       7.660  23.475  52.301  1.00  0.00     0.075 C 
ENDBRANCH   9  13
ENDBRANCH   1   7
BRANCH   4  21
HETATM   21  C   UNL     1       6.593  30.710  58.270  1.00  0.00     0.252 C 
HETATM   22  N   UNL     1       7.304  30.944  59.430  1.00  0.00    -0.352 N 
HETATM   23  H   UNL     1       7.842  30.192  59.837  1.00  0.00     0.163 HD
HETATM   24  O   UNL     1       6.021  31.586  57.632  1.00  0.00    -0.268 OA
BRANCH  22  25
HETATM   25  C   UNL     1       7.443  32.278  60.004  1.00  0.00     0.084 C 
HETATM   26  C   UNL     1       6.471  32.494  61.172  1.00  0.00     0.025 C 
HETATM   27  C   UNL     1       6.857  31.687  62.411  1.00  0.00     0.002 C 
HETATM   28  C   UNL     1       8.296  31.961  62.836  1.00  0.00     0.000 C 
HETATM   29  C   UNL     1       9.277  31.726  61.692  1.00  0.00     0.002 C 
HETATM   30  C   UNL     1       8.893  32.524  60.446  1.00  0.00     0.025 C 
ENDBRANCH  22  25
ENDBRANCH   4  21
TORSDOF 4
ENDMDL
MODEL 3
REMARK VINA RESULT:      -8.9      3.141      4.668
REMARK  4 active torsions:
REMARK  status: ('A' for Active; 'I' for Inactive)
REMARK    1  A    between atoms: C_8  and  N_9 
REMARK       I    between atoms: N_9  and  C_10 
REMARK       I    between atoms: C_10  and  N_11 
REMARK    2  A    between atoms: N_11  and  C_12 
REMARK    3  A    between atoms: C_15  and  C_16 
REMARK       I    between atoms: C_16  and  N_17 
REMARK    4  A    between atoms: N_17  and  C_18 
ROOT
HETATM    1  C   UNL     1       7.553  31.461  61.497  1.00  0.00     0.036 A 
HETATM    2  C   UNL     1       8.320  31.825  62.606  1.00  0.00     0.030 A 
HETATM    3  C   UNL     1       7.878  32.825  63.481  1.00  0.00     0.019 A 
HETATM    4  C   UNL     1       6.669  33.484  63.242  1.00  0.00     0.032 A 
HETATM    5  C   UNL     1       5.875  33.090  62.160  1.00  0.00     0.019 A 
HETATM    6  C   UNL     1       6.317  32.087  61.292  1.00  0.00     0.030 A 
ENDROOT
BRANCH   1   7
HETATM    7  N   UNL     1       7.977  30.535  60.523  1.00  0.00    -0.309 N 
HETATM    8  C   UNL     1       8.388  30.802  59.224  1.00  0.00     0.325 C 
HETATM    9  N   UNL     1       8.397  29.632  58.484  1.00  0.00    -0.305 N 
HETATM   10  O   UNL     1       8.659  31.913  58.791  1.00  0.00    -0.247 OA
HETATM   11  H   UNL     1       7.811  28.890  58.830  1.00  0.00     0.171 HD
HETATM   12  H   UNL     1       8.078  29.578  60.825  1.00  0.00     0.170 HD
BRANCH   9  13
HETATM   13  C   UNL     1       8.807  29.499  57.167  1.00  0.00     0.086 A 
HETATM   14  C   UNL     1       7.923  29.176  56.155  1.00  0.00     0.052 A 
HETATM   15  C   UNL     1       6.463  28.926  56.143  1.00  0.00     0.072 C 
HETATM   16  N   UNL     1       8.664  29.149  55.009  1.00  0.00    -0.280 N 
HETATM   17  H   UNL     1       8.349  28.966  54.062  1.00  0.00     0.189 HD
HETATM   18  N   UNL     1       9.964  29.391  55.199  1.00  0.00    -0.177 NA
HETATM   19  C   UNL     1      10.073  29.605  56.518  1.00  0.00     0.079 A 
HETATM   20  C   UNL     1      11.424  29.860  57.081  1.00  0.00     0.075 C 
ENDBRANCH   9  13
ENDBRANCH   1   7
BRANCH   4  21
HETATM   21  C   UNL     1       6.204  34.616  64.088  1.00  0.00     0.252 C 
HETATM   22  N   UNL     1       5.831  35.758  63.408  1.00  0.00    -0.352 N 
HETATM   23  H   UNL     1       5.827  35.749  62.398  1.00  0.00     0.163 HD
HETATM   24  O   UNL     1       6.114  34.486  65.303  1.00  0.00    -0.268 OA
BRANCH  22  25
HETATM   25  C   UNL     1       5.283  36.926  64.088  1.00  0.00     0.084 C 
HETATM   26  C   UNL     1       6.068  38.199  63.743  1.00  0.00     0.025 C 
HETATM   27  C   UNL     1       5.834  38.660  62.305  1.00  0.00     0.002 C 
HETATM   28  C   UNL     1       4.350  38.832  62.003  1.00  0.00     0.000 C 
HETATM   29  C   UNL     1       3.559  37.566  62.317  1.00  0.00     0.002 C 
HETATM   30  C   UNL     1       3.794  37.094  63.753  1.00  0.00     0.025 C 
ENDBRANCH  22  25
ENDBRANCH   4  21
TORSDOF 4
ENDMDL
MODEL 4
REMARK VINA RESULT:      -8.7      2.164     10.140
REMARK  4 active torsions:
REMARK  status: ('A' for Active; 'I' for Inactive)
REMARK    1  A    between atoms: C_8  and  N_9 
REMARK       I    between atoms: N_9  and  C_10 
REMARK       I    between atoms: C_10  and  N_11 
REMARK    2  A    between atoms: N_11  and  C_12 
REMARK    3  A    between atoms: C_15  and  C_16 
REMARK       I    between atoms: C_16  and  N_17 
REMARK    4  A    between atoms: N_17  and  C_18 
ROOT
HETATM    1  C   UNL     1       7.642  32.180  62.156  1.00  0.00     0.036 A 
HETATM    2  C   UNL     1       6.993  32.363  60.933  1.00  0.00     0.030 A 
HETATM    3  C   UNL     1       7.406  31.658  59.796  1.00  0.00     0.019 A 
HETATM    4  C   UNL     1       8.486  30.773  59.870  1.00  0.00     0.032 A 
HETATM    5  C   UNL     1       9.107  30.551  61.103  1.00  0.00     0.019 A 
HETATM    6  C   UNL     1       8.689  31.253  62.238  1.00  0.00     0.030 A 
ENDROOT
BRANCH   1   7
HETATM    7  N   UNL     1       7.346  32.924  63.317  1.00  0.00    -0.309 N 
HETATM    8  C   UNL     1       6.146  32.963  64.013  1.00  0.00     0.325 C 
HETATM    9  N   UNL     1       6.139  34.045  64.876  1.00  0.00    -0.305 N 
HETATM   10  O   UNL     1       5.219  32.182  63.854  1.00  0.00    -0.247 OA
HETATM   11  H   UNL     1       6.770  34.796  64.643  1.00  0.00     0.171 HD
HETATM   12  H   UNL     1       8.116  33.416  63.743  1.00  0.00     0.170 HD
BRANCH   9  13
HETATM   13  C   UNL     1       5.135  34.371  65.774  1.00  0.00     0.086 A 
HETATM   14  C   UNL     1       5.377  34.491  67.129  1.00  0.00     0.052 A 
HETATM   15  C   UNL     1       6.608  34.357  67.943  1.00  0.00     0.072 C 
HETATM   16  N   UNL     1       4.180  34.833  67.692  1.00  0.00    -0.280 N 
HETATM   17  H   UNL     1       3.978  35.024  68.667  1.00  0.00     0.189 HD
HETATM   18  N   UNL     1       3.174  34.906  66.817  1.00  0.00    -0.177 NA
HETATM   19  C   UNL     1       3.738  34.622  65.635  1.00  0.00     0.079 A 
HETATM   20  C   UNL     1       2.866  34.570  64.433  1.00  0.00     0.075 C 
ENDBRANCH   9  13
ENDBRANCH   1   7
BRANCH   4  21
HETATM   21  C   UNL     1       9.020  30.074  58.670  1.00  0.00     0.252 C 
HETATM   22  N   UNL     1       8.255  29.025  58.199  1.00  0.00    -0.352 N 
HETATM   23  H   UNL     1       7.365  28.831  58.635  1.00  0.00     0.163 HD
HETATM   24  O   UNL     1      10.044  30.469  58.127  1.00  0.00    -0.268 OA
BRANCH  22  25
HETATM   25  C   UNL     1       8.604  28.288  56.990  1.00  0.00     0.084 C 
HETATM   26  C   UNL     1       8.238  26.802  57.110  1.00  0.00     0.025 C 
HETATM   27  C   UNL     1       6.730  26.565  57.076  1.00  0.00     0.002 C 
HETATM   28  C   UNL     1       6.089  27.191  55.842  1.00  0.00     0.000 C 
HETATM   29  C   UNL     1       6.422  28.674  55.722  1.00  0.00     0.002 C 
HETATM   30  C   UNL     1       7.931  28.919  55.762  1.00  0.00     0.025 C 
ENDBRANCH  22  25
ENDBRANCH   4  21
TORSDOF 4
ENDMDL
MODEL 5
REMARK VINA RESULT:      -8.4     11.830     14.223
REMARK  4 active torsions:
REMARK  status: ('A' for Active; 'I' for Inactive)
REMARK    1  A    between atoms: C_8  and  N_9 
REMARK       I    between atoms: N_9  and  C_10 
REMARK       I    between atoms: C_10  and  N_11 
REMARK    2  A    between atoms: N_11  and  C_12 
REMARK    3  A    between atoms: C_15  and  C_16 
REMARK       I    between atoms: C_16  and  N_17 
REMARK    4  A    between atoms: N_17  and  C_18 
ROOT
HETATM    1  C   UNL     1       4.701  26.926  52.739  1.00  0.00     0.036 A 
HETATM    2  C   UNL     1       4.662  25.534  52.846  1.00  0.00     0.030 A 
HETATM    3  C   UNL     1       5.557  24.858  53.684  1.00  0.00     0.019 A 
HETATM    4  C   UNL     1       6.513  25.571  54.412  1.00  0.00     0.032 A 
HETATM    5  C   UNL     1       6.525  26.967  54.346  1.00  0.00     0.019 A 
HETATM    6  C   UNL     1       5.626  27.640  53.511  1.00  0.00     0.030 A 
ENDROOT
BRANCH   1   7
HETATM    7  N   UNL     1       3.900  27.665  51.845  1.00  0.00    -0.309 N 
HETATM    8  C   UNL     1       4.046  27.772  50.469  1.00  0.00     0.325 C 
HETATM    9  N   UNL     1       3.295  28.836  49.998  1.00  0.00    -0.305 N 
HETATM   10  O   UNL     1       4.764  27.058  49.784  1.00  0.00    -0.247 OA
HETATM   11  H   UNL     1       3.068  29.546  50.676  1.00  0.00     0.171 HD
HETATM   12  H   UNL     1       3.075  28.097  52.233  1.00  0.00     0.170 HD
BRANCH   9  13
HETATM   13  C   UNL     1       3.147  29.211  48.673  1.00  0.00     0.086 A 
HETATM   14  C   UNL     1       2.238  28.591  47.835  1.00  0.00     0.052 A 
HETATM   15  C   UNL     1       1.255  27.505  48.052  1.00  0.00     0.072 C 
HETATM   16  N   UNL     1       2.355  29.222  46.629  1.00  0.00    -0.280 N 
HETATM   17  H   UNL     1       1.831  29.049  45.778  1.00  0.00     0.189 HD
HETATM   18  N   UNL     1       3.292  30.173  46.605  1.00  0.00    -0.177 NA
HETATM   19  C   UNL     1       3.792  30.180  47.849  1.00  0.00     0.079 A 
HETATM   20  C   UNL     1       4.910  31.109  48.153  1.00  0.00     0.075 C 
ENDBRANCH   9  13
ENDBRANCH   1   7
BRANCH   4  21
HETATM   21  C   UNL     1       7.544  24.891  55.242  1.00  0.00     0.252 C 
HETATM   22  N   UNL     1       7.895  23.619  54.838  1.00  0.00    -0.352 N 
HETATM   23  H   UNL     1       7.498  23.247  53.987  1.00  0.00     0.163 HD
HETATM   24  O   UNL     1       8.069  25.477  56.181  1.00  0.00    -0.268 OA
BRANCH  22  25
HETATM   25  C   UNL     1       8.942  22.851  55.501  1.00  0.00     0.084 C 
HETATM   26  C   UNL     1       8.372  21.966  56.618  1.00  0.00     0.025 C 
HETATM   27  C   UNL     1       7.556  20.793  56.078  1.00  0.00     0.002 C 
HETATM   28  C   UNL     1       8.355  19.966  55.077  1.00  0.00     0.000 C 
HETATM   29  C   UNL     1       8.908  20.826  53.945  1.00  0.00     0.002 C 
HETATM   30  C   UNL     1       9.719  22.008  54.478  1.00  0.00     0.025 C 
ENDBRANCH  22  25
ENDBRANCH   4  21
TORSDOF 4
ENDMDL
MODEL 6
REMARK VINA RESULT:      -8.2      1.554      2.580
REMARK  4 active torsions:
REMARK  status: ('A' for Active; 'I' for Inactive)
REMARK    1  A    between atoms: C_8  and  N_9 
REMARK       I    between atoms: N_9  and  C_10 
REMARK       I    between atoms: C_10  and  N_11 
REMARK    2  A    between atoms: N_11  and  C_12 
REMARK    3  A    between atoms: C_15  and  C_16 
REMARK       I    between atoms: C_16  and  N_17 
REMARK    4  A    between atoms: N_17  and  C_18 
ROOT
HETATM    1  C   UNL     1       6.023  33.453  63.640  1.00  0.00     0.036 A 
HETATM    2  C   UNL     1       7.134  33.640  64.467  1.00  0.00     0.030 A 
HETATM    3  C   UNL     1       6.969  33.901  65.832  1.00  0.00     0.019 A 
HETATM    4  C   UNL     1       5.687  33.993  66.381  1.00  0.00     0.032 A 
HETATM    5  C   UNL     1       4.574  33.758  65.568  1.00  0.00     0.019 A 
HETATM    6  C   UNL     1       4.743  33.493  64.205  1.00  0.00     0.030 A 
ENDROOT
BRANCH   1   7
HETATM    7  N   UNL     1       6.107  33.284  62.243  1.00  0.00    -0.309 N 
HETATM    8  C   UNL     1       6.640  32.203  61.553  1.00  0.00     0.325 C 
HETATM    9  N   UNL     1       6.850  32.550  60.229  1.00  0.00    -0.305 N 
HETATM   10  O   UNL     1       6.920  31.123  62.053  1.00  0.00    -0.247 OA
HETATM   11  H   UNL     1       6.938  33.536  60.042  1.00  0.00     0.171 HD
HETATM   12  H   UNL     1       5.653  33.983  61.678  1.00  0.00     0.170 HD
BRANCH   9  13
HETATM   13  C   UNL     1       7.313  31.712  59.227  1.00  0.00     0.086 A 
HETATM   14  C   UNL     1       6.451  31.035  58.384  1.00  0.00     0.052 A 
HETATM   15  C   UNL     1       4.975  31.004  58.275  1.00  0.00     0.072 C 
HETATM   16  N   UNL     1       7.248  30.331  57.527  1.00  0.00    -0.280 N 
HETATM   17  H   UNL     1       6.966  29.733  56.757  1.00  0.00     0.189 HD
HETATM   18  N   UNL     1       8.555  30.466  57.768  1.00  0.00    -0.177 NA
HETATM   19  C   UNL     1       8.615  31.307  58.810  1.00  0.00     0.079 A 
HETATM   20  C   UNL     1       9.951  31.636  59.372  1.00  0.00     0.075 C 
ENDBRANCH   9  13
ENDBRANCH   1   7
BRANCH   4  21
HETATM   21  C   UNL     1       5.461  34.361  67.805  1.00  0.00     0.252 C 
HETATM   22  N   UNL     1       6.568  34.821  68.488  1.00  0.00    -0.352 N 
HETATM   23  H   UNL     1       7.437  34.946  67.988  1.00  0.00     0.163 HD
HETATM   24  O   UNL     1       4.337  34.302  68.289  1.00  0.00    -0.268 OA
BRANCH  22  25
HETATM   25  C   UNL     1       6.495  35.290  69.867  1.00  0.00     0.084 C 
HETATM   26  C   UNL     1       5.983  34.194  70.811  1.00  0.00     0.025 C 
HETATM   27  C   UNL     1       7.004  33.077  71.020  1.00  0.00     0.002 C 
HETATM   28  C   UNL     1       8.347  33.623  71.492  1.00  0.00     0.000 C 
HETATM   29  C   UNL     1       8.882  34.697  70.550  1.00  0.00     0.002 C 
HETATM   30  C   UNL     1       7.863  35.815  70.330  1.00  0.00     0.025 C 
ENDBRANCH  22  25
ENDBRANCH   4  21
TORSDOF 4
ENDMDL
MODEL 7
REMARK VINA RESULT:      -8.0      3.892      6.766
REMARK  4 active torsions:
REMARK  status: ('A' for Active; 'I' for Inactive)
REMARK    1  A    between atoms: C_8  and  N_9 
REMARK       I    between atoms: N_9  and  C_10 
REMARK       I    between atoms: C_10  and  N_11 
REMARK    2  A    between atoms: N_11  and  C_12 
REMARK    3  A    between atoms: C_15  and  C_16 
REMARK       I    between atoms: C_16  and  N_17 
REMARK    4  A    between atoms: N_17  and  C_18 
ROOT
HETATM    1  C   UNL     1       6.975  29.172  57.380  1.00  0.00     0.036 A 
HETATM    2  C   UNL     1       6.151  30.297  57.448  1.00  0.00     0.030 A 
HETATM    3  C   UNL     1       6.446  31.344  58.329  1.00  0.00     0.019 A 
HETATM    4  C   UNL     1       7.563  31.265  59.166  1.00  0.00     0.032 A 
HETATM    5  C   UNL     1       8.417  30.163  59.068  1.00  0.00     0.019 A 
HETATM    6  C   UNL     1       8.122  29.121  58.182  1.00  0.00     0.030 A 
ENDROOT
BRANCH   1   7
HETATM    7  N   UNL     1       6.690  28.039  56.590  1.00  0.00    -0.309 N 
HETATM    8  C   UNL     1       7.182  27.746  55.326  1.00  0.00     0.325 C 
HETATM    9  N   UNL     1       6.422  26.742  54.749  1.00  0.00    -0.305 N 
HETATM   10  O   UNL     1       8.118  28.319  54.788  1.00  0.00    -0.247 OA
HETATM   11  H   UNL     1       5.491  26.630  55.116  1.00  0.00     0.171 HD
HETATM   12  H   UNL     1       6.136  27.317  57.023  1.00  0.00     0.170 HD
BRANCH   9  13
HETATM   13  C   UNL     1       6.650  26.147  53.518  1.00  0.00     0.086 A 
HETATM   14  C   UNL     1       6.133  26.670  52.347  1.00  0.00     0.052 A 
HETATM   15  C   UNL     1       5.309  27.868  52.063  1.00  0.00     0.072 C 
HETATM   16  N   UNL     1       6.568  25.846  51.349  1.00  0.00    -0.280 N 
HETATM   17  H   UNL     1       6.402  25.928  50.351  1.00  0.00     0.189 HD
HETATM   18  N   UNL     1       7.295  24.811  51.779  1.00  0.00    -0.177 NA
HETATM   19  C   UNL     1       7.353  24.976  53.109  1.00  0.00     0.079 A 
HETATM   20  C   UNL     1       8.062  23.949  53.914  1.00  0.00     0.075 C 
ENDBRANCH   9  13
ENDBRANCH   1   7
BRANCH   4  21
HETATM   21  C   UNL     1       7.864  32.308  60.184  1.00  0.00     0.252 C 
HETATM   22  N   UNL     1       6.825  32.634  61.032  1.00  0.00    -0.352 N 
HETATM   23  H   UNL     1       5.958  32.120  60.968  1.00  0.00     0.163 HD
HETATM   24  O   UNL     1       8.990  32.781  60.273  1.00  0.00    -0.268 OA
BRANCH  22  25
HETATM   25  C   UNL     1       6.982  33.582  62.129  1.00  0.00     0.084 C 
HETATM   26  C   UNL     1       6.002  34.757  62.004  1.00  0.00     0.025 C 
HETATM   27  C   UNL     1       4.557  34.348  62.282  1.00  0.00     0.002 C 
HETATM   28  C   UNL     1       4.417  33.658  63.635  1.00  0.00     0.000 C 
HETATM   29  C   UNL     1       5.367  32.471  63.765  1.00  0.00     0.002 C 
HETATM   30  C   UNL     1       6.814  32.872  63.481  1.00  0.00     0.025 C 
ENDBRANCH  22  25
ENDBRANCH   4  21
TORSDOF 4
ENDMDL
MODEL 8
REMARK VINA RESULT:      -7.9      5.562     12.339
REMARK  4 active torsions:
REMARK  status: ('A' for Active; 'I' for Inactive)
REMARK    1  A    between atoms: C_8  and  N_9 
REMARK       I    between atoms: N_9  and  C_10 
REMARK       I    between atoms: C_10  and  N_11 
REMARK    2  A    between atoms: N_11  and  C_12 
REMARK    3  A    between atoms: C_15  and  C_16 
REMARK       I    between atoms: C_16  and  N_17 
REMARK    4  A    between atoms: N_17  and  C_18 
ROOT
HETATM    1  C   UNL     1       7.041  28.286  56.456  1.00  0.00     0.036 A 
HETATM    2  C   UNL     1       6.869  27.081  57.141  1.00  0.00     0.030 A 
HETATM    3  C   UNL     1       6.977  25.857  56.470  1.00  0.00     0.019 A 
HETATM    4  C   UNL     1       7.243  25.829  55.098  1.00  0.00     0.032 A 
HETATM    5  C   UNL     1       7.463  27.029  54.417  1.00  0.00     0.019 A 
HETATM    6  C   UNL     1       7.359  28.250  55.092  1.00  0.00     0.030 A 
ENDROOT
BRANCH   1   7
HETATM    7  N   UNL     1       6.852  29.553  57.042  1.00  0.00    -0.309 N 
HETATM    8  C   UNL     1       7.289  29.983  58.287  1.00  0.00     0.325 C 
HETATM    9  N   UNL     1       6.629  31.147  58.641  1.00  0.00    -0.305 N 
HETATM   10  O   UNL     1       8.105  29.395  58.983  1.00  0.00    -0.247 OA
HETATM   11  H   UNL     1       5.747  31.308  58.181  1.00  0.00     0.171 HD
HETATM   12  H   UNL     1       6.427  30.259  56.460  1.00  0.00     0.170 HD
BRANCH   9  13
HETATM   13  C   UNL     1       6.847  31.897  59.785  1.00  0.00     0.086 A 
HETATM   14  C   UNL     1       5.803  32.404  60.537  1.00  0.00     0.052 A 
HETATM   15  C   UNL     1       4.331  32.308  60.400  1.00  0.00     0.072 C 
HETATM   16  N   UNL     1       6.384  33.064  61.582  1.00  0.00    -0.280 N 
HETATM   17  H   UNL     1       5.929  33.545  62.350  1.00  0.00     0.189 HD
HETATM   18  N   UNL     1       7.719  33.058  61.550  1.00  0.00    -0.177 NA
HETATM   19  C   UNL     1       8.023  32.350  60.452  1.00  0.00     0.079 A 
HETATM   20  C   UNL     1       9.455  32.192  60.091  1.00  0.00     0.075 C 
ENDBRANCH   9  13
ENDBRANCH   1   7
BRANCH   4  21
HETATM   21  C   UNL     1       7.273  24.558  54.324  1.00  0.00     0.252 C 
HETATM   22  N   UNL     1       7.567  23.422  55.051  1.00  0.00    -0.352 N 
HETATM   23  H   UNL     1       7.677  23.493  56.052  1.00  0.00     0.163 HD
HETATM   24  O   UNL     1       6.992  24.552  53.132  1.00  0.00    -0.268 OA
BRANCH  22  25
HETATM   25  C   UNL     1       7.563  22.091  54.453  1.00  0.00     0.084 C 
HETATM   26  C   UNL     1       8.919  21.753  53.819  1.00  0.00     0.025 C 
HETATM   27  C   UNL     1      10.010  21.515  54.861  1.00  0.00     0.002 C 
HETATM   28  C   UNL     1       9.598  20.453  55.875  1.00  0.00     0.000 C 
HETATM   29  C   UNL     1       8.264  20.788  56.533  1.00  0.00     0.002 C 
HETATM   30  C   UNL     1       7.168  21.035  55.496  1.00  0.00     0.025 C 
ENDBRANCH  22  25
ENDBRANCH   4  21
TORSDOF 4
ENDMDL
MODEL 9
REMARK VINA RESULT:      -7.7      4.399      7.470
REMARK  4 active torsions:
REMARK  status: ('A' for Active; 'I' for Inactive)
REMARK    1  A    between atoms: C_8  and  N_9 
REMARK       I    between atoms: N_9  and  C_10 
REMARK       I    between atoms: C_10  and  N_11 
REMARK    2  A    between atoms: N_11  and  C_12 
REMARK    3  A    between atoms: C_15  and  C_16 
REMARK       I    between atoms: C_16  and  N_17 
REMARK    4  A    between atoms: N_17  and  C_18 
ROOT
HETATM    1  C   UNL     1       7.495  29.448  56.337  1.00  0.00     0.036 A 
HETATM    2  C   UNL     1       8.571  29.112  57.163  1.00  0.00     0.030 A 
HETATM    3  C   UNL     1       8.673  29.646  58.453  1.00  0.00     0.019 A 
HETATM    4  C   UNL     1       7.704  30.536  58.924  1.00  0.00     0.032 A 
HETATM    5  C   UNL     1       6.601  30.838  58.121  1.00  0.00     0.019 A 
HETATM    6  C   UNL     1       6.500  30.300  56.834  1.00  0.00     0.030 A 
ENDROOT
BRANCH   1   7
HETATM    7  N   UNL     1       7.377  29.030  54.997  1.00  0.00    -0.309 N 
HETATM    8  C   UNL     1       6.334  28.315  54.424  1.00  0.00     0.325 C 
HETATM    9  N   UNL     1       6.731  27.807  53.198  1.00  0.00    -0.305 N 
HETATM   10  O   UNL     1       5.244  28.128  54.945  1.00  0.00    -0.247 OA
HETATM   11  H   UNL     1       7.725  27.708  53.065  1.00  0.00     0.171 HD
HETATM   12  H   UNL     1       8.085  29.358  54.359  1.00  0.00     0.170 HD
BRANCH   9  13
HETATM   13  C   UNL     1       5.939  27.093  52.313  1.00  0.00     0.086 A 
HETATM   14  C   UNL     1       5.621  25.765  52.525  1.00  0.00     0.052 A 
HETATM   15  C   UNL     1       5.949  24.818  53.615  1.00  0.00     0.072 C 
HETATM   16  N   UNL     1       4.826  25.401  51.476  1.00  0.00    -0.280 N 
HETATM   17  H   UNL     1       4.385  24.504  51.304  1.00  0.00     0.189 HD
HETATM   18  N   UNL     1       4.634  26.374  50.581  1.00  0.00    -0.177 NA
HETATM   19  C   UNL     1       5.312  27.420  51.074  1.00  0.00     0.079 A 
HETATM   20  C   UNL     1       5.345  28.675  50.281  1.00  0.00     0.075 C 
ENDBRANCH   9  13
ENDBRANCH   1   7
BRANCH   4  21
HETATM   21  C   UNL     1       7.819  31.200  60.251  1.00  0.00     0.252 C 
HETATM   22  N   UNL     1       6.626  31.565  60.843  1.00  0.00    -0.352 N 
HETATM   23  H   UNL     1       5.757  31.311  60.394  1.00  0.00     0.163 HD
HETATM   24  O   UNL     1       8.914  31.344  60.780  1.00  0.00    -0.268 OA
BRANCH  22  25
HETATM   25  C   UNL     1       6.565  32.157  62.174  1.00  0.00     0.084 C 
HETATM   26  C   UNL     1       6.678  33.687  62.117  1.00  0.00     0.025 C 
HETATM   27  C   UNL     1       5.429  34.345  61.533  1.00  0.00     0.002 C 
HETATM   28  C   UNL     1       4.168  33.915  62.274  1.00  0.00     0.000 C 
HETATM   29  C   UNL     1       4.028  32.397  62.318  1.00  0.00     0.002 C 
HETATM   30  C   UNL     1       5.277  31.731  62.894  1.00  0.00     0.025 C 
ENDBRANCH  22  25
ENDBRANCH   4  21
TORSDOF 4
ENDMDL
MODEL 10
REMARK VINA RESULT:      -7.6      4.432      7.335
REMARK  4 active torsions:
REMARK  status: ('A' for Active; 'I' for Inactive)
REMARK    1  A    between atoms: C_8  and  N_9 
REMARK       I    between atoms: N_9  and  C_10 
REMARK       I    between atoms: C_10  and  N_11 
REMARK    2  A    between atoms: N_11  and  C_12 
REMARK    3  A    between atoms: C_15  and  C_16 
REMARK       I    between atoms: C_16  and  N_17 
REMARK    4  A    between atoms: N_17  and  C_18 
ROOT
HETATM    1  C   UNL     1       5.673  29.076  56.226  1.00  0.00     0.036 A 
HETATM    2  C   UNL     1       4.306  29.361  56.195  1.00  0.00     0.030 A 
HETATM    3  C   UNL     1       3.764  30.345  57.030  1.00  0.00     0.019 A 
HETATM    4  C   UNL     1       4.586  31.044  57.918  1.00  0.00     0.032 A 
HETATM    5  C   UNL     1       5.962  30.797  57.919  1.00  0.00     0.019 A 
HETATM    6  C   UNL     1       6.500  29.816  57.079  1.00  0.00     0.030 A 
ENDROOT
BRANCH   1   7
HETATM    7  N   UNL     1       6.272  28.036  55.487  1.00  0.00    -0.309 N 
HETATM    8  C   UNL     1       6.420  26.708  55.865  1.00  0.00     0.325 C 
HETATM    9  N   UNL     1       7.343  26.086  55.041  1.00  0.00    -0.305 N 
HETATM   10  O   UNL     1       5.851  26.182  56.810  1.00  0.00    -0.247 OA
HETATM   11  H   UNL     1       7.994  26.696  54.573  1.00  0.00     0.171 HD
HETATM   12  H   UNL     1       6.549  28.256  54.543  1.00  0.00     0.170 HD
BRANCH   9  13
HETATM   13  C   UNL     1       7.703  24.748  55.078  1.00  0.00     0.086 A 
HETATM   14  C   UNL     1       7.351  23.869  54.071  1.00  0.00     0.052 A 
HETATM   15  C   UNL     1       6.606  24.044  52.802  1.00  0.00     0.072 C 
HETATM   16  N   UNL     1       7.881  22.662  54.430  1.00  0.00    -0.280 N 
HETATM   17  H   UNL     1       7.843  21.785  53.923  1.00  0.00     0.189 HD
HETATM   18  N   UNL     1       8.516  22.679  55.605  1.00  0.00    -0.177 NA
HETATM   19  C   UNL     1       8.415  23.950  56.020  1.00  0.00     0.079 A 
HETATM   20  C   UNL     1       8.986  24.304  57.345  1.00  0.00     0.075 C 
ENDBRANCH   9  13
ENDBRANCH   1   7
BRANCH   4  21
HETATM   21  C   UNL     1       4.042  32.031  58.890  1.00  0.00     0.252 C 
HETATM   22  N   UNL     1       4.654  32.053  60.126  1.00  0.00    -0.352 N 
HETATM   23  H   UNL     1       5.460  31.465  60.287  1.00  0.00     0.163 HD
HETATM   24  O   UNL     1       3.147  32.799  58.558  1.00  0.00    -0.268 OA
BRANCH  22  25
HETATM   25  C   UNL     1       4.287  33.013  61.161  1.00  0.00     0.084 C 
HETATM   26  C   UNL     1       4.064  32.326  62.515  1.00  0.00     0.025 C 
HETATM   27  C   UNL     1       5.366  31.826  63.140  1.00  0.00     0.002 C 
HETATM   28  C   UNL     1       6.400  32.941  63.254  1.00  0.00     0.000 C 
HETATM   29  C   UNL     1       6.651  33.618  61.911  1.00  0.00     0.002 C 
HETATM   30  C   UNL     1       5.352  34.114  61.276  1.00  0.00     0.025 C 
ENDBRANCH  22  25
ENDBRANCH   4  21
TORSDOF 4
ENDMDL
