MODEL 1
REMARK VINA RESULT:     -10.1      0.000      0.000
REMARK  5 active torsions:
REMARK  status: ('A' for Active; 'I' for Inactive)
REMARK    1  A    between atoms: C_4  and  C_5 
REMARK    2  A    between atoms: C_10  and  C_11 
REMARK    3  A    between atoms: C_11  and  N_12 
REMARK    4  A    between atoms: N_12  and  C_14 
REMARK    5  A    between atoms: N_17  and  C_18 
ROOT
HETATM    1  N   UNL     1       6.213  26.606  54.676  1.00  0.00    -0.067 N 
HETATM    2  H   UNL     1       6.769  27.121  55.377  1.00  0.00     0.280 HD
HETATM    3  C   UNL     1       4.810  27.104  54.848  1.00  0.00     0.270 C 
ENDROOT
BRANCH   1   4
HETATM    4  C   UNL     1       6.333  25.165  55.171  1.00  0.00     0.277 C 
BRANCH   4   5
HETATM    5  C   UNL     1       7.222  25.007  56.343  1.00  0.00     0.016 A 
HETATM    6  C   UNL     1       7.956  23.896  56.741  1.00  0.00     0.069 A 
HETATM    7  N   UNL     1       8.606  24.282  57.891  1.00  0.00    -0.277 N 
HETATM    8  H   UNL     1       9.267  23.746  58.448  1.00  0.00     0.189 HD
HETATM    9  N   UNL     1       8.298  25.526  58.284  1.00  0.00    -0.186 NA
HETATM   10  C   UNL     1       7.505  25.985  57.323  1.00  0.00     0.149 A 
BRANCH   6  11
HETATM   11  C   UNL     1       8.140  22.574  56.151  1.00  0.00    -0.007 A 
HETATM   12  C   UNL     1       8.044  22.396  54.763  1.00  0.00     0.020 A 
HETATM   13  C   UNL     1       8.188  21.125  54.190  1.00  0.00    -0.061 A 
HETATM   14  C   UNL     1       8.067  20.935  52.705  1.00  0.00     0.048 C 
HETATM   15  C   UNL     1       8.474  20.032  55.015  1.00  0.00     0.007 A 
HETATM   16  C   UNL     1       8.569  20.198  56.396  1.00  0.00     0.001 A 
HETATM   17  C   UNL     1       8.392  21.461  56.962  1.00  0.00     0.014 A 
ENDBRANCH   6  11
ENDBRANCH   4   5
ENDBRANCH   1   4
BRANCH   1  18
HETATM   18  C   UNL     1       6.913  26.891  53.336  1.00  0.00     0.190 C 
HETATM   19  C   UNL     1       6.817  25.753  52.314  1.00  0.00     0.048 C 
HETATM   20  C   UNL     1       5.628  25.848  51.366  1.00  0.00     0.099 C 
HETATM   21  N   UNL     1       5.599  27.186  50.770  1.00  0.00    -0.268 NA
HETATM   22  C   UNL     1       5.402  28.267  51.744  1.00  0.00     0.099 C 
HETATM   23  C   UNL     1       6.542  28.268  52.765  1.00  0.00     0.048 C 
BRANCH  21  24
HETATM   24  C   UNL     1       4.804  27.297  49.615  1.00  0.00     0.109 A 
HETATM   25  N   UNL     1       4.649  28.496  49.023  1.00  0.00    -0.224 NA
HETATM   26  C   UNL     1       3.927  28.557  47.876  1.00  0.00     0.102 A 
HETATM   27  C   UNL     1       3.772  29.881  47.196  1.00  0.00     0.091 C 
HETATM   28  N   UNL     1       3.356  27.487  47.309  1.00  0.00    -0.348 N 
HETATM   29  H   UNL     1       2.832  27.602  46.443  1.00  0.00     0.167 HD
HETATM   30  C   UNL     1       3.489  26.278  47.873  1.00  0.00     0.009 A 
HETATM   31  C   UNL     1       2.845  25.097  47.222  1.00  0.00     0.068 C 
HETATM   32  C   UNL     1       4.233  26.161  49.048  1.00  0.00     0.069 A 
ENDBRANCH  21  24
ENDBRANCH   1  18
TORSDOF 5
ENDMDL
MODEL 2
REMARK VINA RESULT:      -9.9      4.328      8.157
REMARK  5 active torsions:
REMARK  status: ('A' for Active; 'I' for Inactive)
REMARK    1  A    between atoms: C_4  and  C_5 
REMARK    2  A    between atoms: C_10  and  C_11 
REMARK    3  A    between atoms: C_11  and  N_12 
REMARK    4  A    between atoms: N_12  and  C_14 
REMARK    5  A    between atoms: N_17  and  C_18 
ROOT
HETATM    1  N   UNL     1       7.676  26.978  56.051  1.00  0.00    -0.067 N 
HETATM    2  H   UNL     1       8.365  26.544  55.417  1.00  0.00     0.280 HD
HETATM    3  C   UNL     1       7.931  26.355  57.391  1.00  0.00     0.270 C 
ENDROOT
BRANCH   1   4
HETATM    4  C   UNL     1       6.352  26.477  55.474  1.00  0.00     0.277 C 
BRANCH   4   5
HETATM    5  C   UNL     1       6.414  26.150  54.032  1.00  0.00     0.016 A 
HETATM    6  C   UNL     1       6.808  24.966  53.420  1.00  0.00     0.069 A 
HETATM    7  N   UNL     1       6.681  25.196  52.069  1.00  0.00    -0.277 N 
HETATM    8  H   UNL     1       6.840  24.545  51.304  1.00  0.00     0.189 HD
HETATM    9  N   UNL     1       6.294  26.445  51.775  1.00  0.00    -0.186 NA
HETATM   10  C   UNL     1       6.081  27.008  52.959  1.00  0.00     0.149 A 
BRANCH   6  11
HETATM   11  C   UNL     1       7.231  23.675  53.952  1.00  0.00    -0.007 A 
HETATM   12  C   UNL     1       7.674  22.662  53.089  1.00  0.00     0.020 A 
HETATM   13  C   UNL     1       8.052  21.408  53.589  1.00  0.00    -0.061 A 
HETATM   14  C   UNL     1       8.509  20.319  52.660  1.00  0.00     0.048 C 
HETATM   15  C   UNL     1       8.026  21.186  54.970  1.00  0.00     0.007 A 
HETATM   16  C   UNL     1       7.586  22.186  55.835  1.00  0.00     0.001 A 
HETATM   17  C   UNL     1       7.180  23.421  55.328  1.00  0.00     0.014 A 
ENDBRANCH   6  11
ENDBRANCH   4   5
ENDBRANCH   1   4
BRANCH   1  18
HETATM   18  C   UNL     1       7.913  28.491  55.910  1.00  0.00     0.190 C 
HETATM   19  C   UNL     1       6.639  29.342  55.962  1.00  0.00     0.048 C 
HETATM   20  C   UNL     1       6.260  29.838  57.351  1.00  0.00     0.099 C 
HETATM   21  N   UNL     1       7.427  30.479  57.963  1.00  0.00    -0.268 NA
HETATM   22  C   UNL     1       8.562  29.571  58.174  1.00  0.00     0.099 C 
HETATM   23  C   UNL     1       9.030  28.996  56.835  1.00  0.00     0.048 C 
BRANCH  21  24
HETATM   24  C   UNL     1       7.134  31.303  59.064  1.00  0.00     0.109 A 
HETATM   25  N   UNL     1       6.052  32.102  59.032  1.00  0.00    -0.224 NA
HETATM   26  C   UNL     1       5.763  32.838  60.134  1.00  0.00     0.102 A 
HETATM   27  C   UNL     1       4.547  33.709  60.118  1.00  0.00     0.091 C 
HETATM   28  N   UNL     1       6.506  32.816  61.248  1.00  0.00    -0.348 N 
HETATM   29  H   UNL     1       6.229  33.389  62.043  1.00  0.00     0.167 HD
HETATM   30  C   UNL     1       7.592  32.032  61.314  1.00  0.00     0.009 A 
HETATM   31  C   UNL     1       8.406  32.021  62.568  1.00  0.00     0.068 C 
HETATM   32  C   UNL     1       7.924  31.246  60.209  1.00  0.00     0.069 A 
ENDBRANCH  21  24
ENDBRANCH   1  18
TORSDOF 5
ENDMDL
MODEL 3
REMARK VINA RESULT:      -9.9      4.036      7.959
REMARK  5 active torsions:
REMARK  status: ('A' for Active; 'I' for Inactive)
REMARK    1  A    between atoms: C_4  and  C_5 
REMARK    2  A    between atoms: C_10  and  C_11 
REMARK    3  A    between atoms: C_11  and  N_12 
REMARK    4  A    between atoms: N_12  and  C_14 
REMARK    5  A    between atoms: N_17  and  C_18 
ROOT
HETATM    1  N   UNL     1       7.541  26.252  56.167  1.00  0.00    -0.067 N 
HETATM    2  H   UNL     1       8.384  25.842  55.733  1.00  0.00     0.280 HD
HETATM    3  C   UNL     1       7.615  25.861  57.612  1.00  0.00     0.270 C 
ENDROOT
BRANCH   1   4
HETATM    4  C   UNL     1       6.418  25.488  55.464  1.00  0.00     0.277 C 
BRANCH   4   5
HETATM    5  C   UNL     1       6.639  25.303  54.013  1.00  0.00     0.016 A 
HETATM    6  C   UNL     1       7.137  24.195  53.338  1.00  0.00     0.069 A 
HETATM    7  N   UNL     1       7.138  24.549  52.008  1.00  0.00    -0.277 N 
HETATM    8  H   UNL     1       7.399  23.979  51.207  1.00  0.00     0.189 HD
HETATM    9  N   UNL     1       6.736  25.809  51.793  1.00  0.00    -0.186 NA
HETATM   10  C   UNL     1       6.383  26.250  52.995  1.00  0.00     0.149 A 
BRANCH   6  11
HETATM   11  C   UNL     1       7.553  22.871  53.790  1.00  0.00    -0.007 A 
HETATM   12  C   UNL     1       7.715  22.606  55.157  1.00  0.00     0.020 A 
HETATM   13  C   UNL     1       8.145  21.346  55.598  1.00  0.00    -0.061 A 
HETATM   14  C   UNL     1       8.334  21.071  57.063  1.00  0.00     0.048 C 
HETATM   15  C   UNL     1       8.371  20.334  54.660  1.00  0.00     0.007 A 
HETATM   16  C   UNL     1       8.215  20.588  53.298  1.00  0.00     0.001 A 
HETATM   17  C   UNL     1       7.818  21.854  52.864  1.00  0.00     0.014 A 
ENDBRANCH   6  11
ENDBRANCH   4   5
ENDBRANCH   1   4
BRANCH   1  18
HETATM   18  C   UNL     1       7.616  27.750  55.827  1.00  0.00     0.190 C 
HETATM   19  C   UNL     1       6.302  28.514  56.026  1.00  0.00     0.048 C 
HETATM   20  C   UNL     1       6.135  29.145  57.402  1.00  0.00     0.099 C 
HETATM   21  N   UNL     1       7.332  29.930  57.716  1.00  0.00    -0.268 NA
HETATM   22  C   UNL     1       8.561  29.131  57.805  1.00  0.00     0.099 C 
HETATM   23  C   UNL     1       8.832  28.434  56.470  1.00  0.00     0.048 C 
BRANCH  21  24
HETATM   24  C   UNL     1       7.168  30.857  58.760  1.00  0.00     0.109 A 
HETATM   25  N   UNL     1       6.085  31.655  58.782  1.00  0.00    -0.224 NA
HETATM   26  C   UNL     1       5.927  32.495  59.836  1.00  0.00     0.102 A 
HETATM   27  C   UNL     1       4.711  33.367  59.883  1.00  0.00     0.091 C 
HETATM   28  N   UNL     1       6.798  32.575  60.849  1.00  0.00    -0.348 N 
HETATM   29  H   UNL     1       6.616  33.224  61.614  1.00  0.00     0.167 HD
HETATM   30  C   UNL     1       7.890  31.796  60.858  1.00  0.00     0.009 A 
HETATM   31  C   UNL     1       8.849  31.900  62.000  1.00  0.00     0.068 C 
HETATM   32  C   UNL     1       8.091  30.906  59.802  1.00  0.00     0.069 A 
ENDBRANCH  21  24
ENDBRANCH   1  18
TORSDOF 5
ENDMDL
MODEL 4
REMARK VINA RESULT:      -9.8      3.560      6.461
REMARK  5 active torsions:
REMARK  status: ('A' for Active; 'I' for Inactive)
REMARK    1  A    between atoms: C_4  and  C_5 
REMARK    2  A    between atoms: C_10  and  C_11 
REMARK    3  A    between atoms: C_11  and  N_12 
REMARK    4  A    between atoms: N_12  and  C_14 
REMARK    5  A    between atoms: N_17  and  C_18 
ROOT
HETATM    1  N   UNL     1       6.023  25.815  54.391  1.00  0.00    -0.067 N 
HETATM    2  H   UNL     1       5.615  25.618  55.318  1.00  0.00     0.280 HD
HETATM    3  C   UNL     1       5.377  24.831  53.463  1.00  0.00     0.270 C 
ENDROOT
BRANCH   1   4
HETATM    4  C   UNL     1       7.494  25.458  54.607  1.00  0.00     0.277 C 
BRANCH   4   5
HETATM    5  C   UNL     1       7.832  25.144  56.013  1.00  0.00     0.016 A 
HETATM    6  C   UNL     1       8.121  23.913  56.590  1.00  0.00     0.069 A 
HETATM    7  N   UNL     1       8.361  24.181  57.918  1.00  0.00    -0.277 N 
HETATM    8  H   UNL     1       8.644  23.531  58.648  1.00  0.00     0.189 HD
HETATM    9  N   UNL     1       8.192  25.471  58.240  1.00  0.00    -0.186 NA
HETATM   10  C   UNL     1       7.924  26.064  57.082  1.00  0.00     0.149 A 
BRANCH   6  11
HETATM   11  C   UNL     1       8.236  22.568  56.035  1.00  0.00    -0.007 A 
HETATM   12  C   UNL     1       8.098  22.355  54.656  1.00  0.00     0.020 A 
HETATM   13  C   UNL     1       8.175  21.062  54.118  1.00  0.00    -0.061 A 
HETATM   14  C   UNL     1       8.009  20.835  52.642  1.00  0.00     0.048 C 
HETATM   15  C   UNL     1       8.438  19.983  54.968  1.00  0.00     0.007 A 
HETATM   16  C   UNL     1       8.575  20.185  56.340  1.00  0.00     0.001 A 
HETATM   17  C   UNL     1       8.464  21.470  56.873  1.00  0.00     0.014 A 
ENDBRANCH   6  11
ENDBRANCH   4   5
ENDBRANCH   1   4
BRANCH   1  18
HETATM   18  C   UNL     1       5.748  27.309  54.151  1.00  0.00     0.190 C 
HETATM   19  C   UNL     1       4.608  27.889  54.996  1.00  0.00     0.048 C 
HETATM   20  C   UNL     1       5.043  28.493  56.325  1.00  0.00     0.099 C 
HETATM   21  N   UNL     1       6.141  29.433  56.084  1.00  0.00    -0.268 NA
HETATM   22  C   UNL     1       7.350  28.808  55.531  1.00  0.00     0.099 C 
HETATM   23  C   UNL     1       7.032  28.152  54.185  1.00  0.00     0.048 C 
BRANCH  21  24
HETATM   24  C   UNL     1       6.387  30.332  57.138  1.00  0.00     0.109 A 
HETATM   25  N   UNL     1       5.604  31.416  57.287  1.00  0.00    -0.224 NA
HETATM   26  C   UNL     1       5.829  32.229  58.350  1.00  0.00     0.102 A 
HETATM   27  C   UNL     1       4.947  33.423  58.540  1.00  0.00     0.091 C 
HETATM   28  N   UNL     1       6.795  32.010  59.251  1.00  0.00    -0.348 N 
HETATM   29  H   UNL     1       6.906  32.658  60.030  1.00  0.00     0.167 HD
HETATM   30  C   UNL     1       7.594  30.940  59.132  1.00  0.00     0.009 A 
HETATM   31  C   UNL     1       8.664  30.714  60.150  1.00  0.00     0.068 C 
HETATM   32  C   UNL     1       7.394  30.067  58.061  1.00  0.00     0.069 A 
ENDBRANCH  21  24
ENDBRANCH   1  18
TORSDOF 5
ENDMDL
MODEL 5
REMARK VINA RESULT:      -9.7      1.128      2.205
REMARK  5 active torsions:
REMARK  status: ('A' for Active; 'I' for Inactive)
REMARK    1  A    between atoms: C_4  and  C_5 
REMARK    2  A    between atoms: C_10  and  C_11 
REMARK    3  A    between atoms: C_11  and  N_12 
REMARK    4  A    between atoms: N_12  and  C_14 
REMARK    5  A    between atoms: N_17  and  C_18 
ROOT
HETATM    1  N   UNL     1       5.699  27.728  54.508  1.00  0.00    -0.067 N 
HETATM    2  H   UNL     1       6.339  28.210  55.160  1.00  0.00     0.280 HD
HETATM    3  C   UNL     1       4.356  28.349  54.748  1.00  0.00     0.270 C 
ENDROOT
BRANCH   1   4
HETATM    4  C   UNL     1       5.726  26.294  55.037  1.00  0.00     0.277 C 
BRANCH   4   5
HETATM    5  C   UNL     1       6.811  26.036  56.009  1.00  0.00     0.016 A 
HETATM    6  C   UNL     1       7.653  24.934  56.107  1.00  0.00     0.069 A 
HETATM    7  N   UNL     1       8.474  25.199  57.181  1.00  0.00    -0.277 N 
HETATM    8  H   UNL     1       9.246  24.638  57.533  1.00  0.00     0.189 HD
HETATM    9  N   UNL     1       8.182  26.349  57.803  1.00  0.00    -0.186 NA
HETATM   10  C   UNL     1       7.214  26.882  57.067  1.00  0.00     0.149 A 
BRANCH   6  11
HETATM   11  C   UNL     1       7.794  23.726  55.301  1.00  0.00    -0.007 A 
HETATM   12  C   UNL     1       7.837  22.465  55.913  1.00  0.00     0.020 A 
HETATM   13  C   UNL     1       8.004  21.302  55.149  1.00  0.00    -0.061 A 
HETATM   14  C   UNL     1       8.068  19.954  55.809  1.00  0.00     0.048 C 
HETATM   15  C   UNL     1       8.083  21.405  53.756  1.00  0.00     0.007 A 
HETATM   16  C   UNL     1       8.043  22.654  53.138  1.00  0.00     0.001 A 
HETATM   17  C   UNL     1       7.909  23.810  53.908  1.00  0.00     0.014 A 
ENDBRANCH   6  11
ENDBRANCH   4   5
ENDBRANCH   1   4
BRANCH   1  18
HETATM   18  C   UNL     1       6.338  27.920  53.122  1.00  0.00     0.190 C 
HETATM   19  C   UNL     1       6.477  26.632  52.303  1.00  0.00     0.048 C 
HETATM   20  C   UNL     1       5.301  26.331  51.384  1.00  0.00     0.099 C 
HETATM   21  N   UNL     1       5.010  27.519  50.577  1.00  0.00    -0.268 NA
HETATM   22  C   UNL     1       4.594  28.687  51.366  1.00  0.00     0.099 C 
HETATM   23  C   UNL     1       5.704  29.082  52.343  1.00  0.00     0.048 C 
BRANCH  21  24
HETATM   24  C   UNL     1       4.217  27.278  49.441  1.00  0.00     0.109 A 
HETATM   25  N   UNL     1       3.961  26.012  49.061  1.00  0.00    -0.224 NA
HETATM   26  C   UNL     1       3.143  25.814  47.997  1.00  0.00     0.102 A 
HETATM   27  C   UNL     1       2.830  24.411  47.584  1.00  0.00     0.091 C 
HETATM   28  N   UNL     1       2.585  26.814  47.303  1.00  0.00    -0.348 N 
HETATM   29  H   UNL     1       1.974  26.595  46.517  1.00  0.00     0.167 HD
HETATM   30  C   UNL     1       2.820  28.087  47.653  1.00  0.00     0.009 A 
HETATM   31  C   UNL     1       2.186  29.187  46.865  1.00  0.00     0.068 C 
HETATM   32  C   UNL     1       3.647  28.342  48.749  1.00  0.00     0.069 A 
ENDBRANCH  21  24
ENDBRANCH   1  18
TORSDOF 5
ENDMDL
MODEL 6
REMARK VINA RESULT:      -9.6      4.160      8.651
REMARK  5 active torsions:
REMARK  status: ('A' for Active; 'I' for Inactive)
REMARK    1  A    between atoms: C_4  and  C_5 
REMARK    2  A    between atoms: C_10  and  C_11 
REMARK    3  A    between atoms: C_11  and  N_12 
REMARK    4  A    between atoms: N_12  and  C_14 
REMARK    5  A    between atoms: N_17  and  C_18 
ROOT
HETATM    1  N   UNL     1       6.485  28.783  56.031  1.00  0.00    -0.067 N 
HETATM    2  H   UNL     1       7.327  28.823  55.434  1.00  0.00     0.280 HD
HETATM    3  C   UNL     1       5.873  30.148  55.937  1.00  0.00     0.270 C 
ENDROOT
BRANCH   1   4
HETATM    4  C   UNL     1       7.089  28.564  57.418  1.00  0.00     0.277 C 
BRANCH   4   5
HETATM    5  C   UNL     1       8.414  29.197  57.601  1.00  0.00     0.016 A 
HETATM    6  C   UNL     1       8.767  30.268  58.413  1.00  0.00     0.069 A 
HETATM    7  N   UNL     1      10.115  30.453  58.205  1.00  0.00    -0.277 N 
HETATM    8  H   UNL     1      10.734  31.121  58.659  1.00  0.00     0.189 HD
HETATM    9  N   UNL     1      10.631  29.624  57.287  1.00  0.00    -0.186 NA
HETATM   10  C   UNL     1       9.618  28.830  56.958  1.00  0.00     0.149 A 
BRANCH   6  11
HETATM   11  C   UNL     1       8.009  31.076  59.363  1.00  0.00    -0.007 A 
HETATM   12  C   UNL     1       8.437  31.195  60.693  1.00  0.00     0.020 A 
HETATM   13  C   UNL     1       7.698  31.943  61.621  1.00  0.00    -0.061 A 
HETATM   14  C   UNL     1       8.149  32.055  63.049  1.00  0.00     0.048 C 
HETATM   15  C   UNL     1       6.544  32.611  61.196  1.00  0.00     0.007 A 
HETATM   16  C   UNL     1       6.110  32.497  59.876  1.00  0.00     0.001 A 
HETATM   17  C   UNL     1       6.833  31.724  58.967  1.00  0.00     0.014 A 
ENDBRANCH   6  11
ENDBRANCH   4   5
ENDBRANCH   1   4
BRANCH   1  18
HETATM   18  C   UNL     1       5.674  27.596  55.482  1.00  0.00     0.190 C 
HETATM   19  C   UNL     1       6.216  27.006  54.176  1.00  0.00     0.048 C 
HETATM   20  C   UNL     1       7.200  25.858  54.355  1.00  0.00     0.099 C 
HETATM   21  N   UNL     1       6.614  24.864  55.258  1.00  0.00    -0.268 NA
HETATM   22  C   UNL     1       6.360  25.368  56.613  1.00  0.00     0.099 C 
HETATM   23  C   UNL     1       5.380  26.543  56.561  1.00  0.00     0.048 C 
BRANCH  21  24
HETATM   24  C   UNL     1       7.229  23.600  55.218  1.00  0.00     0.109 A 
HETATM   25  N   UNL     1       7.623  23.012  56.362  1.00  0.00    -0.224 NA
HETATM   26  C   UNL     1       8.156  21.766  56.294  1.00  0.00     0.102 A 
HETATM   27  C   UNL     1       8.573  21.093  57.564  1.00  0.00     0.091 C 
HETATM   28  N   UNL     1       8.317  21.097  55.145  1.00  0.00    -0.348 N 
HETATM   29  H   UNL     1       8.719  20.161  55.165  1.00  0.00     0.167 HD
HETATM   30  C   UNL     1       7.937  21.654  53.986  1.00  0.00     0.009 A 
HETATM   31  C   UNL     1       8.123  20.889  52.716  1.00  0.00     0.068 C 
HETATM   32  C   UNL     1       7.372  22.930  54.006  1.00  0.00     0.069 A 
ENDBRANCH  21  24
ENDBRANCH   1  18
TORSDOF 5
ENDMDL
MODEL 7
REMARK VINA RESULT:      -9.5      4.562      8.080
REMARK  5 active torsions:
REMARK  status: ('A' for Active; 'I' for Inactive)
REMARK    1  A    between atoms: C_4  and  C_5 
REMARK    2  A    between atoms: C_10  and  C_11 
REMARK    3  A    between atoms: C_11  and  N_12 
REMARK    4  A    between atoms: N_12  and  C_14 
REMARK    5  A    between atoms: N_17  and  C_18 
ROOT
HETATM    1  N   UNL     1       6.182  27.913  55.578  1.00  0.00    -0.067 N 
HETATM    2  H   UNL     1       6.005  27.674  56.566  1.00  0.00     0.280 HD
HETATM    3  C   UNL     1       4.932  27.518  54.851  1.00  0.00     0.270 C 
ENDROOT
BRANCH   1   4
HETATM    4  C   UNL     1       7.328  26.966  55.222  1.00  0.00     0.277 C 
BRANCH   4   5
HETATM    5  C   UNL     1       7.704  26.044  56.317  1.00  0.00     0.016 A 
HETATM    6  C   UNL     1       7.948  24.677  56.264  1.00  0.00     0.069 A 
HETATM    7  N   UNL     1       8.254  24.312  57.555  1.00  0.00    -0.277 N 
HETATM    8  H   UNL     1       8.529  23.395  57.900  1.00  0.00     0.189 HD
HETATM    9  N   UNL     1       8.167  25.325  58.429  1.00  0.00    -0.186 NA
HETATM   10  C   UNL     1       7.887  26.382  57.677  1.00  0.00     0.149 A 
BRANCH   6  11
HETATM   11  C   UNL     1       7.969  23.721  55.161  1.00  0.00    -0.007 A 
HETATM   12  C   UNL     1       8.248  22.368  55.399  1.00  0.00     0.020 A 
HETATM   13  C   UNL     1       8.301  21.449  54.342  1.00  0.00    -0.061 A 
HETATM   14  C   UNL     1       8.619  20.003  54.598  1.00  0.00     0.048 C 
HETATM   15  C   UNL     1       8.029  21.887  53.041  1.00  0.00     0.007 A 
HETATM   16  C   UNL     1       7.752  23.231  52.794  1.00  0.00     0.001 A 
HETATM   17  C   UNL     1       7.732  24.146  53.848  1.00  0.00     0.014 A 
ENDBRANCH   6  11
ENDBRANCH   4   5
ENDBRANCH   1   4
BRANCH   1  18
HETATM   18  C   UNL     1       6.556  29.405  55.597  1.00  0.00     0.190 C 
HETATM   19  C   UNL     1       5.404  30.344  55.968  1.00  0.00     0.048 C 
HETATM   20  C   UNL     1       5.297  30.664  57.454  1.00  0.00     0.099 C 
HETATM   21  N   UNL     1       6.605  31.107  57.942  1.00  0.00    -0.268 NA
HETATM   22  C   UNL     1       7.655  30.084  57.843  1.00  0.00     0.099 C 
HETATM   23  C   UNL     1       7.849  29.672  56.382  1.00  0.00     0.048 C 
BRANCH  21  24
HETATM   24  C   UNL     1       6.574  31.785  59.174  1.00  0.00     0.109 A 
HETATM   25  N   UNL     1       5.553  32.616  59.453  1.00  0.00    -0.224 NA
HETATM   26  C   UNL     1       5.521  33.206  60.674  1.00  0.00     0.102 A 
HETATM   27  C   UNL     1       4.376  34.111  61.005  1.00  0.00     0.091 C 
HETATM   28  N   UNL     1       6.458  33.009  61.611  1.00  0.00    -0.348 N 
HETATM   29  H   UNL     1       6.370  33.479  62.510  1.00  0.00     0.167 HD
HETATM   30  C   UNL     1       7.490  32.189  61.365  1.00  0.00     0.009 A 
HETATM   31  C   UNL     1       8.523  31.981  62.425  1.00  0.00     0.068 C 
HETATM   32  C   UNL     1       7.561  31.548  60.127  1.00  0.00     0.069 A 
ENDBRANCH  21  24
ENDBRANCH   1  18
TORSDOF 5
ENDMDL
MODEL 8
REMARK VINA RESULT:      -9.5      3.758      6.659
REMARK  5 active torsions:
REMARK  status: ('A' for Active; 'I' for Inactive)
REMARK    1  A    between atoms: C_4  and  C_5 
REMARK    2  A    between atoms: C_10  and  C_11 
REMARK    3  A    between atoms: C_11  and  N_12 
REMARK    4  A    between atoms: N_12  and  C_14 
REMARK    5  A    between atoms: N_17  and  C_18 
ROOT
HETATM    1  N   UNL     1       6.340  25.849  54.271  1.00  0.00    -0.067 N 
HETATM    2  H   UNL     1       5.811  25.362  53.530  1.00  0.00     0.280 HD
HETATM    3  C   UNL     1       7.783  25.637  53.926  1.00  0.00     0.270 C 
ENDROOT
BRANCH   1   4
HETATM    4  C   UNL     1       5.965  25.040  55.513  1.00  0.00     0.277 C 
BRANCH   4   5
HETATM    5  C   UNL     1       7.053  24.938  56.511  1.00  0.00     0.016 A 
HETATM    6  C   UNL     1       7.908  23.872  56.766  1.00  0.00     0.069 A 
HETATM    7  N   UNL     1       8.725  24.298  57.788  1.00  0.00    -0.277 N 
HETATM    8  H   UNL     1       9.504  23.803  58.217  1.00  0.00     0.189 HD
HETATM    9  N   UNL     1       8.420  25.523  58.238  1.00  0.00    -0.186 NA
HETATM   10  C   UNL     1       7.445  25.933  57.435  1.00  0.00     0.149 A 
BRANCH   6  11
HETATM   11  C   UNL     1       8.063  22.562  56.142  1.00  0.00    -0.007 A 
HETATM   12  C   UNL     1       7.933  22.417  54.754  1.00  0.00     0.020 A 
HETATM   13  C   UNL     1       8.049  21.157  54.149  1.00  0.00    -0.061 A 
HETATM   14  C   UNL     1       7.892  21.003  52.663  1.00  0.00     0.048 C 
HETATM   15  C   UNL     1       8.340  20.043  54.943  1.00  0.00     0.007 A 
HETATM   16  C   UNL     1       8.468  20.176  56.325  1.00  0.00     0.001 A 
HETATM   17  C   UNL     1       8.320  21.428  56.923  1.00  0.00     0.014 A 
ENDBRANCH   6  11
ENDBRANCH   4   5
ENDBRANCH   1   4
BRANCH   1  18
HETATM   18  C   UNL     1       5.805  27.291  54.251  1.00  0.00     0.190 C 
HETATM   19  C   UNL     1       4.701  27.574  55.276  1.00  0.00     0.048 C 
HETATM   20  C   UNL     1       5.197  28.099  56.617  1.00  0.00     0.099 C 
HETATM   21  N   UNL     1       6.094  29.233  56.382  1.00  0.00    -0.268 NA
HETATM   22  C   UNL     1       7.308  28.886  55.632  1.00  0.00     0.099 C 
HETATM   23  C   UNL     1       6.934  28.332  54.255  1.00  0.00     0.048 C 
BRANCH  21  24
HETATM   24  C   UNL     1       6.323  30.044  57.509  1.00  0.00     0.109 A 
HETATM   25  N   UNL     1       7.434  29.864  58.247  1.00  0.00    -0.224 NA
HETATM   26  C   UNL     1       7.655  30.703  59.290  1.00  0.00     0.102 A 
HETATM   27  C   UNL     1       8.901  30.528  60.100  1.00  0.00     0.091 C 
HETATM   28  N   UNL     1       6.820  31.695  59.625  1.00  0.00    -0.348 N 
HETATM   29  H   UNL     1       7.050  32.293  60.417  1.00  0.00     0.167 HD
HETATM   30  C   UNL     1       5.703  31.901  58.912  1.00  0.00     0.009 A 
HETATM   31  C   UNL     1       4.787  33.015  59.302  1.00  0.00     0.068 C 
HETATM   32  C   UNL     1       5.438  31.071  57.821  1.00  0.00     0.069 A 
ENDBRANCH  21  24
ENDBRANCH   1  18
TORSDOF 5
ENDMDL
MODEL 9
REMARK VINA RESULT:      -9.4      2.048      8.590
REMARK  5 active torsions:
REMARK  status: ('A' for Active; 'I' for Inactive)
REMARK    1  A    between atoms: C_4  and  C_5 
REMARK    2  A    between atoms: C_10  and  C_11 
REMARK    3  A    between atoms: C_11  and  N_12 
REMARK    4  A    between atoms: N_12  and  C_14 
REMARK    5  A    between atoms: N_17  and  C_18 
ROOT
HETATM    1  N   UNL     1       4.321  27.956  52.847  1.00  0.00    -0.067 N 
HETATM    2  H   UNL     1       3.669  27.165  52.966  1.00  0.00     0.280 HD
HETATM    3  C   UNL     1       4.393  28.610  54.195  1.00  0.00     0.270 C 
ENDROOT
BRANCH   1   4
HETATM    4  C   UNL     1       3.565  28.848  51.862  1.00  0.00     0.277 C 
BRANCH   4   5
HETATM    5  C   UNL     1       4.419  29.424  50.800  1.00  0.00     0.016 A 
HETATM    6  C   UNL     1       4.529  29.049  49.466  1.00  0.00     0.069 A 
HETATM    7  N   UNL     1       5.461  29.904  48.924  1.00  0.00    -0.277 N 
HETATM    8  H   UNL     1       5.773  29.960  47.957  1.00  0.00     0.189 HD
HETATM    9  N   UNL     1       5.990  30.751  49.817  1.00  0.00    -0.186 NA
HETATM   10  C   UNL     1       5.326  30.499  50.939  1.00  0.00     0.149 A 
BRANCH   6  11
HETATM   11  C   UNL     1       3.842  28.039  48.667  1.00  0.00    -0.007 A 
HETATM   12  C   UNL     1       2.532  28.259  48.218  1.00  0.00     0.020 A 
HETATM   13  C   UNL     1       1.853  27.282  47.477  1.00  0.00    -0.061 A 
HETATM   14  C   UNL     1       0.443  27.513  47.013  1.00  0.00     0.048 C 
HETATM   15  C   UNL     1       2.513  26.093  47.148  1.00  0.00     0.007 A 
HETATM   16  C   UNL     1       3.815  25.864  47.591  1.00  0.00     0.001 A 
HETATM   17  C   UNL     1       4.472  26.828  48.356  1.00  0.00     0.014 A 
ENDBRANCH   6  11
ENDBRANCH   4   5
ENDBRANCH   1   4
BRANCH   1  18
HETATM   18  C   UNL     1       5.608  27.322  52.291  1.00  0.00     0.190 C 
HETATM   19  C   UNL     1       6.786  27.312  53.271  1.00  0.00     0.048 C 
HETATM   20  C   UNL     1       6.896  26.054  54.123  1.00  0.00     0.099 C 
HETATM   21  N   UNL     1       6.840  24.880  53.247  1.00  0.00    -0.268 NA
HETATM   22  C   UNL     1       5.574  24.741  52.516  1.00  0.00     0.099 C 
HETATM   23  C   UNL     1       5.348  25.964  51.623  1.00  0.00     0.048 C 
BRANCH  21  24
HETATM   24  C   UNL     1       7.302  23.688  53.834  1.00  0.00     0.109 A 
HETATM   25  N   UNL     1       7.571  22.622  53.058  1.00  0.00    -0.224 NA
HETATM   26  C   UNL     1       8.073  21.508  53.648  1.00  0.00     0.102 A 
HETATM   27  C   UNL     1       8.402  20.327  52.790  1.00  0.00     0.091 C 
HETATM   28  N   UNL     1       8.306  21.415  54.964  1.00  0.00    -0.348 N 
HETATM   29  H   UNL     1       8.691  20.550  55.342  1.00  0.00     0.167 HD
HETATM   30  C   UNL     1       8.047  22.457  55.766  1.00  0.00     0.009 A 
HETATM   31  C   UNL     1       8.316  22.332  57.231  1.00  0.00     0.068 C 
HETATM   32  C   UNL     1       7.541  23.630  55.204  1.00  0.00     0.069 A 
ENDBRANCH  21  24
ENDBRANCH   1  18
TORSDOF 5
ENDMDL
MODEL 10
REMARK VINA RESULT:      -9.4      3.444      7.823
REMARK  5 active torsions:
REMARK  status: ('A' for Active; 'I' for Inactive)
REMARK    1  A    between atoms: C_4  and  C_5 
REMARK    2  A    between atoms: C_10  and  C_11 
REMARK    3  A    between atoms: C_11  and  N_12 
REMARK    4  A    between atoms: N_12  and  C_14 
REMARK    5  A    between atoms: N_17  and  C_18 
ROOT
HETATM    1  N   UNL     1       4.110  28.504  54.217  1.00  0.00    -0.067 N 
HETATM    2  H   UNL     1       3.529  27.664  54.068  1.00  0.00     0.280 HD
HETATM    3  C   UNL     1       3.464  29.577  53.393  1.00  0.00     0.270 C 
ENDROOT
BRANCH   1   4
HETATM    4  C   UNL     1       5.443  28.085  53.597  1.00  0.00     0.277 C 
BRANCH   4   5
HETATM    5  C   UNL     1       5.304  27.174  52.440  1.00  0.00     0.016 A 
HETATM    6  C   UNL     1       5.676  25.840  52.326  1.00  0.00     0.069 A 
HETATM    7  N   UNL     1       5.327  25.472  51.047  1.00  0.00    -0.277 N 
HETATM    8  H   UNL     1       5.409  24.556  50.613  1.00  0.00     0.189 HD
HETATM    9  N   UNL     1       4.817  26.480  50.324  1.00  0.00    -0.186 NA
HETATM   10  C   UNL     1       4.753  27.495  51.178  1.00  0.00     0.149 A 
BRANCH   6  11
HETATM   11  C   UNL     1       6.261  24.897  53.274  1.00  0.00    -0.007 A 
HETATM   12  C   UNL     1       7.010  23.804  52.816  1.00  0.00     0.020 A 
HETATM   13  C   UNL     1       7.549  22.875  53.718  1.00  0.00    -0.061 A 
HETATM   14  C   UNL     1       8.336  21.695  53.223  1.00  0.00     0.048 C 
HETATM   15  C   UNL     1       7.369  23.072  55.091  1.00  0.00     0.007 A 
HETATM   16  C   UNL     1       6.625  24.154  55.555  1.00  0.00     0.001 A 
HETATM   17  C   UNL     1       6.064  25.057  54.651  1.00  0.00     0.014 A 
ENDBRANCH   6  11
ENDBRANCH   4   5
ENDBRANCH   1   4
BRANCH   1  18
HETATM   18  C   UNL     1       4.136  28.694  55.744  1.00  0.00     0.190 C 
HETATM   19  C   UNL     1       5.110  27.770  56.482  1.00  0.00     0.048 C 
HETATM   20  C   UNL     1       6.504  28.349  56.691  1.00  0.00     0.099 C 
HETATM   21  N   UNL     1       6.382  29.682  57.287  1.00  0.00    -0.268 NA
HETATM   22  C   UNL     1       5.684  30.654  56.435  1.00  0.00     0.099 C 
HETATM   23  C   UNL     1       4.261  30.172  56.146  1.00  0.00     0.048 C 
BRANCH  21  24
HETATM   24  C   UNL     1       7.561  30.172  57.876  1.00  0.00     0.109 A 
HETATM   25  N   UNL     1       8.757  29.822  57.368  1.00  0.00    -0.224 NA
HETATM   26  C   UNL     1       9.873  30.362  57.921  1.00  0.00     0.102 A 
HETATM   27  C   UNL     1      11.206  30.000  57.346  1.00  0.00     0.091 C 
HETATM   28  N   UNL     1       9.843  31.217  58.950  1.00  0.00    -0.348 N 
HETATM   29  H   UNL     1      10.718  31.590  59.314  1.00  0.00     0.167 HD
HETATM   30  C   UNL     1       8.668  31.586  59.482  1.00  0.00     0.009 A 
HETATM   31  C   UNL     1       8.657  32.544  60.629  1.00  0.00     0.068 C 
HETATM   32  C   UNL     1       7.491  31.067  58.940  1.00  0.00     0.069 A 
ENDBRANCH  21  24
ENDBRANCH   1  18
TORSDOF 5
ENDMDL
