MODEL 1
REMARK VINA RESULT:     -10.1      0.000      0.000
REMARK  3 active torsions:
REMARK  status: ('A' for Active; 'I' for Inactive)
REMARK    1  A    between atoms: C_2  and  C_3 
REMARK    2  A    between atoms: C_12  and  C_13 
REMARK    3  A    between atoms: C_13  and  C_14 
ROOT
HETATM    1  C   UNL     1       8.533  22.342  54.397  1.00  0.00    -0.027 A 
HETATM    2  C   UNL     1       8.659  22.037  55.763  1.00  0.00     0.039 A 
HETATM    3  C   UNL     1       9.138  20.693  56.242  1.00  0.00     0.071 C 
HETATM    4  N   UNL     1       8.402  22.905  56.755  1.00  0.00    -0.245 NA
HETATM    5  C   UNL     1       7.958  24.113  56.374  1.00  0.00     0.111 A 
HETATM    6  C   UNL     1       7.729  24.556  55.077  1.00  0.00     0.034 A 
HETATM    7  C   UNL     1       8.082  23.646  54.024  1.00  0.00    -0.038 A 
HETATM    8  C   UNL     1       7.984  24.021  52.566  1.00  0.00     0.050 C 
HETATM    9  S   UNL     1       7.646  25.281  57.561  1.00  0.00    -0.063 SA
HETATM   10  C   UNL     1       7.123  26.427  56.404  1.00  0.00     0.085 A 
HETATM   11  C   UNL     1       7.174  25.904  55.122  1.00  0.00     0.061 A 
HETATM   12  N   UNL     1       6.779  26.590  54.022  1.00  0.00    -0.397 N 
HETATM   13  H   UNL     1       6.384  27.525  54.054  1.00  0.00     0.156 HD
HETATM   14  H   UNL     1       6.521  26.107  53.167  1.00  0.00     0.156 HD
ENDROOT
BRANCH  10  15
HETATM   15  C   UNL     1       6.732  27.732  56.912  1.00  0.00     0.201 C 
HETATM   16  O   UNL     1       5.561  28.061  57.103  1.00  0.00    -0.286 OA
BRANCH  15  17
HETATM   17  C   UNL     1       7.762  28.762  57.232  1.00  0.00     0.018 A 
HETATM   18  C   UNL     1       7.655  29.588  58.360  1.00  0.00     0.055 A 
HETATM   19  C   UNL     1       8.669  30.495  58.584  1.00  0.00     0.106 A 
HETATM   20  C   UNL     1       9.761  30.593  57.750  1.00  0.00     0.105 A 
HETATM   21  O   UNL     1       8.729  31.378  59.617  1.00  0.00    -0.323 OA
HETATM   22  O   UNL     1      10.640  31.546  58.155  1.00  0.00    -0.323 OA
HETATM   23  C   UNL     1       9.905  29.786  56.644  1.00  0.00     0.040 A 
HETATM   24  C   UNL     1       9.993  32.026  59.352  1.00  0.00     0.352 A 
HETATM   25  C   UNL     1       8.893  28.856  56.387  1.00  0.00     0.018 A 
ENDBRANCH  15  17
ENDBRANCH  10  15
BRANCH   1  26
HETATM   26  C   UNL     1       8.840  21.278  53.357  1.00  0.00     0.036 C 
HETATM   27  C   UNL     1       7.614  20.442  53.013  1.00  0.00     0.010 C 
ENDBRANCH   1  26
TORSDOF 3
ENDMDL
MODEL 2
REMARK VINA RESULT:      -9.1      2.003      3.008
REMARK  3 active torsions:
REMARK  status: ('A' for Active; 'I' for Inactive)
REMARK    1  A    between atoms: C_2  and  C_3 
REMARK    2  A    between atoms: C_12  and  C_13 
REMARK    3  A    between atoms: C_13  and  C_14 
ROOT
HETATM    1  C   UNL     1       7.736  22.175  54.346  1.00  0.00    -0.027 A 
HETATM    2  C   UNL     1       7.806  21.871  55.716  1.00  0.00     0.039 A 
HETATM    3  C   UNL     1       7.853  20.453  56.220  1.00  0.00     0.071 C 
HETATM    4  N   UNL     1       7.869  22.794  56.689  1.00  0.00    -0.245 NA
HETATM    5  C   UNL     1       7.815  24.073  56.286  1.00  0.00     0.111 A 
HETATM    6  C   UNL     1       7.694  24.542  54.984  1.00  0.00     0.034 A 
HETATM    7  C   UNL     1       7.706  23.548  53.948  1.00  0.00    -0.038 A 
HETATM    8  C   UNL     1       7.683  23.907  52.483  1.00  0.00     0.050 C 
HETATM    9  S   UNL     1       7.928  25.302  57.447  1.00  0.00    -0.063 SA
HETATM   10  C   UNL     1       7.754  26.532  56.273  1.00  0.00     0.085 A 
HETATM   11  C   UNL     1       7.594  25.996  55.005  1.00  0.00     0.061 A 
HETATM   12  N   UNL     1       7.399  26.751  53.897  1.00  0.00    -0.397 N 
HETATM   13  H   UNL     1       7.319  27.763  53.913  1.00  0.00     0.156 HD
HETATM   14  H   UNL     1       6.973  26.359  53.063  1.00  0.00     0.156 HD
ENDROOT
BRANCH  10  15
HETATM   15  C   UNL     1       7.812  27.903  56.754  1.00  0.00     0.201 C 
HETATM   16  O   UNL     1       8.864  28.476  57.040  1.00  0.00    -0.286 OA
BRANCH  15  17
HETATM   17  C   UNL     1       6.563  28.699  56.931  1.00  0.00     0.018 A 
HETATM   18  C   UNL     1       6.563  29.933  57.598  1.00  0.00     0.055 A 
HETATM   19  C   UNL     1       5.363  30.606  57.691  1.00  0.00     0.106 A 
HETATM   20  C   UNL     1       4.200  30.108  57.146  1.00  0.00     0.105 A 
HETATM   21  O   UNL     1       5.171  31.804  58.306  1.00  0.00    -0.323 OA
HETATM   22  O   UNL     1       3.138  30.931  57.349  1.00  0.00    -0.323 OA
HETATM   23  C   UNL     1       4.170  28.909  56.471  1.00  0.00     0.040 A 
HETATM   24  C   UNL     1       3.763  32.016  58.065  1.00  0.00     0.352 A 
HETATM   25  C   UNL     1       5.369  28.200  56.359  1.00  0.00     0.018 A 
ENDBRANCH  15  17
ENDBRANCH  10  15
BRANCH   1  26
HETATM   26  C   UNL     1       7.656  21.049  53.329  1.00  0.00     0.036 C 
HETATM   27  C   UNL     1       9.029  20.480  52.995  1.00  0.00     0.010 C 
ENDBRANCH   1  26
TORSDOF 3
ENDMDL
MODEL 3
REMARK VINA RESULT:      -8.8      1.553      2.253
REMARK  3 active torsions:
REMARK  status: ('A' for Active; 'I' for Inactive)
REMARK    1  A    between atoms: C_2  and  C_3 
REMARK    2  A    between atoms: C_12  and  C_13 
REMARK    3  A    between atoms: C_13  and  C_14 
ROOT
HETATM    1  C   UNL     1       8.353  22.234  55.110  1.00  0.00    -0.027 A 
HETATM    2  C   UNL     1       8.113  22.534  53.758  1.00  0.00     0.039 A 
HETATM    3  C   UNL     1       8.180  21.485  52.681  1.00  0.00     0.071 C 
HETATM    4  N   UNL     1       7.776  23.753  53.307  1.00  0.00    -0.245 NA
HETATM    5  C   UNL     1       7.719  24.723  54.231  1.00  0.00     0.111 A 
HETATM    6  C   UNL     1       7.977  24.607  55.592  1.00  0.00     0.034 A 
HETATM    7  C   UNL     1       8.259  23.285  56.074  1.00  0.00    -0.038 A 
HETATM    8  C   UNL     1       8.461  22.984  57.539  1.00  0.00     0.050 C 
HETATM    9  S   UNL     1       7.264  26.284  53.753  1.00  0.00    -0.063 SA
HETATM   10  C   UNL     1       7.451  26.906  55.334  1.00  0.00     0.085 A 
HETATM   11  C   UNL     1       7.876  25.922  56.213  1.00  0.00     0.061 A 
HETATM   12  N   UNL     1       8.137  26.156  57.522  1.00  0.00    -0.397 N 
HETATM   13  H   UNL     1       8.076  27.075  57.952  1.00  0.00     0.156 HD
HETATM   14  H   UNL     1       8.735  25.535  58.057  1.00  0.00     0.156 HD
ENDROOT
BRANCH  10  15
HETATM   15  C   UNL     1       7.135  28.313  55.521  1.00  0.00     0.201 C 
HETATM   16  O   UNL     1       6.119  28.845  55.071  1.00  0.00    -0.286 OA
BRANCH  15  17
HETATM   17  C   UNL     1       8.056  29.204  56.284  1.00  0.00     0.018 A 
HETATM   18  C   UNL     1       7.634  29.893  57.431  1.00  0.00     0.055 A 
HETATM   19  C   UNL     1       8.565  30.675  58.082  1.00  0.00     0.106 A 
HETATM   20  C   UNL     1       9.867  30.778  57.647  1.00  0.00     0.105 A 
HETATM   21  O   UNL     1       8.334  31.418  59.198  1.00  0.00    -0.323 OA
HETATM   22  O   UNL     1      10.615  31.595  58.435  1.00  0.00    -0.323 OA
HETATM   23  C   UNL     1      10.318  30.101  56.536  1.00  0.00     0.040 A 
HETATM   24  C   UNL     1       9.644  31.980  59.430  1.00  0.00     0.352 A 
HETATM   25  C   UNL     1       9.399  29.301  55.851  1.00  0.00     0.018 A 
ENDBRANCH  15  17
ENDBRANCH  10  15
BRANCH   1  26
HETATM   26  C   UNL     1       8.740  20.819  55.509  1.00  0.00     0.036 C 
HETATM   27  C   UNL     1       7.551  20.027  56.034  1.00  0.00     0.010 C 
ENDBRANCH   1  26
TORSDOF 3
ENDMDL
MODEL 4
REMARK VINA RESULT:      -8.7      4.057      5.686
REMARK  3 active torsions:
REMARK  status: ('A' for Active; 'I' for Inactive)
REMARK    1  A    between atoms: C_2  and  C_3 
REMARK    2  A    between atoms: C_12  and  C_13 
REMARK    3  A    between atoms: C_13  and  C_14 
ROOT
HETATM    1  C   UNL     1       8.387  22.435  54.927  1.00  0.00    -0.027 A 
HETATM    2  C   UNL     1       7.757  22.218  53.690  1.00  0.00     0.039 A 
HETATM    3  C   UNL     1       7.990  20.970  52.880  1.00  0.00     0.071 C 
HETATM    4  N   UNL     1       6.880  23.068  53.133  1.00  0.00    -0.245 NA
HETATM    5  C   UNL     1       6.653  24.202  53.813  1.00  0.00     0.111 A 
HETATM    6  C   UNL     1       7.228  24.593  55.017  1.00  0.00     0.034 A 
HETATM    7  C   UNL     1       8.104  23.641  55.639  1.00  0.00    -0.038 A 
HETATM    8  C   UNL     1       8.724  23.880  56.994  1.00  0.00     0.050 C 
HETATM    9  S   UNL     1       5.530  25.314  53.200  1.00  0.00    -0.063 SA
HETATM   10  C   UNL     1       5.802  26.412  54.482  1.00  0.00     0.085 A 
HETATM   11  C   UNL     1       6.760  25.930  55.360  1.00  0.00     0.061 A 
HETATM   12  N   UNL     1       7.190  26.621  56.444  1.00  0.00    -0.397 N 
HETATM   13  H   UNL     1       6.872  27.556  56.677  1.00  0.00     0.156 HD
HETATM   14  H   UNL     1       8.086  26.416  56.875  1.00  0.00     0.156 HD
ENDROOT
BRANCH  10  15
HETATM   15  C   UNL     1       5.010  27.631  54.472  1.00  0.00     0.201 C 
HETATM   16  O   UNL     1       4.558  28.154  55.492  1.00  0.00    -0.286 OA
BRANCH  15  17
HETATM   17  C   UNL     1       4.699  28.324  53.189  1.00  0.00     0.018 A 
HETATM   18  C   UNL     1       5.710  28.806  52.345  1.00  0.00     0.055 A 
HETATM   19  C   UNL     1       5.322  29.413  51.169  1.00  0.00     0.106 A 
HETATM   20  C   UNL     1       3.998  29.540  50.812  1.00  0.00     0.105 A 
HETATM   21  O   UNL     1       6.160  29.945  50.238  1.00  0.00    -0.323 OA
HETATM   22  O   UNL     1       3.841  30.163  49.615  1.00  0.00    -0.323 OA
HETATM   23  C   UNL     1       2.982  29.063  51.609  1.00  0.00     0.040 A 
HETATM   24  C   UNL     1       5.215  30.398  49.244  1.00  0.00     0.352 A 
HETATM   25  C   UNL     1       3.341  28.443  52.810  1.00  0.00     0.018 A 
ENDBRANCH  15  17
ENDBRANCH  10  15
BRANCH   1  26
HETATM   26  C   UNL     1       9.374  21.409  55.458  1.00  0.00     0.036 C 
HETATM   27  C   UNL     1       8.685  20.313  56.260  1.00  0.00     0.010 C 
ENDBRANCH   1  26
TORSDOF 3
ENDMDL
MODEL 5
REMARK VINA RESULT:      -8.6      3.277      7.847
REMARK  3 active torsions:
REMARK  status: ('A' for Active; 'I' for Inactive)
REMARK    1  A    between atoms: C_2  and  C_3 
REMARK    2  A    between atoms: C_12  and  C_13 
REMARK    3  A    between atoms: C_13  and  C_14 
ROOT
HETATM    1  C   UNL     1       7.322  30.346  58.022  1.00  0.00    -0.027 A 
HETATM    2  C   UNL     1       8.614  29.855  57.774  1.00  0.00     0.039 A 
HETATM    3  C   UNL     1       9.846  30.533  58.314  1.00  0.00     0.071 C 
HETATM    4  N   UNL     1       8.874  28.739  57.074  1.00  0.00    -0.245 NA
HETATM    5  C   UNL     1       7.806  28.110  56.561  1.00  0.00     0.111 A 
HETATM    6  C   UNL     1       6.473  28.488  56.667  1.00  0.00     0.034 A 
HETATM    7  C   UNL     1       6.203  29.638  57.483  1.00  0.00    -0.038 A 
HETATM    8  C   UNL     1       4.800  30.111  57.773  1.00  0.00     0.050 C 
HETATM    9  S   UNL     1       8.041  26.672  55.696  1.00  0.00    -0.063 SA
HETATM   10  C   UNL     1       6.373  26.512  55.358  1.00  0.00     0.085 A 
HETATM   11  C   UNL     1       5.650  27.566  55.894  1.00  0.00     0.061 A 
HETATM   12  N   UNL     1       4.311  27.703  55.741  1.00  0.00    -0.397 N 
HETATM   13  H   UNL     1       3.739  27.066  55.195  1.00  0.00     0.156 HD
HETATM   14  H   UNL     1       3.860  28.606  55.849  1.00  0.00     0.156 HD
ENDROOT
BRANCH  10  15
HETATM   15  C   UNL     1       5.972  25.335  54.604  1.00  0.00     0.201 C 
HETATM   16  O   UNL     1       4.933  25.274  53.945  1.00  0.00    -0.286 OA
BRANCH  15  17
HETATM   17  C   UNL     1       6.824  24.111  54.597  1.00  0.00     0.018 A 
HETATM   18  C   UNL     1       7.157  23.436  55.780  1.00  0.00     0.055 A 
HETATM   19  C   UNL     1       7.931  22.300  55.668  1.00  0.00     0.106 A 
HETATM   20  C   UNL     1       8.361  21.824  54.450  1.00  0.00     0.105 A 
HETATM   21  O   UNL     1       8.356  21.526  56.703  1.00  0.00    -0.323 OA
HETATM   22  O   UNL     1       9.106  20.693  54.568  1.00  0.00    -0.323 OA
HETATM   23  C   UNL     1       8.038  22.453  53.269  1.00  0.00     0.040 A 
HETATM   24  C   UNL     1       9.081  20.495  55.997  1.00  0.00     0.352 A 
HETATM   25  C   UNL     1       7.256  23.608  53.346  1.00  0.00     0.018 A 
ENDBRANCH  15  17
ENDBRANCH  10  15
BRANCH   1  26
HETATM   26  C   UNL     1       7.144  31.628  58.819  1.00  0.00     0.036 C 
HETATM   27  C   UNL     1       7.206  31.383  60.320  1.00  0.00     0.010 C 
ENDBRANCH   1  26
TORSDOF 3
ENDMDL
MODEL 6
REMARK VINA RESULT:      -8.5      3.142      8.224
REMARK  3 active torsions:
REMARK  status: ('A' for Active; 'I' for Inactive)
REMARK    1  A    between atoms: C_2  and  C_3 
REMARK    2  A    between atoms: C_12  and  C_13 
REMARK    3  A    between atoms: C_13  and  C_14 
ROOT
HETATM    1  C   UNL     1       7.250  31.558  59.673  1.00  0.00    -0.027 A 
HETATM    2  C   UNL     1       8.339  30.727  59.980  1.00  0.00     0.039 A 
HETATM    3  C   UNL     1       9.145  30.895  61.241  1.00  0.00     0.071 C 
HETATM    4  N   UNL     1       8.742  29.700  59.214  1.00  0.00    -0.245 NA
HETATM    5  C   UNL     1       8.061  29.521  58.072  1.00  0.00     0.111 A 
HETATM    6  C   UNL     1       6.999  30.281  57.596  1.00  0.00     0.034 A 
HETATM    7  C   UNL     1       6.528  31.325  58.461  1.00  0.00    -0.038 A 
HETATM    8  C   UNL     1       5.323  32.169  58.127  1.00  0.00     0.050 C 
HETATM    9  S   UNL     1       8.480  28.225  57.064  1.00  0.00    -0.063 SA
HETATM   10  C   UNL     1       7.302  28.650  55.900  1.00  0.00     0.085 A 
HETATM   11  C   UNL     1       6.608  29.788  56.280  1.00  0.00     0.061 A 
HETATM   12  N   UNL     1       5.644  30.361  55.520  1.00  0.00    -0.397 N 
HETATM   13  H   UNL     1       5.379  30.023  54.599  1.00  0.00     0.156 HD
HETATM   14  H   UNL     1       5.385  31.334  55.647  1.00  0.00     0.156 HD
ENDROOT
BRANCH  10  15
HETATM   15  C   UNL     1       7.194  27.782  54.738  1.00  0.00     0.201 C 
HETATM   16  O   UNL     1       7.082  28.204  53.586  1.00  0.00    -0.286 OA
BRANCH  15  17
HETATM   17  C   UNL     1       7.211  26.299  54.893  1.00  0.00     0.018 A 
HETATM   18  C   UNL     1       7.831  25.466  53.951  1.00  0.00     0.055 A 
HETATM   19  C   UNL     1       7.813  24.108  54.193  1.00  0.00     0.106 A 
HETATM   20  C   UNL     1       7.225  23.573  55.317  1.00  0.00     0.105 A 
HETATM   21  O   UNL     1       8.354  23.152  53.390  1.00  0.00    -0.323 OA
HETATM   22  O   UNL     1       7.325  22.218  55.360  1.00  0.00    -0.323 OA
HETATM   23  C   UNL     1       6.623  24.364  56.269  1.00  0.00     0.040 A 
HETATM   24  C   UNL     1       8.062  21.958  54.147  1.00  0.00     0.352 A 
HETATM   25  C   UNL     1       6.622  25.745  56.053  1.00  0.00     0.018 A 
ENDBRANCH  15  17
ENDBRANCH  10  15
BRANCH   1  26
HETATM   26  C   UNL     1       6.888  32.700  60.608  1.00  0.00     0.036 C 
HETATM   27  C   UNL     1       5.893  32.271  61.678  1.00  0.00     0.010 C 
ENDBRANCH   1  26
TORSDOF 3
ENDMDL
MODEL 7
REMARK VINA RESULT:      -8.3      4.381      9.626
REMARK  3 active torsions:
REMARK  status: ('A' for Active; 'I' for Inactive)
REMARK    1  A    between atoms: C_2  and  C_3 
REMARK    2  A    between atoms: C_12  and  C_13 
REMARK    3  A    between atoms: C_13  and  C_14 
ROOT
HETATM    1  C   UNL     1       5.827  33.303  62.430  1.00  0.00    -0.027 A 
HETATM    2  C   UNL     1       4.959  33.410  61.332  1.00  0.00     0.039 A 
HETATM    3  C   UNL     1       3.673  34.190  61.400  1.00  0.00     0.071 C 
HETATM    4  N   UNL     1       5.198  32.867  60.127  1.00  0.00    -0.245 NA
HETATM    5  C   UNL     1       6.327  32.150  60.024  1.00  0.00     0.111 A 
HETATM    6  C   UNL     1       7.264  31.903  61.021  1.00  0.00     0.034 A 
HETATM    7  C   UNL     1       7.035  32.553  62.280  1.00  0.00    -0.038 A 
HETATM    8  C   UNL     1       8.013  32.462  63.426  1.00  0.00     0.050 C 
HETATM    9  S   UNL     1       6.726  31.461  58.527  1.00  0.00    -0.063 SA
HETATM   10  C   UNL     1       8.144  30.738  59.151  1.00  0.00     0.085 A 
HETATM   11  C   UNL     1       8.295  31.013  60.501  1.00  0.00     0.061 A 
HETATM   12  N   UNL     1       9.315  30.529  61.249  1.00  0.00    -0.397 N 
HETATM   13  H   UNL     1      10.028  29.901  60.889  1.00  0.00     0.156 HD
HETATM   14  H   UNL     1       9.242  30.466  62.260  1.00  0.00     0.156 HD
ENDROOT
BRANCH  10  15
HETATM   15  C   UNL     1       8.957  29.985  58.210  1.00  0.00     0.201 C 
HETATM   16  O   UNL     1      10.174  30.136  58.095  1.00  0.00    -0.286 OA
BRANCH  15  17
HETATM   17  C   UNL     1       8.336  28.968  57.314  1.00  0.00     0.018 A 
HETATM   18  C   UNL     1       7.632  27.867  57.822  1.00  0.00     0.055 A 
HETATM   19  C   UNL     1       7.074  26.993  56.913  1.00  0.00     0.106 A 
HETATM   20  C   UNL     1       7.183  27.182  55.553  1.00  0.00     0.105 A 
HETATM   21  O   UNL     1       6.368  25.872  57.222  1.00  0.00    -0.323 OA
HETATM   22  O   UNL     1       6.558  26.208  54.841  1.00  0.00    -0.323 OA
HETATM   23  C   UNL     1       7.853  28.261  55.022  1.00  0.00     0.040 A 
HETATM   24  C   UNL     1       6.024  25.391  55.904  1.00  0.00     0.352 A 
HETATM   25  C   UNL     1       8.432  29.166  55.916  1.00  0.00     0.018 A 
ENDBRANCH  15  17
ENDBRANCH  10  15
BRANCH   1  26
HETATM   26  C   UNL     1       5.450  33.949  63.753  1.00  0.00     0.036 C 
HETATM   27  C   UNL     1       5.964  35.378  63.860  1.00  0.00     0.010 C 
ENDBRANCH   1  26
TORSDOF 3
ENDMDL
MODEL 8
REMARK VINA RESULT:      -8.3      3.088      8.074
REMARK  3 active torsions:
REMARK  status: ('A' for Active; 'I' for Inactive)
REMARK    1  A    between atoms: C_2  and  C_3 
REMARK    2  A    between atoms: C_12  and  C_13 
REMARK    3  A    between atoms: C_13  and  C_14 
ROOT
HETATM    1  C   UNL     1       8.292  31.660  59.267  1.00  0.00    -0.027 A 
HETATM    2  C   UNL     1       6.890  31.611  59.350  1.00  0.00     0.039 A 
HETATM    3  C   UNL     1       6.126  32.338  60.425  1.00  0.00     0.071 C 
HETATM    4  N   UNL     1       6.107  30.952  58.481  1.00  0.00    -0.245 NA
HETATM    5  C   UNL     1       6.747  30.276  57.515  1.00  0.00     0.111 A 
HETATM    6  C   UNL     1       8.120  30.179  57.322  1.00  0.00     0.034 A 
HETATM    7  C   UNL     1       8.942  30.951  58.210  1.00  0.00    -0.038 A 
HETATM    8  C   UNL     1      10.442  31.025  58.063  1.00  0.00     0.050 C 
HETATM    9  S   UNL     1       5.833  29.448  56.352  1.00  0.00    -0.063 SA
HETATM   10  C   UNL     1       7.230  28.857  55.563  1.00  0.00     0.085 A 
HETATM   11  C   UNL     1       8.384  29.283  56.202  1.00  0.00     0.061 A 
HETATM   12  N   UNL     1       9.630  28.926  55.804  1.00  0.00    -0.397 N 
HETATM   13  H   UNL     1       9.813  28.294  55.031  1.00  0.00     0.156 HD
HETATM   14  H   UNL     1      10.418  28.970  56.443  1.00  0.00     0.156 HD
ENDROOT
BRANCH  10  15
HETATM   15  C   UNL     1       7.012  28.043  54.379  1.00  0.00     0.201 C 
HETATM   16  O   UNL     1       6.555  28.488  53.326  1.00  0.00    -0.286 OA
BRANCH  15  17
HETATM   17  C   UNL     1       7.340  26.588  54.387  1.00  0.00     0.018 A 
HETATM   18  C   UNL     1       7.291  25.827  55.564  1.00  0.00     0.055 A 
HETATM   19  C   UNL     1       7.589  24.484  55.465  1.00  0.00     0.106 A 
HETATM   20  C   UNL     1       7.911  23.891  54.265  1.00  0.00     0.105 A 
HETATM   21  O   UNL     1       7.602  23.597  56.498  1.00  0.00    -0.323 OA
HETATM   22  O   UNL     1       8.164  22.562  54.394  1.00  0.00    -0.323 OA
HETATM   23  C   UNL     1       7.951  24.606  53.089  1.00  0.00     0.040 A 
HETATM   24  C   UNL     1       7.944  22.376  55.807  1.00  0.00     0.352 A 
HETATM   25  C   UNL     1       7.656  25.971  53.154  1.00  0.00     0.018 A 
ENDBRANCH  15  17
ENDBRANCH  10  15
BRANCH   1  26
HETATM   26  C   UNL     1       9.081  32.428  60.314  1.00  0.00     0.036 C 
HETATM   27  C   UNL     1       9.486  31.547  61.488  1.00  0.00     0.010 C 
ENDBRANCH   1  26
TORSDOF 3
ENDMDL
MODEL 9
REMARK VINA RESULT:      -8.3      5.043      8.129
REMARK  3 active torsions:
REMARK  status: ('A' for Active; 'I' for Inactive)
REMARK    1  A    between atoms: C_2  and  C_3 
REMARK    2  A    between atoms: C_12  and  C_13 
REMARK    3  A    between atoms: C_13  and  C_14 
ROOT
HETATM    1  C   UNL     1       4.818  28.751  49.019  1.00  0.00    -0.027 A 
HETATM    2  C   UNL     1       5.485  29.759  49.735  1.00  0.00     0.039 A 
HETATM    3  C   UNL     1       5.770  31.111  49.138  1.00  0.00     0.071 C 
HETATM    4  N   UNL     1       5.899  29.631  51.005  1.00  0.00    -0.245 NA
HETATM    5  C   UNL     1       5.680  28.435  51.573  1.00  0.00     0.111 A 
HETATM    6  C   UNL     1       5.083  27.322  50.992  1.00  0.00     0.034 A 
HETATM    7  C   UNL     1       4.576  27.498  49.661  1.00  0.00    -0.038 A 
HETATM    8  C   UNL     1       3.816  26.414  48.937  1.00  0.00     0.050 C 
HETATM    9  S   UNL     1       6.137  28.200  53.188  1.00  0.00    -0.063 SA
HETATM   10  C   UNL     1       5.620  26.570  53.178  1.00  0.00     0.085 A 
HETATM   11  C   UNL     1       5.117  26.212  51.937  1.00  0.00     0.061 A 
HETATM   12  N   UNL     1       4.673  24.965  51.645  1.00  0.00    -0.397 N 
HETATM   13  H   UNL     1       4.706  24.190  52.300  1.00  0.00     0.156 HD
HETATM   14  H   UNL     1       4.617  24.639  50.686  1.00  0.00     0.156 HD
ENDROOT
BRANCH  10  15
HETATM   15  C   UNL     1       5.762  25.835  54.424  1.00  0.00     0.201 C 
HETATM   16  O   UNL     1       5.120  26.097  55.442  1.00  0.00    -0.286 OA
BRANCH  15  17
HETATM   17  C   UNL     1       6.722  24.699  54.530  1.00  0.00     0.018 A 
HETATM   18  C   UNL     1       6.739  23.656  53.592  1.00  0.00     0.055 A 
HETATM   19  C   UNL     1       7.679  22.662  53.762  1.00  0.00     0.106 A 
HETATM   20  C   UNL     1       8.584  22.680  54.800  1.00  0.00     0.105 A 
HETATM   21  O   UNL     1       7.836  21.573  52.961  1.00  0.00    -0.323 OA
HETATM   22  O   UNL     1       9.421  21.609  54.778  1.00  0.00    -0.323 OA
HETATM   23  C   UNL     1       8.606  23.697  55.728  1.00  0.00     0.040 A 
HETATM   24  C   UNL     1       8.957  20.923  53.597  1.00  0.00     0.352 A 
HETATM   25  C   UNL     1       7.664  24.720  55.585  1.00  0.00     0.018 A 
ENDBRANCH  15  17
ENDBRANCH  10  15
BRANCH   1  26
HETATM   26  C   UNL     1       4.403  29.001  47.578  1.00  0.00     0.036 C 
HETATM   27  C   UNL     1       2.992  29.562  47.477  1.00  0.00     0.010 C 
ENDBRANCH   1  26
TORSDOF 3
ENDMDL
MODEL 10
REMARK VINA RESULT:      -8.2      5.649      8.101
REMARK  3 active torsions:
REMARK  status: ('A' for Active; 'I' for Inactive)
REMARK    1  A    between atoms: C_2  and  C_3 
REMARK    2  A    between atoms: C_12  and  C_13 
REMARK    3  A    between atoms: C_13  and  C_14 
ROOT
HETATM    1  C   UNL     1       7.125  24.600  55.137  1.00  0.00    -0.027 A 
HETATM    2  C   UNL     1       6.705  25.639  55.983  1.00  0.00     0.039 A 
HETATM    3  C   UNL     1       6.795  25.536  57.483  1.00  0.00     0.071 C 
HETATM    4  N   UNL     1       6.221  26.814  55.550  1.00  0.00    -0.245 NA
HETATM    5  C   UNL     1       6.108  26.944  54.219  1.00  0.00     0.111 A 
HETATM    6  C   UNL     1       6.428  26.001  53.250  1.00  0.00     0.034 A 
HETATM    7  C   UNL     1       7.017  24.780  53.723  1.00  0.00    -0.038 A 
HETATM    8  C   UNL     1       7.507  23.704  52.786  1.00  0.00     0.050 C 
HETATM    9  S   UNL     1       5.542  28.411  53.585  1.00  0.00    -0.063 SA
HETATM   10  C   UNL     1       5.632  27.838  51.977  1.00  0.00     0.085 A 
HETATM   11  C   UNL     1       6.077  26.526  51.936  1.00  0.00     0.061 A 
HETATM   12  N   UNL     1       6.204  25.819  50.787  1.00  0.00    -0.397 N 
HETATM   13  H   UNL     1       5.950  26.181  49.873  1.00  0.00     0.156 HD
HETATM   14  H   UNL     1       6.214  24.804  50.793  1.00  0.00     0.156 HD
ENDROOT
BRANCH  10  15
HETATM   15  C   UNL     1       5.258  28.776  50.931  1.00  0.00     0.201 C 
HETATM   16  O   UNL     1       5.899  29.797  50.677  1.00  0.00    -0.286 OA
BRANCH  15  17
HETATM   17  C   UNL     1       4.045  28.540  50.096  1.00  0.00     0.018 A 
HETATM   18  C   UNL     1       4.108  27.835  48.886  1.00  0.00     0.055 A 
HETATM   19  C   UNL     1       2.928  27.648  48.196  1.00  0.00     0.106 A 
HETATM   20  C   UNL     1       1.722  28.117  48.667  1.00  0.00     0.105 A 
HETATM   21  O   UNL     1       2.800  27.000  47.007  1.00  0.00    -0.323 OA
HETATM   22  O   UNL     1       0.689  27.821  47.836  1.00  0.00    -0.323 OA
HETATM   23  C   UNL     1       1.624  28.798  49.860  1.00  0.00     0.040 A 
HETATM   24  C   UNL     1       1.374  27.092  46.796  1.00  0.00     0.352 A 
HETATM   25  C   UNL     1       2.801  29.006  50.583  1.00  0.00     0.018 A 
ENDBRANCH  15  17
ENDBRANCH  10  15
BRANCH   1  26
HETATM   26  C   UNL     1       7.647  23.305  55.737  1.00  0.00     0.036 C 
HETATM   27  C   UNL     1       9.163  23.310  55.880  1.00  0.00     0.010 C 
ENDBRANCH   1  26
TORSDOF 3
ENDMDL
