MODEL 1
REMARK VINA RESULT:      -9.5      0.000      0.000
REMARK  4 active torsions:
REMARK  status: ('A' for Active; 'I' for Inactive)
REMARK    1  A    between atoms: C_6  and  N_7 
REMARK       I    between atoms: N_7  and  C_8 
REMARK    2  A    between atoms: C_8  and  C_9 
REMARK    3  A    between atoms: C_10  and  C_11 
REMARK    4  A    between atoms: C_14  and  O_15 
ROOT
HETATM    1  C   UNL     1       5.722  27.194  56.465  1.00  0.00     0.062 C 
HETATM    2  C   UNL     1       4.561  27.979  55.867  1.00  0.00     0.202 C 
HETATM    3  N   UNL     1       4.402  29.265  56.558  1.00  0.00    -0.084 N 
HETATM    4  C   UNL     1       5.319  29.783  57.434  1.00  0.00     0.725 A 
HETATM    5  N   UNL     1       6.427  29.074  57.729  1.00  0.00    -0.192 N 
HETATM    6  N   UNL     1       3.303  30.044  56.484  1.00  0.00    -0.149 NA
HETATM    7  C   UNL     1       3.668  31.062  57.272  1.00  0.00     0.275 A 
HETATM    8  N   UNL     1       4.893  30.938  57.879  1.00  0.00    -0.054 NA
HETATM    9  C   UNL     1       6.609  27.757  57.321  1.00  0.00     0.037 C 
HETATM   10  C   UNL     1       7.817  27.051  57.884  1.00  0.00     0.070 C 
HETATM   11  H   UNL     1       7.075  29.451  58.415  1.00  0.00     0.184 HD
ENDROOT
BRANCH   1  12
HETATM   12  C   UNL     1       5.764  25.757  56.099  1.00  0.00     0.256 C 
HETATM   13  N   UNL     1       6.775  25.487  55.197  1.00  0.00    -0.323 N 
HETATM   14  H   UNL     1       7.314  26.279  54.875  1.00  0.00     0.169 HD
HETATM   15  O   UNL     1       4.979  24.974  56.610  1.00  0.00    -0.267 OA
BRANCH  13  16
HETATM   16  C   UNL     1       7.157  24.227  54.678  1.00  0.00     0.041 A 
HETATM   17  C   UNL     1       7.348  24.095  53.285  1.00  0.00    -0.035 A 
HETATM   18  C   UNL     1       7.756  22.855  52.757  1.00  0.00     0.015 A 
HETATM   19  C   UNL     1       7.137  25.238  52.328  1.00  0.00     0.050 C 
HETATM   20  C   UNL     1       7.961  21.744  53.583  1.00  0.00    -0.061 A 
HETATM   21  C   UNL     1       8.435  20.441  53.014  1.00  0.00     0.048 C 
HETATM   22  C   UNL     1       7.774  21.888  54.957  1.00  0.00     0.009 A 
HETATM   23  C   UNL     1       7.372  23.114  55.496  1.00  0.00     0.030 A 
ENDBRANCH  13  16
ENDBRANCH   1  12
BRANCH   2  24
HETATM   24  C   UNL     1       4.691  28.214  54.366  1.00  0.00    -0.028 A 
HETATM   25  C   UNL     1       5.942  28.516  53.811  1.00  0.00     0.012 A 
HETATM   26  C   UNL     1       6.075  28.740  52.438  1.00  0.00     0.037 A 
HETATM   27  C   UNL     1       4.968  28.666  51.591  1.00  0.00     0.068 A 
HETATM   28  C   UNL     1       3.718  28.367  52.133  1.00  0.00     0.037 A 
HETATM   29  C   UNL     1       3.579  28.143  53.507  1.00  0.00     0.012 A 
BRANCH  27  30
HETATM   30  O   UNL     1       5.239  28.905  50.272  1.00  0.00    -0.356 OA
HETATM   31  C   UNL     1       5.080  27.812  49.377  1.00  0.00     0.210 C 
ENDBRANCH  27  30
ENDBRANCH   2  24
TORSDOF 4
ENDMDL
MODEL 2
REMARK VINA RESULT:      -9.0      2.932      5.109
REMARK  4 active torsions:
REMARK  status: ('A' for Active; 'I' for Inactive)
REMARK    1  A    between atoms: C_6  and  N_7 
REMARK       I    between atoms: N_7  and  C_8 
REMARK    2  A    between atoms: C_8  and  C_9 
REMARK    3  A    between atoms: C_10  and  C_11 
REMARK    4  A    between atoms: C_14  and  O_15 
ROOT
HETATM    1  C   UNL     1       6.211  26.288  52.141  1.00  0.00     0.062 C 
HETATM    2  C   UNL     1       6.627  27.742  52.324  1.00  0.00     0.202 C 
HETATM    3  N   UNL     1       5.739  28.630  51.562  1.00  0.00    -0.084 N 
HETATM    4  C   UNL     1       4.564  28.226  50.984  1.00  0.00     0.725 A 
HETATM    5  N   UNL     1       4.194  26.932  51.071  1.00  0.00    -0.192 N 
HETATM    6  N   UNL     1       6.012  29.917  51.265  1.00  0.00    -0.149 NA
HETATM    7  C   UNL     1       4.911  30.251  50.582  1.00  0.00     0.275 A 
HETATM    8  N   UNL     1       4.002  29.243  50.381  1.00  0.00    -0.054 NA
HETATM    9  C   UNL     1       5.031  25.941  51.572  1.00  0.00     0.037 C 
HETATM   10  C   UNL     1       4.535  24.524  51.433  1.00  0.00     0.070 C 
HETATM   11  H   UNL     1       3.343  26.640  50.599  1.00  0.00     0.184 HD
ENDROOT
BRANCH   1  12
HETATM   12  C   UNL     1       7.220  25.287  52.565  1.00  0.00     0.256 C 
HETATM   13  N   UNL     1       6.776  24.530  53.631  1.00  0.00    -0.323 N 
HETATM   14  H   UNL     1       5.870  24.771  54.007  1.00  0.00     0.169 HD
HETATM   15  O   UNL     1       8.278  25.195  51.961  1.00  0.00    -0.267 OA
BRANCH  13  16
HETATM   16  C   UNL     1       7.435  23.444  54.255  1.00  0.00     0.041 A 
HETATM   17  C   UNL     1       7.882  23.593  55.586  1.00  0.00    -0.035 A 
HETATM   18  C   UNL     1       8.514  22.512  56.229  1.00  0.00     0.015 A 
HETATM   19  C   UNL     1       7.705  24.874  56.359  1.00  0.00     0.050 C 
HETATM   20  C   UNL     1       8.723  21.295  55.571  1.00  0.00    -0.061 A 
HETATM   21  C   UNL     1       9.359  20.138  56.281  1.00  0.00     0.048 C 
HETATM   22  C   UNL     1       8.273  21.157  54.258  1.00  0.00     0.009 A 
HETATM   23  C   UNL     1       7.642  22.222  53.608  1.00  0.00     0.030 A 
ENDBRANCH  13  16
ENDBRANCH   1  12
BRANCH   2  24
HETATM   24  C   UNL     1       6.672  28.187  53.781  1.00  0.00    -0.028 A 
HETATM   25  C   UNL     1       5.480  28.440  54.473  1.00  0.00     0.012 A 
HETATM   26  C   UNL     1       5.506  28.854  55.807  1.00  0.00     0.037 A 
HETATM   27  C   UNL     1       6.717  29.024  56.479  1.00  0.00     0.068 A 
HETATM   28  C   UNL     1       7.910  28.776  55.801  1.00  0.00     0.037 A 
HETATM   29  C   UNL     1       7.889  28.362  54.464  1.00  0.00     0.012 A 
BRANCH  27  30
HETATM   30  O   UNL     1       6.598  29.431  57.780  1.00  0.00    -0.356 OA
HETATM   31  C   UNL     1       7.803  29.740  58.467  1.00  0.00     0.210 C 
ENDBRANCH  27  30
ENDBRANCH   2  24
TORSDOF 4
ENDMDL
MODEL 3
REMARK VINA RESULT:      -8.6      2.547      6.275
REMARK  4 active torsions:
REMARK  status: ('A' for Active; 'I' for Inactive)
REMARK    1  A    between atoms: C_6  and  N_7 
REMARK       I    between atoms: N_7  and  C_8 
REMARK    2  A    between atoms: C_8  and  C_9 
REMARK    3  A    between atoms: C_10  and  C_11 
REMARK    4  A    between atoms: C_14  and  O_15 
ROOT
HETATM    1  C   UNL     1       5.622  28.064  54.207  1.00  0.00     0.062 C 
HETATM    2  C   UNL     1       7.058  27.812  53.763  1.00  0.00     0.202 C 
HETATM    3  N   UNL     1       7.999  28.506  54.651  1.00  0.00    -0.084 N 
HETATM    4  C   UNL     1       7.646  29.079  55.844  1.00  0.00     0.725 A 
HETATM    5  N   UNL     1       6.356  29.055  56.234  1.00  0.00    -0.192 N 
HETATM    6  N   UNL     1       9.297  28.738  54.362  1.00  0.00    -0.149 NA
HETATM    7  C   UNL     1       9.685  29.379  55.470  1.00  0.00     0.275 A 
HETATM    8  N   UNL     1       8.703  29.614  56.400  1.00  0.00    -0.054 NA
HETATM    9  C   UNL     1       5.325  28.626  55.404  1.00  0.00     0.037 C 
HETATM   10  C   UNL     1       3.927  28.830  55.927  1.00  0.00     0.070 C 
HETATM   11  H   UNL     1       6.103  29.524  57.100  1.00  0.00     0.184 HD
ENDROOT
BRANCH   1  12
HETATM   12  C   UNL     1       4.584  27.716  53.207  1.00  0.00     0.256 C 
HETATM   13  N   UNL     1       4.430  28.710  52.260  1.00  0.00    -0.323 N 
HETATM   14  H   UNL     1       4.991  29.541  52.385  1.00  0.00     0.169 HD
HETATM   15  O   UNL     1       4.009  26.641  53.274  1.00  0.00    -0.267 OA
BRANCH  13  16
HETATM   16  C   UNL     1       3.588  28.699  51.124  1.00  0.00     0.041 A 
HETATM   17  C   UNL     1       4.003  27.990  49.975  1.00  0.00    -0.035 A 
HETATM   18  C   UNL     1       3.163  27.946  48.846  1.00  0.00     0.015 A 
HETATM   19  C   UNL     1       5.322  27.265  49.906  1.00  0.00     0.050 C 
HETATM   20  C   UNL     1       1.928  28.604  48.832  1.00  0.00    -0.061 A 
HETATM   21  C   UNL     1       1.024  28.515  47.640  1.00  0.00     0.048 C 
HETATM   22  C   UNL     1       1.525  29.297  49.974  1.00  0.00     0.009 A 
HETATM   23  C   UNL     1       2.349  29.347  51.103  1.00  0.00     0.030 A 
ENDBRANCH  13  16
ENDBRANCH   1  12
BRANCH   2  24
HETATM   24  C   UNL     1       7.422  26.333  53.681  1.00  0.00    -0.028 A 
HETATM   25  C   UNL     1       7.505  25.568  54.852  1.00  0.00     0.012 A 
HETATM   26  C   UNL     1       7.844  24.213  54.793  1.00  0.00     0.037 A 
HETATM   27  C   UNL     1       8.105  23.595  53.569  1.00  0.00     0.068 A 
HETATM   28  C   UNL     1       8.026  24.347  52.398  1.00  0.00     0.037 A 
HETATM   29  C   UNL     1       7.688  25.704  52.452  1.00  0.00     0.012 A 
BRANCH  27  30
HETATM   30  O   UNL     1       8.423  22.267  53.655  1.00  0.00    -0.356 OA
HETATM   31  C   UNL     1       9.282  21.881  54.721  1.00  0.00     0.210 C 
ENDBRANCH  27  30
ENDBRANCH   2  24
TORSDOF 4
ENDMDL
MODEL 4
REMARK VINA RESULT:      -8.4      1.804      2.302
REMARK  4 active torsions:
REMARK  status: ('A' for Active; 'I' for Inactive)
REMARK    1  A    between atoms: C_6  and  N_7 
REMARK       I    between atoms: N_7  and  C_8 
REMARK    2  A    between atoms: C_8  and  C_9 
REMARK    3  A    between atoms: C_10  and  C_11 
REMARK    4  A    between atoms: C_14  and  O_15 
ROOT
HETATM    1  C   UNL     1       6.557  28.538  55.337  1.00  0.00     0.062 C 
HETATM    2  C   UNL     1       5.044  28.690  55.441  1.00  0.00     0.202 C 
HETATM    3  N   UNL     1       4.693  29.582  56.553  1.00  0.00    -0.084 N 
HETATM    4  C   UNL     1       5.598  30.358  57.228  1.00  0.00     0.725 A 
HETATM    5  N   UNL     1       6.904  30.290  56.899  1.00  0.00    -0.192 N 
HETATM    6  N   UNL     1       3.463  29.679  57.099  1.00  0.00    -0.149 NA
HETATM    7  C   UNL     1       3.684  30.603  58.042  1.00  0.00     0.275 A 
HETATM    8  N   UNL     1       4.980  31.039  58.159  1.00  0.00    -0.054 NA
HETATM    9  C   UNL     1       7.411  29.339  56.019  1.00  0.00     0.037 C 
HETATM   10  C   UNL     1       8.912  29.285  55.897  1.00  0.00     0.070 C 
HETATM   11  H   UNL     1       7.568  30.838  57.439  1.00  0.00     0.184 HD
ENDROOT
BRANCH   1  12
HETATM   12  C   UNL     1       7.019  27.408  54.495  1.00  0.00     0.256 C 
HETATM   13  N   UNL     1       7.025  26.217  55.193  1.00  0.00    -0.323 N 
HETATM   14  H   UNL     1       6.765  26.265  56.168  1.00  0.00     0.169 HD
HETATM   15  O   UNL     1       7.308  27.599  53.324  1.00  0.00    -0.267 OA
BRANCH  13  16
HETATM   16  C   UNL     1       7.338  24.928  54.701  1.00  0.00     0.041 A 
HETATM   17  C   UNL     1       8.134  24.071  55.493  1.00  0.00    -0.035 A 
HETATM   18  C   UNL     1       8.430  22.775  55.030  1.00  0.00     0.015 A 
HETATM   19  C   UNL     1       8.680  24.487  56.834  1.00  0.00     0.050 C 
HETATM   20  C   UNL     1       7.967  22.322  53.790  1.00  0.00    -0.061 A 
HETATM   21  C   UNL     1       8.254  20.926  53.326  1.00  0.00     0.048 C 
HETATM   22  C   UNL     1       7.178  23.174  53.017  1.00  0.00     0.009 A 
HETATM   23  C   UNL     1       6.873  24.463  53.466  1.00  0.00     0.030 A 
ENDBRANCH  13  16
ENDBRANCH   1  12
BRANCH   2  24
HETATM   24  C   UNL     1       4.389  29.185  54.156  1.00  0.00    -0.028 A 
HETATM   25  C   UNL     1       4.438  30.547  53.828  1.00  0.00     0.012 A 
HETATM   26  C   UNL     1       3.837  31.018  52.657  1.00  0.00     0.037 A 
HETATM   27  C   UNL     1       3.177  30.143  51.791  1.00  0.00     0.068 A 
HETATM   28  C   UNL     1       3.122  28.787  52.109  1.00  0.00     0.037 A 
HETATM   29  C   UNL     1       3.721  28.311  53.281  1.00  0.00     0.012 A 
BRANCH  27  30
HETATM   30  O   UNL     1       2.636  30.735  50.683  1.00  0.00    -0.356 OA
HETATM   31  C   UNL     1       1.609  30.018  50.010  1.00  0.00     0.210 C 
ENDBRANCH  27  30
ENDBRANCH   2  24
TORSDOF 4
ENDMDL
MODEL 5
REMARK VINA RESULT:      -8.4      2.064      5.566
REMARK  4 active torsions:
REMARK  status: ('A' for Active; 'I' for Inactive)
REMARK    1  A    between atoms: C_6  and  N_7 
REMARK       I    between atoms: N_7  and  C_8 
REMARK    2  A    between atoms: C_8  and  C_9 
REMARK    3  A    between atoms: C_10  and  C_11 
REMARK    4  A    between atoms: C_14  and  O_15 
ROOT
HETATM    1  C   UNL     1       5.638  28.767  55.064  1.00  0.00     0.062 C 
HETATM    2  C   UNL     1       7.053  28.205  55.144  1.00  0.00     0.202 C 
HETATM    3  N   UNL     1       7.808  28.868  56.215  1.00  0.00    -0.084 N 
HETATM    4  C   UNL     1       7.243  29.683  57.160  1.00  0.00     0.725 A 
HETATM    5  N   UNL     1       5.921  29.942  57.106  1.00  0.00    -0.192 N 
HETATM    6  N   UNL     1       9.151  28.827  56.344  1.00  0.00    -0.149 NA
HETATM    7  C   UNL     1       9.314  29.568  57.447  1.00  0.00     0.275 A 
HETATM    8  N   UNL     1       8.172  30.116  57.974  1.00  0.00    -0.054 NA
HETATM    9  C   UNL     1       5.122  29.561  56.033  1.00  0.00     0.037 C 
HETATM   10  C   UNL     1       3.707  30.082  56.044  1.00  0.00     0.070 C 
HETATM   11  H   UNL     1       5.525  30.583  57.787  1.00  0.00     0.184 HD
ENDROOT
BRANCH   1  12
HETATM   12  C   UNL     1       4.900  28.438  53.821  1.00  0.00     0.256 C 
HETATM   13  N   UNL     1       5.745  28.346  52.732  1.00  0.00    -0.323 N 
HETATM   14  H   UNL     1       6.720  28.550  52.900  1.00  0.00     0.169 HD
HETATM   15  O   UNL     1       3.693  28.255  53.858  1.00  0.00    -0.267 OA
BRANCH  13  16
HETATM   16  C   UNL     1       5.410  27.987  51.405  1.00  0.00     0.041 A 
HETATM   17  C   UNL     1       5.110  26.636  51.121  1.00  0.00    -0.035 A 
HETATM   18  C   UNL     1       4.747  26.268  49.811  1.00  0.00     0.015 A 
HETATM   19  C   UNL     1       5.158  25.559  52.173  1.00  0.00     0.050 C 
HETATM   20  C   UNL     1       4.692  27.210  48.779  1.00  0.00    -0.061 A 
HETATM   21  C   UNL     1       4.264  26.813  47.399  1.00  0.00     0.048 C 
HETATM   22  C   UNL     1       4.985  28.542  49.072  1.00  0.00     0.009 A 
HETATM   23  C   UNL     1       5.345  28.923  50.368  1.00  0.00     0.030 A 
ENDBRANCH  13  16
ENDBRANCH   1  12
BRANCH   2  24
HETATM   24  C   UNL     1       7.101  26.694  55.339  1.00  0.00    -0.028 A 
HETATM   25  C   UNL     1       7.764  25.889  54.402  1.00  0.00     0.012 A 
HETATM   26  C   UNL     1       7.811  24.502  54.563  1.00  0.00     0.037 A 
HETATM   27  C   UNL     1       7.201  23.889  55.659  1.00  0.00     0.068 A 
HETATM   28  C   UNL     1       6.538  24.679  56.596  1.00  0.00     0.037 A 
HETATM   29  C   UNL     1       6.487  26.069  56.439  1.00  0.00     0.012 A 
BRANCH  27  30
HETATM   30  O   UNL     1       7.325  22.527  55.694  1.00  0.00    -0.356 OA
HETATM   31  C   UNL     1       8.354  21.998  56.521  1.00  0.00     0.210 C 
ENDBRANCH  27  30
ENDBRANCH   2  24
TORSDOF 4
ENDMDL
MODEL 6
REMARK VINA RESULT:      -8.2      2.867      6.641
REMARK  4 active torsions:
REMARK  status: ('A' for Active; 'I' for Inactive)
REMARK    1  A    between atoms: C_6  and  N_7 
REMARK       I    between atoms: N_7  and  C_8 
REMARK    2  A    between atoms: C_8  and  C_9 
REMARK    3  A    between atoms: C_10  and  C_11 
REMARK    4  A    between atoms: C_14  and  O_15 
ROOT
HETATM    1  C   UNL     1       6.391  25.199  53.757  1.00  0.00     0.062 C 
HETATM    2  C   UNL     1       6.304  25.331  55.273  1.00  0.00     0.202 C 
HETATM    3  N   UNL     1       7.343  24.520  55.919  1.00  0.00    -0.084 N 
HETATM    4  C   UNL     1       8.388  23.938  55.250  1.00  0.00     0.725 A 
HETATM    5  N   UNL     1       8.471  24.070  53.911  1.00  0.00    -0.192 N 
HETATM    6  N   UNL     1       7.346  24.177  57.224  1.00  0.00    -0.149 NA
HETATM    7  C   UNL     1       8.475  23.462  57.288  1.00  0.00     0.275 A 
HETATM    8  N   UNL     1       9.140  23.286  56.100  1.00  0.00    -0.054 NA
HETATM    9  C   UNL     1       7.453  24.624  53.143  1.00  0.00     0.037 C 
HETATM   10  C   UNL     1       7.628  24.534  51.649  1.00  0.00     0.070 C 
HETATM   11  H   UNL     1       9.227  23.595  53.425  1.00  0.00     0.184 HD
ENDROOT
BRANCH   1  12
HETATM   12  C   UNL     1       5.200  25.680  53.015  1.00  0.00     0.256 C 
HETATM   13  N   UNL     1       5.402  26.937  52.480  1.00  0.00    -0.323 N 
HETATM   14  H   UNL     1       6.286  27.379  52.690  1.00  0.00     0.169 HD
HETATM   15  O   UNL     1       4.215  24.965  52.913  1.00  0.00    -0.267 OA
BRANCH  13  16
HETATM   16  C   UNL     1       4.520  27.680  51.660  1.00  0.00     0.041 A 
HETATM   17  C   UNL     1       3.722  28.684  52.251  1.00  0.00    -0.035 A 
HETATM   18  C   UNL     1       2.862  29.450  51.442  1.00  0.00     0.015 A 
HETATM   19  C   UNL     1       3.758  28.978  53.728  1.00  0.00     0.050 C 
HETATM   20  C   UNL     1       2.767  29.227  50.065  1.00  0.00    -0.061 A 
HETATM   21  C   UNL     1       1.878  30.078  49.208  1.00  0.00     0.048 C 
HETATM   22  C   UNL     1       3.563  28.237  49.490  1.00  0.00     0.009 A 
HETATM   23  C   UNL     1       4.424  27.470  50.280  1.00  0.00     0.030 A 
ENDBRANCH  13  16
ENDBRANCH   1  12
BRANCH   2  24
HETATM   24  C   UNL     1       6.392  26.771  55.767  1.00  0.00    -0.028 A 
HETATM   25  C   UNL     1       5.415  27.272  56.638  1.00  0.00     0.012 A 
HETATM   26  C   UNL     1       5.479  28.592  57.095  1.00  0.00     0.037 A 
HETATM   27  C   UNL     1       6.516  29.436  56.695  1.00  0.00     0.068 A 
HETATM   28  C   UNL     1       7.493  28.949  55.829  1.00  0.00     0.037 A 
HETATM   29  C   UNL     1       7.433  27.628  55.368  1.00  0.00     0.012 A 
BRANCH  27  30
HETATM   30  O   UNL     1       6.458  30.699  57.217  1.00  0.00    -0.356 OA
HETATM   31  C   UNL     1       7.085  30.902  58.477  1.00  0.00     0.210 C 
ENDBRANCH  27  30
ENDBRANCH   2  24
TORSDOF 4
ENDMDL
MODEL 7
REMARK VINA RESULT:      -8.0      2.830      7.673
REMARK  4 active torsions:
REMARK  status: ('A' for Active; 'I' for Inactive)
REMARK    1  A    between atoms: C_6  and  N_7 
REMARK       I    between atoms: N_7  and  C_8 
REMARK    2  A    between atoms: C_8  and  C_9 
REMARK    3  A    between atoms: C_10  and  C_11 
REMARK    4  A    between atoms: C_14  and  O_15 
ROOT
HETATM    1  C   UNL     1       5.583  27.130  53.123  1.00  0.00     0.062 C 
HETATM    2  C   UNL     1       6.189  26.398  54.315  1.00  0.00     0.202 C 
HETATM    3  N   UNL     1       6.962  25.234  53.863  1.00  0.00    -0.084 N 
HETATM    4  C   UNL     1       7.295  24.996  52.556  1.00  0.00     0.725 A 
HETATM    5  N   UNL     1       6.868  25.844  51.599  1.00  0.00    -0.192 N 
HETATM    6  N   UNL     1       7.358  24.220  54.661  1.00  0.00    -0.149 NA
HETATM    7  C   UNL     1       8.005  23.451  53.778  1.00  0.00     0.275 A 
HETATM    8  N   UNL     1       7.984  23.886  52.477  1.00  0.00    -0.054 NA
HETATM    9  C   UNL     1       5.955  26.864  51.848  1.00  0.00     0.037 C 
HETATM   10  C   UNL     1       5.446  27.605  50.638  1.00  0.00     0.070 C 
HETATM   11  H   UNL     1       7.085  25.629  50.629  1.00  0.00     0.184 HD
ENDROOT
BRANCH   1  12
HETATM   12  C   UNL     1       4.510  28.098  53.459  1.00  0.00     0.256 C 
HETATM   13  N   UNL     1       5.006  29.376  53.623  1.00  0.00    -0.323 N 
HETATM   14  H   UNL     1       6.007  29.485  53.541  1.00  0.00     0.169 HD
HETATM   15  O   UNL     1       3.350  27.722  53.528  1.00  0.00    -0.267 OA
BRANCH  13  16
HETATM   16  C   UNL     1       4.276  30.560  53.879  1.00  0.00     0.041 A 
HETATM   17  C   UNL     1       4.468  31.226  55.110  1.00  0.00    -0.035 A 
HETATM   18  C   UNL     1       3.769  32.421  55.368  1.00  0.00     0.015 A 
HETATM   19  C   UNL     1       5.404  30.708  56.171  1.00  0.00     0.050 C 
HETATM   20  C   UNL     1       2.875  32.956  54.436  1.00  0.00    -0.061 A 
HETATM   21  C   UNL     1       2.169  34.251  54.704  1.00  0.00     0.048 C 
HETATM   22  C   UNL     1       2.696  32.294  53.221  1.00  0.00     0.009 A 
HETATM   23  C   UNL     1       3.385  31.108  52.951  1.00  0.00     0.030 A 
ENDBRANCH  13  16
ENDBRANCH   1  12
BRANCH   2  24
HETATM   24  C   UNL     1       7.060  27.284  55.198  1.00  0.00    -0.028 A 
HETATM   25  C   UNL     1       7.986  28.160  54.613  1.00  0.00     0.012 A 
HETATM   26  C   UNL     1       8.796  28.973  55.409  1.00  0.00     0.037 A 
HETATM   27  C   UNL     1       8.701  28.932  56.801  1.00  0.00     0.068 A 
HETATM   28  C   UNL     1       7.785  28.065  57.394  1.00  0.00     0.037 A 
HETATM   29  C   UNL     1       6.972  27.247  56.601  1.00  0.00     0.012 A 
BRANCH  27  30
HETATM   30  O   UNL     1       9.550  29.780  57.458  1.00  0.00    -0.356 OA
HETATM   31  C   UNL     1      10.895  29.825  56.996  1.00  0.00     0.210 C 
ENDBRANCH  27  30
ENDBRANCH   2  24
TORSDOF 4
ENDMDL
MODEL 8
REMARK VINA RESULT:      -8.0      7.622     11.454
REMARK  4 active torsions:
REMARK  status: ('A' for Active; 'I' for Inactive)
REMARK    1  A    between atoms: C_6  and  N_7 
REMARK       I    between atoms: N_7  and  C_8 
REMARK    2  A    between atoms: C_8  and  C_9 
REMARK    3  A    between atoms: C_10  and  C_11 
REMARK    4  A    between atoms: C_14  and  O_15 
ROOT
HETATM    1  C   UNL     1       5.766  33.239  63.367  1.00  0.00     0.062 C 
HETATM    2  C   UNL     1       4.862  34.179  64.155  1.00  0.00     0.202 C 
HETATM    3  N   UNL     1       5.367  34.349  65.524  1.00  0.00    -0.084 N 
HETATM    4  C   UNL     1       6.601  33.927  65.943  1.00  0.00     0.725 A 
HETATM    5  N   UNL     1       7.408  33.279  65.080  1.00  0.00    -0.192 N 
HETATM    6  N   UNL     1       4.649  34.856  66.548  1.00  0.00    -0.149 NA
HETATM    7  C   UNL     1       5.550  34.793  67.535  1.00  0.00     0.275 A 
HETATM    8  N   UNL     1       6.756  34.224  67.209  1.00  0.00    -0.054 NA
HETATM    9  C   UNL     1       6.985  32.860  63.823  1.00  0.00     0.037 C 
HETATM   10  C   UNL     1       7.951  31.994  63.055  1.00  0.00     0.070 C 
HETATM   11  H   UNL     1       8.301  32.933  65.419  1.00  0.00     0.184 HD
ENDROOT
BRANCH   1  12
HETATM   12  C   UNL     1       5.185  32.717  62.107  1.00  0.00     0.256 C 
HETATM   13  N   UNL     1       5.751  33.311  60.996  1.00  0.00    -0.323 N 
HETATM   14  H   UNL     1       6.435  34.034  61.171  1.00  0.00     0.169 HD
HETATM   15  O   UNL     1       4.334  31.842  62.145  1.00  0.00    -0.267 OA
BRANCH  13  16
HETATM   16  C   UNL     1       5.497  33.019  59.635  1.00  0.00     0.041 A 
HETATM   17  C   UNL     1       4.653  33.880  58.900  1.00  0.00    -0.035 A 
HETATM   18  C   UNL     1       4.414  33.618  57.537  1.00  0.00     0.015 A 
HETATM   19  C   UNL     1       3.994  35.086  59.517  1.00  0.00     0.050 C 
HETATM   20  C   UNL     1       4.982  32.511  56.898  1.00  0.00    -0.061 A 
HETATM   21  C   UNL     1       4.754  32.266  55.437  1.00  0.00     0.048 C 
HETATM   22  C   UNL     1       5.818  31.670  57.632  1.00  0.00     0.009 A 
HETATM   23  C   UNL     1       6.066  31.919  58.986  1.00  0.00     0.030 A 
ENDBRANCH  13  16
ENDBRANCH   1  12
BRANCH   2  24
HETATM   24  C   UNL     1       4.681  35.544  63.500  1.00  0.00    -0.028 A 
HETATM   25  C   UNL     1       5.792  36.371  63.287  1.00  0.00     0.012 A 
HETATM   26  C   UNL     1       5.640  37.627  62.694  1.00  0.00     0.037 A 
HETATM   27  C   UNL     1       4.381  38.084  62.300  1.00  0.00     0.068 A 
HETATM   28  C   UNL     1       3.269  37.271  62.508  1.00  0.00     0.037 A 
HETATM   29  C   UNL     1       3.415  36.012  63.103  1.00  0.00     0.012 A 
BRANCH  27  30
HETATM   30  O   UNL     1       4.376  39.329  61.733  1.00  0.00    -0.356 OA
HETATM   31  C   UNL     1       5.463  40.186  62.057  1.00  0.00     0.210 C 
ENDBRANCH  27  30
ENDBRANCH   2  24
TORSDOF 4
ENDMDL
MODEL 9
REMARK VINA RESULT:      -8.0      7.140     10.547
REMARK  4 active torsions:
REMARK  status: ('A' for Active; 'I' for Inactive)
REMARK    1  A    between atoms: C_6  and  N_7 
REMARK       I    between atoms: N_7  and  C_8 
REMARK    2  A    between atoms: C_8  and  C_9 
REMARK    3  A    between atoms: C_10  and  C_11 
REMARK    4  A    between atoms: C_14  and  O_15 
ROOT
HETATM    1  C   UNL     1       5.464  33.352  63.821  1.00  0.00     0.062 C 
HETATM    2  C   UNL     1       4.048  33.876  64.024  1.00  0.00     0.202 C 
HETATM    3  N   UNL     1       3.957  34.637  65.276  1.00  0.00    -0.084 N 
HETATM    4  C   UNL     1       5.042  35.029  66.015  1.00  0.00     0.725 A 
HETATM    5  N   UNL     1       6.279  34.675  65.614  1.00  0.00    -0.192 N 
HETATM    6  N   UNL     1       2.802  34.964  65.892  1.00  0.00    -0.149 NA
HETATM    7  C   UNL     1       3.269  35.633  66.952  1.00  0.00     0.275 A 
HETATM    8  N   UNL     1       4.635  35.690  67.069  1.00  0.00    -0.054 NA
HETATM    9  C   UNL     1       6.507  33.780  64.573  1.00  0.00     0.037 C 
HETATM   10  C   UNL     1       7.938  33.354  64.369  1.00  0.00     0.070 C 
HETATM   11  H   UNL     1       7.070  34.935  66.196  1.00  0.00     0.184 HD
ENDROOT
BRANCH   1  12
HETATM   12  C   UNL     1       5.601  32.291  62.793  1.00  0.00     0.256 C 
HETATM   13  N   UNL     1       6.380  32.705  61.730  1.00  0.00    -0.323 N 
HETATM   14  H   UNL     1       6.712  33.659  61.759  1.00  0.00     0.169 HD
HETATM   15  O   UNL     1       5.079  31.201  62.968  1.00  0.00    -0.267 OA
BRANCH  13  16
HETATM   16  C   UNL     1       6.781  31.946  60.605  1.00  0.00     0.041 A 
HETATM   17  C   UNL     1       7.944  31.150  60.701  1.00  0.00    -0.035 A 
HETATM   18  C   UNL     1       8.340  30.367  59.599  1.00  0.00     0.015 A 
HETATM   19  C   UNL     1       8.787  31.097  61.948  1.00  0.00     0.050 C 
HETATM   20  C   UNL     1       7.613  30.373  58.404  1.00  0.00    -0.061 A 
HETATM   21  C   UNL     1       8.021  29.504  57.253  1.00  0.00     0.048 C 
HETATM   22  C   UNL     1       6.464  31.159  58.322  1.00  0.00     0.009 A 
HETATM   23  C   UNL     1       6.058  31.939  59.409  1.00  0.00     0.030 A 
ENDBRANCH  13  16
ENDBRANCH   1  12
BRANCH   2  24
HETATM   24  C   UNL     1       3.539  34.727  62.865  1.00  0.00    -0.028 A 
HETATM   25  C   UNL     1       2.410  34.319  62.142  1.00  0.00     0.012 A 
HETATM   26  C   UNL     1       1.935  35.085  61.073  1.00  0.00     0.037 A 
HETATM   27  C   UNL     1       2.574  36.270  60.705  1.00  0.00     0.068 A 
HETATM   28  C   UNL     1       3.699  36.685  61.416  1.00  0.00     0.037 A 
HETATM   29  C   UNL     1       4.178  35.921  62.486  1.00  0.00     0.012 A 
BRANCH  27  30
HETATM   30  O   UNL     1       2.005  36.920  59.644  1.00  0.00    -0.356 OA
HETATM   31  C   UNL     1       1.285  36.122  58.714  1.00  0.00     0.210 C 
ENDBRANCH  27  30
ENDBRANCH   2  24
TORSDOF 4
ENDMDL
MODEL 10
REMARK VINA RESULT:      -7.9      2.528      3.540
REMARK  4 active torsions:
REMARK  status: ('A' for Active; 'I' for Inactive)
REMARK    1  A    between atoms: C_6  and  N_7 
REMARK       I    between atoms: N_7  and  C_8 
REMARK    2  A    between atoms: C_8  and  C_9 
REMARK    3  A    between atoms: C_10  and  C_11 
REMARK    4  A    between atoms: C_14  and  O_15 
ROOT
HETATM    1  C   UNL     1       6.615  30.131  57.580  1.00  0.00     0.062 C 
HETATM    2  C   UNL     1       5.107  30.315  57.466  1.00  0.00     0.202 C 
HETATM    3  N   UNL     1       4.619  31.219  58.516  1.00  0.00    -0.084 N 
HETATM    4  C   UNL     1       5.434  31.978  59.313  1.00  0.00     0.725 A 
HETATM    5  N   UNL     1       6.772  31.881  59.175  1.00  0.00    -0.192 N 
HETATM    6  N   UNL     1       3.326  31.343  58.880  1.00  0.00    -0.149 NA
HETATM    7  C   UNL     1       3.429  32.266  59.843  1.00  0.00     0.275 A 
HETATM    8  N   UNL     1       4.704  32.676  60.144  1.00  0.00    -0.054 NA
HETATM    9  C   UNL     1       7.379  30.917  58.377  1.00  0.00     0.037 C 
HETATM   10  C   UNL     1       8.881  30.830  58.472  1.00  0.00     0.070 C 
HETATM   11  H   UNL     1       7.364  32.417  59.803  1.00  0.00     0.184 HD
ENDROOT
BRANCH   1  12
HETATM   12  C   UNL     1       7.169  28.989  56.814  1.00  0.00     0.256 C 
HETATM   13  N   UNL     1       6.908  27.781  57.432  1.00  0.00    -0.323 N 
HETATM   14  H   UNL     1       6.428  27.825  58.320  1.00  0.00     0.169 HD
HETATM   15  O   UNL     1       7.745  29.187  55.755  1.00  0.00    -0.267 OA
BRANCH  13  16
HETATM   16  C   UNL     1       7.221  26.484  56.962  1.00  0.00     0.041 A 
HETATM   17  C   UNL     1       6.411  25.909  55.958  1.00  0.00    -0.035 A 
HETATM   18  C   UNL     1       6.728  24.631  55.460  1.00  0.00     0.015 A 
HETATM   19  C   UNL     1       5.212  26.617  55.384  1.00  0.00     0.050 C 
HETATM   20  C   UNL     1       7.820  23.909  55.952  1.00  0.00    -0.061 A 
HETATM   21  C   UNL     1       8.171  22.566  55.385  1.00  0.00     0.048 C 
HETATM   22  C   UNL     1       8.616  24.487  56.940  1.00  0.00     0.009 A 
HETATM   23  C   UNL     1       8.315  25.757  57.442  1.00  0.00     0.030 A 
ENDBRANCH  13  16
ENDBRANCH   1  12
BRANCH   2  24
HETATM   24  C   UNL     1       4.654  30.819  56.100  1.00  0.00    -0.028 A 
HETATM   25  C   UNL     1       3.984  29.955  55.223  1.00  0.00     0.012 A 
HETATM   26  C   UNL     1       3.569  30.401  53.965  1.00  0.00     0.037 A 
HETATM   27  C   UNL     1       3.810  31.714  53.557  1.00  0.00     0.068 A 
HETATM   28  C   UNL     1       4.475  32.582  54.421  1.00  0.00     0.037 A 
HETATM   29  C   UNL     1       4.895  32.140  55.681  1.00  0.00     0.012 A 
BRANCH  27  30
HETATM   30  O   UNL     1       3.349  32.018  52.305  1.00  0.00    -0.356 OA
HETATM   31  C   UNL     1       2.889  30.932  51.511  1.00  0.00     0.210 C 
ENDBRANCH  27  30
ENDBRANCH   2  24
TORSDOF 4
ENDMDL
