MODEL 1
REMARK VINA RESULT:      -8.3      0.000      0.000
REMARK  10 active torsions:
REMARK  status: ('A' for Active; 'I' for Inactive)
REMARK    1  A    between atoms: C_2  and  O_3 
REMARK    2  A    between atoms: O_3  and  C_4 
REMARK    3  A    between atoms: C_4  and  C_5 
REMARK    4  A    between atoms: C_6  and  C_7 
REMARK    5  A    between atoms: C_16  and  C_17 
REMARK    6  A    between atoms: C_17  and  C_18 
REMARK       I    between atoms: C_18  and  N_19 
REMARK    7  A    between atoms: N_19  and  C_20 
REMARK    8  A    between atoms: C_20  and  C_21 
REMARK    9  A    between atoms: C_21  and  N_22 
REMARK   10  A    between atoms: C_31  and  C_32 
ROOT
HETATM    1  C   UNL     1       7.910  26.651  56.071  1.00  0.00     0.075 C 
HETATM    2  C   UNL     1       6.692  26.657  55.113  1.00  0.00     0.151 C 
HETATM    3  N   UNL     1       6.800  25.960  53.867  1.00  0.00    -0.321 N 
HETATM    4  C   UNL     1       6.323  26.077  52.675  1.00  0.00     0.011 C 
HETATM    5  C   UNL     1       7.306  24.576  54.174  1.00  0.00     0.170 C 
HETATM    6  S   UNL     1       7.094  23.494  52.847  1.00  0.00    -0.086 SA
HETATM    7  C   UNL     1       6.533  24.869  51.787  1.00  0.00     0.135 C 
HETATM    8  N   UNL     1       7.747  24.257  55.331  1.00  0.00    -0.219 NA
HETATM    9  C   UNL     1       8.102  25.234  56.307  1.00  0.00     0.157 C 
ENDROOT
BRANCH   4  10
HETATM   10  C   UNL     1       5.474  27.252  52.282  1.00  0.00     0.156 C 
BRANCH  10  11
HETATM   11  C   UNL     1       5.218  27.375  50.795  1.00  0.00     0.223 C 
HETATM   12  N   UNL     1       4.321  26.468  50.288  1.00  0.00    -0.359 N 
HETATM   13  H   UNL     1       3.940  25.755  50.906  1.00  0.00     0.162 HD
HETATM   14  O   UNL     1       5.744  28.243  50.104  1.00  0.00    -0.273 OA
BRANCH  12  15
HETATM   15  C   UNL     1       4.068  26.266  48.860  1.00  0.00     0.150 C 
BRANCH  15  16
HETATM   16  C   UNL     1       3.178  27.330  48.183  1.00  0.00     0.253 C 
BRANCH  16  17
HETATM   17  N   UNL     1       1.780  27.378  48.769  1.00  0.00    -0.077 N 
HETATM   18  H   UNL     1       1.680  26.549  49.388  1.00  0.00     0.279 HD
HETATM   19  C   UNL     1       1.535  28.582  49.637  1.00  0.00     0.269 C 
HETATM   20  C   UNL     1       0.724  27.261  47.705  1.00  0.00     0.269 C 
ENDBRANCH  16  17
ENDBRANCH  15  16
ENDBRANCH  12  15
ENDBRANCH  10  11
ENDBRANCH   4  10
BRANCH   2  21
HETATM   21  C   UNL     1       7.131  28.011  55.167  1.00  0.00     0.044 C 
HETATM   22  C   UNL     1       6.597  28.411  56.888  1.00  0.00    -0.068 C 
HETATM   23  C   UNL     1       7.569  28.539  58.011  1.00  0.00     0.044 C 
HETATM   24  C   UNL     1       4.888  28.805  57.108  1.00  0.00     0.004 C 
HETATM   25  C   UNL     1       3.787  28.900  55.695  1.00  0.00     0.007 C 
HETATM   26  C   UNL     1       4.380  28.698  54.003  1.00  0.00    -0.065 C 
HETATM   27  C   UNL     1       3.474  29.039  52.856  1.00  0.00     0.048 C 
HETATM   28  C   UNL     1       6.080  28.340  53.683  1.00  0.00    -0.002 C 
ENDBRANCH   2  21
BRANCH   1  29
HETATM   29  C   UNL     1       8.542  28.652  56.495  1.00  0.00     0.293 C 
HETATM   30  O   UNL     1       8.085  29.713  55.971  1.00  0.00    -0.259 OA
BRANCH  29  31
HETATM   31  O   UNL     1       9.568  29.053  57.421  1.00  0.00    -0.318 OA
BRANCH  31  32
HETATM   32  C   UNL     1      10.551  30.044  57.047  1.00  0.00     0.174 C 
HETATM   33  C   UNL     1      10.504  31.207  58.018  1.00  0.00     0.034 C 
ENDBRANCH  31  32
ENDBRANCH  29  31
ENDBRANCH   1  29
BRANCH   9  34
HETATM   34  C   UNL     1       8.867  24.449  57.443  1.00  0.00     0.435 C 
HETATM   35  F   UNL     1       8.507  23.131  57.428  1.00  0.00    -0.165 F 
HETATM   36  F   UNL     1      10.211  24.462  57.264  1.00  0.00    -0.165 F 
HETATM   37  F   UNL     1       8.583  24.867  58.698  1.00  0.00    -0.165 F 
ENDBRANCH   9  34
TORSDOF 10
ENDMDL
MODEL 2
REMARK VINA RESULT:      -8.3      1.060      1.473
REMARK  10 active torsions:
REMARK  status: ('A' for Active; 'I' for Inactive)
REMARK    1  A    between atoms: C_2  and  O_3 
REMARK    2  A    between atoms: O_3  and  C_4 
REMARK    3  A    between atoms: C_4  and  C_5 
REMARK    4  A    between atoms: C_6  and  C_7 
REMARK    5  A    between atoms: C_16  and  C_17 
REMARK    6  A    between atoms: C_17  and  C_18 
REMARK       I    between atoms: C_18  and  N_19 
REMARK    7  A    between atoms: N_19  and  C_20 
REMARK    8  A    between atoms: C_20  and  C_21 
REMARK    9  A    between atoms: C_21  and  N_22 
REMARK   10  A    between atoms: C_31  and  C_32 
ROOT
HETATM    1  C   UNL     1       7.560  26.778  55.808  1.00  0.00     0.075 C 
HETATM    2  C   UNL     1       6.243  27.075  55.048  1.00  0.00     0.151 C 
HETATM    3  N   UNL     1       6.071  26.519  53.739  1.00  0.00    -0.321 N 
HETATM    4  C   UNL     1       5.465  26.844  52.647  1.00  0.00     0.011 C 
HETATM    5  C   UNL     1       6.381  25.049  53.835  1.00  0.00     0.170 C 
HETATM    6  S   UNL     1       5.822  24.173  52.458  1.00  0.00    -0.086 SA
HETATM    7  C   UNL     1       5.356  25.729  51.628  1.00  0.00     0.135 C 
HETATM    8  N   UNL     1       6.914  24.536  54.878  1.00  0.00    -0.219 NA
HETATM    9  C   UNL     1       7.549  25.330  55.877  1.00  0.00     0.157 C 
ENDROOT
BRANCH   4  10
HETATM   10  C   UNL     1       4.773  28.168  52.498  1.00  0.00     0.156 C 
BRANCH  10  11
HETATM   11  C   UNL     1       4.515  28.587  51.066  1.00  0.00     0.223 C 
HETATM   12  N   UNL     1       3.230  28.382  50.630  1.00  0.00    -0.359 N 
HETATM   13  H   UNL     1       2.566  27.925  51.251  1.00  0.00     0.162 HD
HETATM   14  O   UNL     1       5.379  29.103  50.363  1.00  0.00    -0.273 OA
BRANCH  12  15
HETATM   15  C   UNL     1       2.799  28.522  49.237  1.00  0.00     0.150 C 
BRANCH  15  16
HETATM   16  C   UNL     1       2.374  27.214  48.536  1.00  0.00     0.253 C 
BRANCH  16  17
HETATM   17  N   UNL     1       3.448  26.145  48.598  1.00  0.00    -0.077 N 
HETATM   18  H   UNL     1       3.675  25.999  49.601  1.00  0.00     0.279 HD
HETATM   19  C   UNL     1       2.996  24.811  48.071  1.00  0.00     0.269 C 
HETATM   20  C   UNL     1       4.716  26.587  47.920  1.00  0.00     0.269 C 
ENDBRANCH  16  17
ENDBRANCH  15  16
ENDBRANCH  12  15
ENDBRANCH  10  11
ENDBRANCH   4  10
BRANCH   2  21
HETATM   21  C   UNL     1       6.899  28.334  55.163  1.00  0.00     0.044 C 
HETATM   22  C   UNL     1       6.644  28.619  56.969  1.00  0.00    -0.068 C 
HETATM   23  C   UNL     1       7.750  28.476  57.958  1.00  0.00     0.044 C 
HETATM   24  C   UNL     1       5.060  29.238  57.449  1.00  0.00     0.004 C 
HETATM   25  C   UNL     1       3.830  29.650  56.211  1.00  0.00     0.007 C 
HETATM   26  C   UNL     1       4.178  29.548  54.443  1.00  0.00    -0.065 C 
HETATM   27  C   UNL     1       3.211  30.144  53.463  1.00  0.00     0.048 C 
HETATM   28  C   UNL     1       5.748  28.976  53.868  1.00  0.00    -0.002 C 
ENDBRANCH   2  21
BRANCH   1  29
HETATM   29  C   UNL     1       8.559  28.600  56.320  1.00  0.00     0.293 C 
HETATM   30  O   UNL     1       8.216  29.771  55.973  1.00  0.00    -0.259 OA
BRANCH  29  31
HETATM   31  O   UNL     1       9.750  28.735  57.116  1.00  0.00    -0.318 OA
BRANCH  31  32
HETATM   32  C   UNL     1      10.772  29.692  56.757  1.00  0.00     0.174 C 
HETATM   33  C   UNL     1      10.802  30.817  57.772  1.00  0.00     0.034 C 
ENDBRANCH  31  32
ENDBRANCH  29  31
ENDBRANCH   1  29
BRANCH   9  34
HETATM   34  C   UNL     1       8.319  24.313  56.807  1.00  0.00     0.435 C 
HETATM   35  F   UNL     1       7.555  23.203  57.026  1.00  0.00    -0.165 F 
HETATM   36  F   UNL     1       9.465  23.862  56.240  1.00  0.00    -0.165 F 
HETATM   37  F   UNL     1       8.595  24.788  58.045  1.00  0.00    -0.165 F 
ENDBRANCH   9  34
TORSDOF 10
ENDMDL
MODEL 3
REMARK VINA RESULT:      -7.9      0.879      1.166
REMARK  10 active torsions:
REMARK  status: ('A' for Active; 'I' for Inactive)
REMARK    1  A    between atoms: C_2  and  O_3 
REMARK    2  A    between atoms: O_3  and  C_4 
REMARK    3  A    between atoms: C_4  and  C_5 
REMARK    4  A    between atoms: C_6  and  C_7 
REMARK    5  A    between atoms: C_16  and  C_17 
REMARK    6  A    between atoms: C_17  and  C_18 
REMARK       I    between atoms: C_18  and  N_19 
REMARK    7  A    between atoms: N_19  and  C_20 
REMARK    8  A    between atoms: C_20  and  C_21 
REMARK    9  A    between atoms: C_21  and  N_22 
REMARK   10  A    between atoms: C_31  and  C_32 
ROOT
HETATM    1  C   UNL     1       7.651  26.830  55.939  1.00  0.00     0.075 C 
HETATM    2  C   UNL     1       6.380  27.047  55.079  1.00  0.00     0.151 C 
HETATM    3  N   UNL     1       6.316  26.429  53.789  1.00  0.00    -0.321 N 
HETATM    4  C   UNL     1       5.777  26.683  52.645  1.00  0.00     0.011 C 
HETATM    5  C   UNL     1       6.665  24.976  53.973  1.00  0.00     0.170 C 
HETATM    6  S   UNL     1       6.230  24.021  52.604  1.00  0.00    -0.086 SA
HETATM    7  C   UNL     1       5.773  25.522  51.673  1.00  0.00     0.135 C 
HETATM    8  N   UNL     1       7.141  24.528  55.072  1.00  0.00    -0.219 NA
HETATM    9  C   UNL     1       7.681  25.386  56.074  1.00  0.00     0.157 C 
ENDROOT
BRANCH   4  10
HETATM   10  C   UNL     1       5.056  27.976  52.389  1.00  0.00     0.156 C 
BRANCH  10  11
HETATM   11  C   UNL     1       4.741  28.243  50.932  1.00  0.00     0.223 C 
HETATM   12  N   UNL     1       3.496  27.833  50.528  1.00  0.00    -0.359 N 
HETATM   13  H   UNL     1       2.901  27.339  51.190  1.00  0.00     0.162 HD
HETATM   14  O   UNL     1       5.526  28.816  50.181  1.00  0.00    -0.273 OA
BRANCH  12  15
HETATM   15  C   UNL     1       3.047  27.805  49.134  1.00  0.00     0.150 C 
BRANCH  15  16
HETATM   16  C   UNL     1       1.561  28.156  48.904  1.00  0.00     0.253 C 
BRANCH  16  17
HETATM   17  N   UNL     1       1.280  28.594  47.481  1.00  0.00    -0.077 N 
HETATM   18  H   UNL     1       0.469  29.242  47.515  1.00  0.00     0.279 HD
HETATM   19  C   UNL     1       2.410  29.367  46.857  1.00  0.00     0.269 C 
HETATM   20  C   UNL     1       0.879  27.435  46.609  1.00  0.00     0.269 C 
ENDBRANCH  16  17
ENDBRANCH  15  16
ENDBRANCH  12  15
ENDBRANCH  10  11
ENDBRANCH   4  10
BRANCH   2  21
HETATM   21  C   UNL     1       6.988  28.332  55.180  1.00  0.00     0.044 C 
HETATM   22  C   UNL     1       6.608  28.683  56.952  1.00  0.00    -0.068 C 
HETATM   23  C   UNL     1       7.652  28.621  58.014  1.00  0.00     0.044 C 
HETATM   24  C   UNL     1       4.977  29.266  57.303  1.00  0.00     0.004 C 
HETATM   25  C   UNL     1       3.817  29.583  55.973  1.00  0.00     0.007 C 
HETATM   26  C   UNL     1       4.281  29.419  54.237  1.00  0.00    -0.065 C 
HETATM   27  C   UNL     1       3.361  29.940  53.173  1.00  0.00     0.048 C 
HETATM   28  C   UNL     1       5.902  28.879  53.788  1.00  0.00    -0.002 C 
ENDBRANCH   2  21
BRANCH   1  29
HETATM   29  C   UNL     1       8.555  28.706  56.432  1.00  0.00     0.293 C 
HETATM   30  O   UNL     1       8.174  29.851  56.042  1.00  0.00    -0.259 OA
BRANCH  29  31
HETATM   31  O   UNL     1       9.712  28.913  57.262  1.00  0.00    -0.318 OA
BRANCH  31  32
HETATM   32  C   UNL     1      10.700  29.908  56.913  1.00  0.00     0.174 C 
HETATM   33  C   UNL     1      10.621  31.072  57.880  1.00  0.00     0.034 C 
ENDBRANCH  31  32
ENDBRANCH  29  31
ENDBRANCH   1  29
BRANCH   9  34
HETATM   34  C   UNL     1       8.417  24.439  57.100  1.00  0.00     0.435 C 
HETATM   35  F   UNL     1       9.723  24.273  56.734  1.00  0.00    -0.165 F 
HETATM   36  F   UNL     1       8.452  24.962  58.351  1.00  0.00    -0.165 F 
HETATM   37  F   UNL     1       7.916  23.183  57.159  1.00  0.00    -0.165 F 
ENDBRANCH   9  34
TORSDOF 10
ENDMDL
MODEL 4
REMARK VINA RESULT:      -7.7      5.458      7.825
REMARK  10 active torsions:
REMARK  status: ('A' for Active; 'I' for Inactive)
REMARK    1  A    between atoms: C_2  and  O_3 
REMARK    2  A    between atoms: O_3  and  C_4 
REMARK    3  A    between atoms: C_4  and  C_5 
REMARK    4  A    between atoms: C_6  and  C_7 
REMARK    5  A    between atoms: C_16  and  C_17 
REMARK    6  A    between atoms: C_17  and  C_18 
REMARK       I    between atoms: C_18  and  N_19 
REMARK    7  A    between atoms: N_19  and  C_20 
REMARK    8  A    between atoms: C_20  and  C_21 
REMARK    9  A    between atoms: C_21  and  N_22 
REMARK   10  A    between atoms: C_31  and  C_32 
ROOT
HETATM    1  C   UNL     1       6.642  31.858  60.073  1.00  0.00     0.075 C 
HETATM    2  C   UNL     1       6.921  31.213  58.691  1.00  0.00     0.151 C 
HETATM    3  N   UNL     1       5.860  30.499  58.046  1.00  0.00    -0.321 N 
HETATM    4  C   UNL     1       5.748  29.495  57.244  1.00  0.00     0.011 C 
HETATM    5  C   UNL     1       4.653  31.399  58.047  1.00  0.00     0.170 C 
HETATM    6  S   UNL     1       3.435  30.859  56.952  1.00  0.00    -0.086 SA
HETATM    7  C   UNL     1       4.379  29.333  56.618  1.00  0.00     0.135 C 
HETATM    8  N   UNL     1       4.616  32.481  58.727  1.00  0.00    -0.219 NA
HETATM    9  C   UNL     1       5.546  32.758  59.770  1.00  0.00     0.157 C 
ENDROOT
BRANCH   4  10
HETATM   10  C   UNL     1       6.941  28.678  56.839  1.00  0.00     0.156 C 
BRANCH  10  11
HETATM   11  C   UNL     1       6.606  27.358  56.178  1.00  0.00     0.223 C 
HETATM   12  N   UNL     1       6.384  26.319  57.048  1.00  0.00    -0.359 N 
HETATM   13  H   UNL     1       6.510  26.477  58.045  1.00  0.00     0.162 HD
HETATM   14  O   UNL     1       6.505  27.235  54.961  1.00  0.00    -0.273 OA
BRANCH  12  15
HETATM   15  C   UNL     1       6.242  24.919  56.643  1.00  0.00     0.150 C 
BRANCH  15  16
HETATM   16  C   UNL     1       7.558  24.120  56.534  1.00  0.00     0.253 C 
BRANCH  16  17
HETATM   17  N   UNL     1       7.533  23.108  55.405  1.00  0.00    -0.077 N 
HETATM   18  H   UNL     1       6.890  22.345  55.692  1.00  0.00     0.279 HD
HETATM   19  C   UNL     1       6.981  23.660  54.118  1.00  0.00     0.269 C 
HETATM   20  C   UNL     1       8.884  22.485  55.183  1.00  0.00     0.269 C 
ENDBRANCH  16  17
ENDBRANCH  15  16
ENDBRANCH  12  15
ENDBRANCH  10  11
ENDBRANCH   4  10
BRANCH   2  21
HETATM   21  C   UNL     1       7.748  30.503  59.608  1.00  0.00     0.044 C 
HETATM   22  C   UNL     1       9.029  31.801  59.893  1.00  0.00    -0.068 C 
HETATM   23  C   UNL     1       9.096  32.585  61.159  1.00  0.00     0.044 C 
HETATM   24  C   UNL     1      10.282  31.952  58.655  1.00  0.00     0.004 C 
HETATM   25  C   UNL     1      10.329  30.819  57.265  1.00  0.00     0.007 C 
HETATM   26  C   UNL     1       9.181  29.435  57.117  1.00  0.00    -0.065 C 
HETATM   27  C   UNL     1       9.426  28.378  56.081  1.00  0.00     0.048 C 
HETATM   28  C   UNL     1       7.918  29.182  58.327  1.00  0.00    -0.002 C 
ENDBRANCH   2  21
BRANCH   1  29
HETATM   29  C   UNL     1       8.004  31.103  61.541  1.00  0.00     0.293 C 
HETATM   30  O   UNL     1       8.834  30.157  61.384  1.00  0.00    -0.259 OA
BRANCH  29  31
HETATM   31  O   UNL     1       8.151  31.565  62.897  1.00  0.00    -0.318 OA
BRANCH  31  32
HETATM   32  C   UNL     1       7.041  32.174  63.592  1.00  0.00     0.174 C 
HETATM   33  C   UNL     1       7.539  33.313  64.458  1.00  0.00     0.034 C 
ENDBRANCH  31  32
ENDBRANCH  29  31
ENDBRANCH   1  29
BRANCH   9  34
HETATM   34  C   UNL     1       4.976  34.016  60.533  1.00  0.00     0.435 C 
HETATM   35  F   UNL     1       5.908  34.498  61.409  1.00  0.00    -0.165 F 
HETATM   36  F   UNL     1       4.698  35.045  59.694  1.00  0.00    -0.165 F 
HETATM   37  F   UNL     1       3.888  33.761  61.297  1.00  0.00    -0.165 F 
ENDBRANCH   9  34
TORSDOF 10
ENDMDL
MODEL 5
REMARK VINA RESULT:      -7.6      8.675     11.120
REMARK  10 active torsions:
REMARK  status: ('A' for Active; 'I' for Inactive)
REMARK    1  A    between atoms: C_2  and  O_3 
REMARK    2  A    between atoms: O_3  and  C_4 
REMARK    3  A    between atoms: C_4  and  C_5 
REMARK    4  A    between atoms: C_6  and  C_7 
REMARK    5  A    between atoms: C_16  and  C_17 
REMARK    6  A    between atoms: C_17  and  C_18 
REMARK       I    between atoms: C_18  and  N_19 
REMARK    7  A    between atoms: N_19  and  C_20 
REMARK    8  A    between atoms: C_20  and  C_21 
REMARK    9  A    between atoms: C_21  and  N_22 
REMARK   10  A    between atoms: C_31  and  C_32 
ROOT
HETATM    1  C   UNL     1       5.389  35.225  63.208  1.00  0.00     0.075 C 
HETATM    2  C   UNL     1       5.723  34.638  61.813  1.00  0.00     0.151 C 
HETATM    3  N   UNL     1       4.839  34.922  60.724  1.00  0.00    -0.321 N 
HETATM    4  C   UNL     1       4.453  34.335  59.643  1.00  0.00     0.011 C 
HETATM    5  C   UNL     1       4.623  36.412  60.703  1.00  0.00     0.170 C 
HETATM    6  S   UNL     1       3.929  36.951  59.219  1.00  0.00    -0.086 SA
HETATM    7  C   UNL     1       3.710  35.225  58.668  1.00  0.00     0.135 C 
HETATM    8  N   UNL     1       5.011  37.166  61.661  1.00  0.00    -0.219 NA
HETATM    9  C   UNL     1       5.369  36.649  62.940  1.00  0.00     0.157 C 
ENDROOT
BRANCH   4  10
HETATM   10  C   UNL     1       4.877  32.931  59.318  1.00  0.00     0.156 C 
BRANCH  10  11
HETATM   11  C   UNL     1       4.178  32.322  58.121  1.00  0.00     0.223 C 
HETATM   12  N   UNL     1       4.880  32.400  56.945  1.00  0.00    -0.359 N 
HETATM   13  H   UNL     1       5.769  32.894  56.933  1.00  0.00     0.162 HD
HETATM   14  O   UNL     1       3.085  31.770  58.205  1.00  0.00    -0.273 OA
BRANCH  12  15
HETATM   15  C   UNL     1       4.329  32.062  55.630  1.00  0.00     0.150 C 
BRANCH  15  16
HETATM   16  C   UNL     1       4.725  30.676  55.077  1.00  0.00     0.253 C 
BRANCH  16  17
HETATM   17  N   UNL     1       5.328  29.777  56.138  1.00  0.00    -0.077 N 
HETATM   18  H   UNL     1       5.386  30.333  57.013  1.00  0.00     0.279 HD
HETATM   19  C   UNL     1       4.479  28.576  56.458  1.00  0.00     0.269 C 
HETATM   20  C   UNL     1       6.730  29.361  55.787  1.00  0.00     0.269 C 
ENDBRANCH  16  17
ENDBRANCH  15  16
ENDBRANCH  12  15
ENDBRANCH  10  11
ENDBRANCH   4  10
BRANCH   2  21
HETATM   21  C   UNL     1       5.437  33.509  62.635  1.00  0.00     0.044 C 
HETATM   22  C   UNL     1       6.959  33.530  63.679  1.00  0.00    -0.068 C 
HETATM   23  C   UNL     1       6.940  33.983  65.100  1.00  0.00     0.044 C 
HETATM   24  C   UNL     1       8.412  32.823  62.963  1.00  0.00     0.004 C 
HETATM   25  C   UNL     1       8.345  32.047  61.348  1.00  0.00     0.007 C 
HETATM   26  C   UNL     1       6.799  31.865  60.435  1.00  0.00    -0.065 C 
HETATM   27  C   UNL     1       6.757  30.988  59.218  1.00  0.00     0.048 C 
HETATM   28  C   UNL     1       5.289  32.508  61.090  1.00  0.00    -0.002 C 
ENDBRANCH   2  21
BRANCH   1  29
HETATM   29  C   UNL     1       5.198  33.660  64.656  1.00  0.00     0.293 C 
HETATM   30  O   UNL     1       4.958  32.438  64.417  1.00  0.00    -0.259 OA
BRANCH  29  31
HETATM   31  O   UNL     1       5.311  33.790  66.085  1.00  0.00    -0.318 OA
BRANCH  31  32
HETATM   32  C   UNL     1       4.142  34.041  66.896  1.00  0.00     0.174 C 
HETATM   33  C   UNL     1       3.397  35.248  66.364  1.00  0.00     0.034 C 
ENDBRANCH  31  32
ENDBRANCH  29  31
ENDBRANCH   1  29
BRANCH   9  34
HETATM   34  C   UNL     1       5.488  37.903  63.892  1.00  0.00     0.435 C 
HETATM   35  F   UNL     1       6.789  38.312  63.971  1.00  0.00    -0.165 F 
HETATM   36  F   UNL     1       4.797  38.972  63.425  1.00  0.00    -0.165 F 
HETATM   37  F   UNL     1       5.124  37.666  65.174  1.00  0.00    -0.165 F 
ENDBRANCH   9  34
TORSDOF 10
ENDMDL
MODEL 6
REMARK VINA RESULT:      -7.4      2.281      2.633
REMARK  10 active torsions:
REMARK  status: ('A' for Active; 'I' for Inactive)
REMARK    1  A    between atoms: C_2  and  O_3 
REMARK    2  A    between atoms: O_3  and  C_4 
REMARK    3  A    between atoms: C_4  and  C_5 
REMARK    4  A    between atoms: C_6  and  C_7 
REMARK    5  A    between atoms: C_16  and  C_17 
REMARK    6  A    between atoms: C_17  and  C_18 
REMARK       I    between atoms: C_18  and  N_19 
REMARK    7  A    between atoms: N_19  and  C_20 
REMARK    8  A    between atoms: C_20  and  C_21 
REMARK    9  A    between atoms: C_21  and  N_22 
REMARK   10  A    between atoms: C_31  and  C_32 
ROOT
HETATM    1  C   UNL     1       7.509  26.813  55.852  1.00  0.00     0.075 C 
HETATM    2  C   UNL     1       6.215  27.138  55.063  1.00  0.00     0.151 C 
HETATM    3  N   UNL     1       6.068  26.603  53.743  1.00  0.00    -0.321 N 
HETATM    4  C   UNL     1       5.494  26.950  52.641  1.00  0.00     0.011 C 
HETATM    5  C   UNL     1       6.356  25.128  53.826  1.00  0.00     0.170 C 
HETATM    6  S   UNL     1       5.820  24.278  52.424  1.00  0.00    -0.086 SA
HETATM    7  C   UNL     1       5.396  25.852  51.604  1.00  0.00     0.135 C 
HETATM    8  N   UNL     1       6.856  24.593  54.875  1.00  0.00    -0.219 NA
HETATM    9  C   UNL     1       7.476  25.365  55.901  1.00  0.00     0.157 C 
ENDROOT
BRANCH   4  10
HETATM   10  C   UNL     1       4.825  28.286  52.493  1.00  0.00     0.156 C 
BRANCH  10  11
HETATM   11  C   UNL     1       4.521  28.684  51.064  1.00  0.00     0.223 C 
HETATM   12  N   UNL     1       5.545  29.327  50.416  1.00  0.00    -0.359 N 
HETATM   13  H   UNL     1       6.395  29.544  50.932  1.00  0.00     0.162 HD
HETATM   14  O   UNL     1       3.455  28.419  50.517  1.00  0.00    -0.273 OA
BRANCH  12  15
HETATM   15  C   UNL     1       5.417  29.977  49.110  1.00  0.00     0.150 C 
BRANCH  15  16
HETATM   16  C   UNL     1       4.819  31.400  49.128  1.00  0.00     0.253 C 
BRANCH  16  17
HETATM   17  N   UNL     1       5.876  32.477  48.984  1.00  0.00    -0.077 N 
HETATM   18  H   UNL     1       6.792  32.037  49.197  1.00  0.00     0.279 HD
HETATM   19  C   UNL     1       5.987  33.026  47.588  1.00  0.00     0.269 C 
HETATM   20  C   UNL     1       5.680  33.587  49.981  1.00  0.00     0.269 C 
ENDBRANCH  16  17
ENDBRANCH  15  16
ENDBRANCH  12  15
ENDBRANCH  10  11
ENDBRANCH   4  10
BRANCH   2  21
HETATM   21  C   UNL     1       6.885  28.387  55.212  1.00  0.00     0.044 C 
HETATM   22  C   UNL     1       6.586  28.652  57.014  1.00  0.00    -0.068 C 
HETATM   23  C   UNL     1       7.664  28.481  58.030  1.00  0.00     0.044 C 
HETATM   24  C   UNL     1       4.998  29.287  57.461  1.00  0.00     0.004 C 
HETATM   25  C   UNL     1       3.807  29.732  56.196  1.00  0.00     0.007 C 
HETATM   26  C   UNL     1       4.201  29.648  54.437  1.00  0.00    -0.065 C 
HETATM   27  C   UNL     1       3.268  30.270  53.440  1.00  0.00     0.048 C 
HETATM   28  C   UNL     1       5.777  29.062  53.896  1.00  0.00    -0.002 C 
ENDBRANCH   2  21
BRANCH   1  29
HETATM   29  C   UNL     1       8.518  28.615  56.413  1.00  0.00     0.293 C 
HETATM   30  O   UNL     1       8.178  29.797  56.106  1.00  0.00    -0.259 OA
BRANCH  29  31
HETATM   31  O   UNL     1       9.716  28.720  57.205  1.00  0.00    -0.318 OA
BRANCH  31  32
HETATM   32  C   UNL     1      10.808  29.565  56.780  1.00  0.00     0.174 C 
HETATM   33  C   UNL     1      10.880  30.794  57.663  1.00  0.00     0.034 C 
ENDBRANCH  31  32
ENDBRANCH  29  31
ENDBRANCH   1  29
BRANCH   9  34
HETATM   34  C   UNL     1       8.209  24.326  56.836  1.00  0.00     0.435 C 
HETATM   35  F   UNL     1       9.426  23.997  56.310  1.00  0.00    -0.165 F 
HETATM   36  F   UNL     1       8.468  24.832  58.067  1.00  0.00    -0.165 F 
HETATM   37  F   UNL     1       7.564  23.143  56.970  1.00  0.00    -0.165 F 
ENDBRANCH   9  34
TORSDOF 10
ENDMDL
MODEL 7
REMARK VINA RESULT:      -7.4      8.987     11.823
REMARK  10 active torsions:
REMARK  status: ('A' for Active; 'I' for Inactive)
REMARK    1  A    between atoms: C_2  and  O_3 
REMARK    2  A    between atoms: O_3  and  C_4 
REMARK    3  A    between atoms: C_4  and  C_5 
REMARK    4  A    between atoms: C_6  and  C_7 
REMARK    5  A    between atoms: C_16  and  C_17 
REMARK    6  A    between atoms: C_17  and  C_18 
REMARK       I    between atoms: C_18  and  N_19 
REMARK    7  A    between atoms: N_19  and  C_20 
REMARK    8  A    between atoms: C_20  and  C_21 
REMARK    9  A    between atoms: C_21  and  N_22 
REMARK   10  A    between atoms: C_31  and  C_32 
ROOT
HETATM    1  C   UNL     1       5.963  35.567  63.662  1.00  0.00     0.075 C 
HETATM    2  C   UNL     1       6.213  34.742  62.374  1.00  0.00     0.151 C 
HETATM    3  N   UNL     1       5.178  34.692  61.385  1.00  0.00    -0.321 N 
HETATM    4  C   UNL     1       4.754  33.852  60.503  1.00  0.00     0.011 C 
HETATM    5  C   UNL     1       4.757  36.110  61.108  1.00  0.00     0.170 C 
HETATM    6  S   UNL     1       3.830  36.246  59.660  1.00  0.00    -0.086 SA
HETATM    7  C   UNL     1       3.789  34.430  59.489  1.00  0.00     0.135 C 
HETATM    8  N   UNL     1       5.146  37.087  61.837  1.00  0.00    -0.219 NA
HETATM    9  C   UNL     1       5.717  36.892  63.128  1.00  0.00     0.157 C 
ENDROOT
BRANCH   4  10
HETATM   10  C   UNL     1       5.327  32.468  60.399  1.00  0.00     0.156 C 
BRANCH  10  11
HETATM   11  C   UNL     1       5.989  32.157  59.073  1.00  0.00     0.223 C 
HETATM   12  N   UNL     1       6.514  30.893  58.975  1.00  0.00    -0.359 N 
HETATM   13  H   UNL     1       6.481  30.281  59.788  1.00  0.00     0.162 HD
HETATM   14  O   UNL     1       6.020  32.961  58.146  1.00  0.00    -0.273 OA
BRANCH  12  15
HETATM   15  C   UNL     1       7.367  30.436  57.876  1.00  0.00     0.150 C 
BRANCH  15  16
HETATM   16  C   UNL     1       8.867  30.293  58.210  1.00  0.00     0.253 C 
BRANCH  16  17
HETATM   17  N   UNL     1       9.589  29.361  57.258  1.00  0.00    -0.077 N 
HETATM   18  H   UNL     1       9.586  28.417  57.694  1.00  0.00     0.279 HD
HETATM   19  C   UNL     1       8.902  29.212  55.928  1.00  0.00     0.269 C 
HETATM   20  C   UNL     1      11.029  29.755  57.075  1.00  0.00     0.269 C 
ENDBRANCH  16  17
ENDBRANCH  15  16
ENDBRANCH  12  15
ENDBRANCH  10  11
ENDBRANCH   4  10
BRANCH   2  21
HETATM   21  C   UNL     1       6.181  33.786  63.429  1.00  0.00     0.044 C 
HETATM   22  C   UNL     1       6.445  32.256  62.430  1.00  0.00    -0.068 C 
HETATM   23  C   UNL     1       7.743  31.523  62.430  1.00  0.00     0.044 C 
HETATM   24  C   UNL     1       5.025  31.605  61.603  1.00  0.00     0.004 C 
HETATM   25  C   UNL     1       3.414  32.359  61.830  1.00  0.00     0.007 C 
HETATM   26  C   UNL     1       3.151  33.734  62.970  1.00  0.00    -0.065 C 
HETATM   27  C   UNL     1       1.752  34.155  63.311  1.00  0.00     0.048 C 
HETATM   28  C   UNL     1       4.505  34.427  63.869  1.00  0.00    -0.002 C 
ENDBRANCH   2  21
BRANCH   1  29
HETATM   29  C   UNL     1       6.158  34.328  65.396  1.00  0.00     0.293 C 
HETATM   30  O   UNL     1       7.154  33.602  65.696  1.00  0.00    -0.259 OA
BRANCH  29  31
HETATM   31  O   UNL     1       5.186  34.152  66.443  1.00  0.00    -0.318 OA
BRANCH  31  32
HETATM   32  C   UNL     1       4.905  35.220  67.375  1.00  0.00     0.174 C 
HETATM   33  C   UNL     1       3.679  35.987  66.924  1.00  0.00     0.034 C 
ENDBRANCH  31  32
ENDBRANCH  29  31
ENDBRANCH   1  29
BRANCH   9  34
HETATM   34  C   UNL     1       5.771  38.323  63.794  1.00  0.00     0.435 C 
HETATM   35  F   UNL     1       5.320  38.259  65.082  1.00  0.00    -0.165 F 
HETATM   36  F   UNL     1       7.035  38.808  63.873  1.00  0.00    -0.165 F 
HETATM   37  F   UNL     1       4.978  39.245  63.200  1.00  0.00    -0.165 F 
ENDBRANCH   9  34
TORSDOF 10
ENDMDL
MODEL 8
REMARK VINA RESULT:      -7.4      5.062      7.525
REMARK  10 active torsions:
REMARK  status: ('A' for Active; 'I' for Inactive)
REMARK    1  A    between atoms: C_2  and  O_3 
REMARK    2  A    between atoms: O_3  and  C_4 
REMARK    3  A    between atoms: C_4  and  C_5 
REMARK    4  A    between atoms: C_6  and  C_7 
REMARK    5  A    between atoms: C_16  and  C_17 
REMARK    6  A    between atoms: C_17  and  C_18 
REMARK       I    between atoms: C_18  and  N_19 
REMARK    7  A    between atoms: N_19  and  C_20 
REMARK    8  A    between atoms: C_20  and  C_21 
REMARK    9  A    between atoms: C_21  and  N_22 
REMARK   10  A    between atoms: C_31  and  C_32 
ROOT
HETATM    1  C   UNL     1       6.120  32.161  59.626  1.00  0.00     0.075 C 
HETATM    2  C   UNL     1       6.816  31.553  58.381  1.00  0.00     0.151 C 
HETATM    3  N   UNL     1       6.014  30.845  57.430  1.00  0.00    -0.321 N 
HETATM    4  C   UNL     1       6.169  29.860  56.612  1.00  0.00     0.011 C 
HETATM    5  C   UNL     1       4.848  31.731  57.083  1.00  0.00     0.170 C 
HETATM    6  S   UNL     1       4.029  31.205  55.658  1.00  0.00    -0.086 SA
HETATM    7  C   UNL     1       5.057  29.699  55.596  1.00  0.00     0.135 C 
HETATM    8  N   UNL     1       4.587  32.796  57.741  1.00  0.00    -0.219 NA
HETATM    9  C   UNL     1       5.152  33.056  59.023  1.00  0.00     0.157 C 
ENDROOT
BRANCH   4  10
HETATM   10  C   UNL     1       7.443  29.066  56.572  1.00  0.00     0.156 C 
BRANCH  10  11
HETATM   11  C   UNL     1       7.478  27.983  55.515  1.00  0.00     0.223 C 
HETATM   12  N   UNL     1       7.205  26.719  55.976  1.00  0.00    -0.359 N 
HETATM   13  H   UNL     1       7.059  26.580  56.973  1.00  0.00     0.162 HD
HETATM   14  O   UNL     1       7.697  28.223  54.331  1.00  0.00    -0.273 OA
BRANCH  12  15
HETATM   15  C   UNL     1       7.375  25.498  55.186  1.00  0.00     0.150 C 
BRANCH  15  16
HETATM   16  C   UNL     1       6.080  24.900  54.596  1.00  0.00     0.253 C 
BRANCH  16  17
HETATM   17  N   UNL     1       6.230  24.510  53.139  1.00  0.00    -0.077 N 
HETATM   18  H   UNL     1       6.318  23.475  53.106  1.00  0.00     0.279 HD
HETATM   19  C   UNL     1       5.030  24.856  52.299  1.00  0.00     0.269 C 
HETATM   20  C   UNL     1       7.486  25.077  52.535  1.00  0.00     0.269 C 
ENDBRANCH  16  17
ENDBRANCH  15  16
ENDBRANCH  12  15
ENDBRANCH  10  11
ENDBRANCH   4  10
BRANCH   2  21
HETATM   21  C   UNL     1       7.339  30.830  59.492  1.00  0.00     0.044 C 
HETATM   22  C   UNL     1       8.403  32.154  60.213  1.00  0.00    -0.068 C 
HETATM   23  C   UNL     1       8.029  32.883  61.459  1.00  0.00     0.044 C 
HETATM   24  C   UNL     1       9.977  32.399  59.447  1.00  0.00     0.004 C 
HETATM   25  C   UNL     1      10.515  31.331  58.110  1.00  0.00     0.007 C 
HETATM   26  C   UNL     1       9.536  29.919  57.558  1.00  0.00    -0.065 C 
HETATM   27  C   UNL     1      10.144  28.918  56.621  1.00  0.00     0.048 C 
HETATM   28  C   UNL     1       7.966  29.573  58.292  1.00  0.00    -0.002 C 
ENDBRANCH   2  21
BRANCH   1  29
HETATM   29  C   UNL     1       6.985  31.385  61.423  1.00  0.00     0.293 C 
HETATM   30  O   UNL     1       7.994  30.622  61.506  1.00  0.00    -0.259 OA
BRANCH  29  31
HETATM   31  O   UNL     1       6.531  31.621  62.769  1.00  0.00    -0.318 OA
BRANCH  31  32
HETATM   32  C   UNL     1       5.138  31.889  63.040  1.00  0.00     0.174 C 
HETATM   33  C   UNL     1       5.007  33.168  63.842  1.00  0.00     0.034 C 
ENDBRANCH  31  32
ENDBRANCH  29  31
ENDBRANCH   1  29
BRANCH   9  34
HETATM   34  C   UNL     1       4.355  34.290  59.602  1.00  0.00     0.435 C 
HETATM   35  F   UNL     1       3.062  33.934  59.863  1.00  0.00    -0.165 F 
HETATM   36  F   UNL     1       4.860  34.722  60.784  1.00  0.00    -0.165 F 
HETATM   37  F   UNL     1       4.256  35.339  58.752  1.00  0.00    -0.165 F 
ENDBRANCH   9  34
TORSDOF 10
ENDMDL
MODEL 9
REMARK VINA RESULT:      -7.3      8.748     10.924
REMARK  10 active torsions:
REMARK  status: ('A' for Active; 'I' for Inactive)
REMARK    1  A    between atoms: C_2  and  O_3 
REMARK    2  A    between atoms: O_3  and  C_4 
REMARK    3  A    between atoms: C_4  and  C_5 
REMARK    4  A    between atoms: C_6  and  C_7 
REMARK    5  A    between atoms: C_16  and  C_17 
REMARK    6  A    between atoms: C_17  and  C_18 
REMARK       I    between atoms: C_18  and  N_19 
REMARK    7  A    between atoms: N_19  and  C_20 
REMARK    8  A    between atoms: C_20  and  C_21 
REMARK    9  A    between atoms: C_21  and  N_22 
REMARK   10  A    between atoms: C_31  and  C_32 
ROOT
HETATM    1  C   UNL     1       5.208  34.895  62.786  1.00  0.00     0.075 C 
HETATM    2  C   UNL     1       5.536  34.440  61.341  1.00  0.00     0.151 C 
HETATM    3  N   UNL     1       4.639  34.814  60.289  1.00  0.00    -0.321 N 
HETATM    4  C   UNL     1       4.249  34.324  59.162  1.00  0.00     0.011 C 
HETATM    5  C   UNL     1       4.411  36.297  60.406  1.00  0.00     0.170 C 
HETATM    6  S   UNL     1       3.701  36.962  58.981  1.00  0.00    -0.086 SA
HETATM    7  C   UNL     1       3.491  35.292  58.278  1.00  0.00     0.135 C 
HETATM    8  N   UNL     1       4.802  36.965  61.424  1.00  0.00    -0.219 NA
HETATM    9  C   UNL     1       5.175  36.338  62.648  1.00  0.00     0.157 C 
ENDROOT
BRANCH   4  10
HETATM   10  C   UNL     1       4.681  32.959  58.709  1.00  0.00     0.156 C 
BRANCH  10  11
HETATM   11  C   UNL     1       4.113  32.529  57.372  1.00  0.00     0.223 C 
HETATM   12  N   UNL     1       4.894  32.841  56.288  1.00  0.00    -0.359 N 
HETATM   13  H   UNL     1       5.749  33.373  56.434  1.00  0.00     0.162 HD
HETATM   14  O   UNL     1       3.053  31.918  57.271  1.00  0.00    -0.273 OA
BRANCH  12  15
HETATM   15  C   UNL     1       4.465  32.705  54.895  1.00  0.00     0.150 C 
BRANCH  15  16
HETATM   16  C   UNL     1       4.854  33.872  53.961  1.00  0.00     0.253 C 
BRANCH  16  17
HETATM   17  N   UNL     1       5.018  35.183  54.705  1.00  0.00    -0.077 N 
HETATM   18  H   UNL     1       5.150  34.950  55.708  1.00  0.00     0.279 HD
HETATM   19  C   UNL     1       6.238  35.959  54.289  1.00  0.00     0.269 C 
HETATM   20  C   UNL     1       3.783  36.037  54.611  1.00  0.00     0.269 C 
ENDBRANCH  16  17
ENDBRANCH  15  16
ENDBRANCH  12  15
ENDBRANCH  10  11
ENDBRANCH   4  10
BRANCH   2  21
HETATM   21  C   UNL     1       5.266  33.239  62.059  1.00  0.00     0.044 C 
HETATM   22  C   UNL     1       6.795  33.180  63.092  1.00  0.00    -0.068 C 
HETATM   23  C   UNL     1       6.782  33.503  64.547  1.00  0.00     0.044 C 
HETATM   24  C   UNL     1       8.249  32.554  62.305  1.00  0.00     0.004 C 
HETATM   25  C   UNL     1       8.177  31.926  60.627  1.00  0.00     0.007 C 
HETATM   26  C   UNL     1       6.626  31.813  59.711  1.00  0.00    -0.065 C 
HETATM   27  C   UNL     1       6.583  31.049  58.420  1.00  0.00     0.048 C 
HETATM   28  C   UNL     1       5.115  32.379  60.431  1.00  0.00    -0.002 C 
ENDBRANCH   2  21
BRANCH   1  29
HETATM   29  C   UNL     1       5.043  33.203  64.087  1.00  0.00     0.293 C 
HETATM   30  O   UNL     1       5.066  31.983  63.743  1.00  0.00    -0.259 OA
BRANCH  29  31
HETATM   31  O   UNL     1       4.878  33.229  65.517  1.00  0.00    -0.318 OA
BRANCH  31  32
HETATM   32  C   UNL     1       3.996  34.189  66.139  1.00  0.00     0.174 C 
HETATM   33  C   UNL     1       4.641  34.742  67.394  1.00  0.00     0.034 C 
ENDBRANCH  31  32
ENDBRANCH  29  31
ENDBRANCH   1  29
BRANCH   9  34
HETATM   34  C   UNL     1       5.292  37.500  63.709  1.00  0.00     0.435 C 
HETATM   35  F   UNL     1       6.596  37.883  63.847  1.00  0.00    -0.165 F 
HETATM   36  F   UNL     1       4.623  38.616  63.327  1.00  0.00    -0.165 F 
HETATM   37  F   UNL     1       4.903  37.157  64.959  1.00  0.00    -0.165 F 
ENDBRANCH   9  34
TORSDOF 10
ENDMDL
MODEL 10
REMARK VINA RESULT:      -7.1      2.658      4.483
REMARK  10 active torsions:
REMARK  status: ('A' for Active; 'I' for Inactive)
REMARK    1  A    between atoms: C_2  and  O_3 
REMARK    2  A    between atoms: O_3  and  C_4 
REMARK    3  A    between atoms: C_4  and  C_5 
REMARK    4  A    between atoms: C_6  and  C_7 
REMARK    5  A    between atoms: C_16  and  C_17 
REMARK    6  A    between atoms: C_17  and  C_18 
REMARK       I    between atoms: C_18  and  N_19 
REMARK    7  A    between atoms: N_19  and  C_20 
REMARK    8  A    between atoms: C_20  and  C_21 
REMARK    9  A    between atoms: C_21  and  N_22 
REMARK   10  A    between atoms: C_31  and  C_32 
ROOT
HETATM    1  C   UNL     1       8.002  26.884  55.711  1.00  0.00     0.075 C 
HETATM    2  C   UNL     1       7.485  26.990  54.254  1.00  0.00     0.151 C 
HETATM    3  N   UNL     1       6.112  27.335  54.041  1.00  0.00    -0.321 N 
HETATM    4  C   UNL     1       5.200  27.085  53.163  1.00  0.00     0.011 C 
HETATM    5  C   UNL     1       5.830  28.566  54.859  1.00  0.00     0.170 C 
HETATM    6  S   UNL     1       4.361  29.340  54.392  1.00  0.00    -0.086 SA
HETATM    7  C   UNL     1       3.970  27.963  53.260  1.00  0.00     0.135 C 
HETATM    8  N   UNL     1       6.659  29.007  55.728  1.00  0.00    -0.219 NA
HETATM    9  C   UNL     1       7.736  28.215  56.222  1.00  0.00     0.157 C 
ENDROOT
BRANCH   4  10
HETATM   10  C   UNL     1       5.439  26.123  52.036  1.00  0.00     0.156 C 
BRANCH  10  11
HETATM   11  C   UNL     1       5.126  26.672  50.660  1.00  0.00     0.223 C 
HETATM   12  N   UNL     1       4.222  25.934  49.939  1.00  0.00    -0.359 N 
HETATM   13  H   UNL     1       3.872  25.063  50.331  1.00  0.00     0.162 HD
HETATM   14  O   UNL     1       5.615  27.716  50.239  1.00  0.00    -0.273 OA
BRANCH  12  15
HETATM   15  C   UNL     1       3.917  26.156  48.523  1.00  0.00     0.150 C 
BRANCH  15  16
HETATM   16  C   UNL     1       2.540  26.789  48.229  1.00  0.00     0.253 C 
BRANCH  16  17
HETATM   17  N   UNL     1       2.608  27.856  47.154  1.00  0.00    -0.077 N 
HETATM   18  H   UNL     1       2.915  27.389  46.279  1.00  0.00     0.279 HD
HETATM   19  C   UNL     1       1.275  28.485  46.850  1.00  0.00     0.269 C 
HETATM   20  C   UNL     1       3.635  28.907  47.475  1.00  0.00     0.269 C 
ENDBRANCH  16  17
ENDBRANCH  15  16
ENDBRANCH  12  15
ENDBRANCH  10  11
ENDBRANCH   4  10
BRANCH   2  21
HETATM   21  C   UNL     1       7.812  25.615  54.436  1.00  0.00     0.044 C 
HETATM   22  C   UNL     1       7.016  24.934  52.916  1.00  0.00    -0.068 C 
HETATM   23  C   UNL     1       7.810  24.486  51.737  1.00  0.00     0.044 C 
HETATM   24  C   UNL     1       5.269  24.677  52.994  1.00  0.00     0.004 C 
HETATM   25  C   UNL     1       4.371  24.979  54.517  1.00  0.00     0.007 C 
HETATM   26  C   UNL     1       5.207  25.455  56.043  1.00  0.00    -0.065 C 
HETATM   27  C   UNL     1       4.448  25.444  57.337  1.00  0.00     0.048 C 
HETATM   28  C   UNL     1       6.957  25.698  56.071  1.00  0.00    -0.002 C 
ENDBRANCH   2  21
BRANCH   1  29
HETATM   29  C   UNL     1       8.804  24.936  56.084  1.00  0.00     0.293 C 
HETATM   30  O   UNL     1       9.321  24.529  57.168  1.00  0.00    -0.259 OA
BRANCH  29  31
HETATM   31  O   UNL     1       8.868  23.838  55.155  1.00  0.00    -0.318 OA
BRANCH  31  32
HETATM   32  C   UNL     1       8.749  22.474  55.617  1.00  0.00     0.174 C 
HETATM   33  C   UNL     1       8.094  21.625  54.547  1.00  0.00     0.034 C 
ENDBRANCH  31  32
ENDBRANCH  29  31
ENDBRANCH   1  29
BRANCH   9  34
HETATM   34  C   UNL     1       8.314  29.001  57.463  1.00  0.00     0.435 C 
HETATM   35  F   UNL     1       7.767  28.522  58.620  1.00  0.00    -0.165 F 
HETATM   36  F   UNL     1       9.653  28.840  57.597  1.00  0.00    -0.165 F 
HETATM   37  F   UNL     1       8.024  30.324  57.470  1.00  0.00    -0.165 F 
ENDBRANCH   9  34
TORSDOF 10
ENDMDL
