MODEL 1
REMARK VINA RESULT:      -9.7      0.000      0.000
REMARK  5 active torsions:
REMARK  status: ('A' for Active; 'I' for Inactive)
REMARK    1  A    between atoms: O_2  and  C_3 
REMARK    2  A    between atoms: C_4  and  C_5 
REMARK    3  A    between atoms: C_9  and  N_10 
REMARK       I    between atoms: N_10  and  C_11 
REMARK    4  A    between atoms: C_11  and  C_12 
REMARK    5  A    between atoms: C_12  and  C_13 
ROOT
HETATM    1  C   UNL     1       7.804  29.712  56.929  1.00  0.00     0.093 A 
HETATM    2  N   UNL     1       6.668  30.120  56.341  1.00  0.00    -0.172 NA
HETATM    3  N   UNL     1       6.460  29.226  55.359  1.00  0.00    -0.262 N 
HETATM    4  H   UNL     1       5.655  29.327  54.747  1.00  0.00     0.191 HD
HETATM    5  C   UNL     1       7.391  28.223  55.323  1.00  0.00     0.126 A 
HETATM    6  C   UNL     1       8.284  28.515  56.325  1.00  0.00     0.084 A 
ENDROOT
BRANCH   5   7
HETATM    7  N   UNL     1       7.367  27.164  54.440  1.00  0.00    -0.311 N 
HETATM    8  C   UNL     1       6.314  26.270  54.405  1.00  0.00     0.236 C 
HETATM    9  O   UNL     1       5.306  26.325  55.104  1.00  0.00    -0.272 OA
HETATM   10  H   UNL     1       8.155  27.028  53.819  1.00  0.00     0.170 HD
BRANCH   8  11
HETATM   11  C   UNL     1       6.497  25.142  53.419  1.00  0.00     0.068 A 
HETATM   12  C   UNL     1       5.436  25.005  52.328  1.00  0.00     0.026 A 
HETATM   13  C   UNL     1       6.801  25.491  51.963  1.00  0.00     0.026 A 
BRANCH  11  14
HETATM   14  C   UNL     1       7.053  23.846  54.004  1.00  0.00    -0.039 A 
HETATM   15  C   UNL     1       7.478  22.781  53.192  1.00  0.00     0.032 A 
HETATM   16  C   UNL     1       7.998  21.611  53.751  1.00  0.00     0.034 A 
HETATM   17 CL   UNL     1       8.502  20.328  52.720  1.00  0.00    -0.084 Cl
HETATM   18  C   UNL     1       8.112  21.476  55.130  1.00  0.00     0.024 A 
HETATM   19  C   UNL     1       7.705  22.518  55.958  1.00  0.00     0.002 A 
HETATM   20  C   UNL     1       7.183  23.687  55.397  1.00  0.00     0.008 A 
ENDBRANCH  11  14
ENDBRANCH   8  11
ENDBRANCH   5   7
BRANCH   1  21
HETATM   21  C   UNL     1       8.383  30.411  58.075  1.00  0.00     0.029 A 
HETATM   22  C   UNL     1       9.677  30.958  58.055  1.00  0.00     0.081 A 
HETATM   23  C   UNL     1      10.202  31.598  59.185  1.00  0.00     0.039 A 
HETATM   24  C   UNL     1       9.427  31.726  60.337  1.00  0.00     0.026 A 
HETATM   25  C   UNL     1       8.138  31.199  60.360  1.00  0.00     0.035 A 
HETATM   26  C   UNL     1       7.615  30.545  59.244  1.00  0.00     0.040 A 
HETATM   27 CL   UNL     1       7.183  31.347  61.784  1.00  0.00    -0.084 Cl
BRANCH  22  28
HETATM   28  O   UNL     1      10.499  30.788  56.970  1.00  0.00    -0.355 OA
HETATM   29  C   UNL     1      11.528  29.842  57.267  1.00  0.00     0.210 C 
ENDBRANCH  22  28
ENDBRANCH   1  21
TORSDOF 5
ENDMDL
MODEL 2
REMARK VINA RESULT:      -9.6      1.989      2.664
REMARK  5 active torsions:
REMARK  status: ('A' for Active; 'I' for Inactive)
REMARK    1  A    between atoms: O_2  and  C_3 
REMARK    2  A    between atoms: C_4  and  C_5 
REMARK    3  A    between atoms: C_9  and  N_10 
REMARK       I    between atoms: N_10  and  C_11 
REMARK    4  A    between atoms: C_11  and  C_12 
REMARK    5  A    between atoms: C_12  and  C_13 
ROOT
HETATM    1  C   UNL     1       7.647  29.286  57.462  1.00  0.00     0.093 A 
HETATM    2  N   UNL     1       8.644  29.305  56.562  1.00  0.00    -0.172 NA
HETATM    3  N   UNL     1       8.428  28.218  55.802  1.00  0.00    -0.262 N 
HETATM    4  H   UNL     1       9.069  27.998  55.044  1.00  0.00     0.191 HD
HETATM    5  C   UNL     1       7.297  27.525  56.142  1.00  0.00     0.126 A 
HETATM    6  C   UNL     1       6.772  28.188  57.223  1.00  0.00     0.084 A 
ENDROOT
BRANCH   5   7
HETATM    7  N   UNL     1       6.838  26.405  55.481  1.00  0.00    -0.311 N 
HETATM    8  C   UNL     1       7.115  26.183  54.146  1.00  0.00     0.236 C 
HETATM    9  O   UNL     1       7.798  26.907  53.427  1.00  0.00    -0.272 OA
HETATM   10  H   UNL     1       6.262  25.742  55.986  1.00  0.00     0.170 HD
BRANCH   8  11
HETATM   11  C   UNL     1       6.474  24.938  53.583  1.00  0.00     0.068 A 
HETATM   12  C   UNL     1       4.946  24.899  53.563  1.00  0.00     0.026 A 
HETATM   13  C   UNL     1       5.690  25.050  52.276  1.00  0.00     0.026 A 
BRANCH  11  14
HETATM   14  C   UNL     1       7.191  23.630  53.909  1.00  0.00    -0.039 A 
HETATM   15  C   UNL     1       7.385  23.194  55.231  1.00  0.00     0.032 A 
HETATM   16  C   UNL     1       8.030  21.985  55.505  1.00  0.00     0.034 A 
HETATM   17 CL   UNL     1       8.253  21.491  57.138  1.00  0.00    -0.084 Cl
HETATM   18  C   UNL     1       8.491  21.179  54.469  1.00  0.00     0.024 A 
HETATM   19  C   UNL     1       8.305  21.583  53.150  1.00  0.00     0.002 A 
HETATM   20  C   UNL     1       7.662  22.794  52.879  1.00  0.00     0.008 A 
ENDBRANCH  11  14
ENDBRANCH   8  11
ENDBRANCH   5   7
BRANCH   1  21
HETATM   21  C   UNL     1       7.498  30.321  58.483  1.00  0.00     0.029 A 
HETATM   22  C   UNL     1       6.476  31.283  58.445  1.00  0.00     0.081 A 
HETATM   23  C   UNL     1       6.385  32.272  59.433  1.00  0.00     0.039 A 
HETATM   24  C   UNL     1       7.299  32.292  60.486  1.00  0.00     0.026 A 
HETATM   25  C   UNL     1       8.307  31.333  60.539  1.00  0.00     0.035 A 
HETATM   26  C   UNL     1       8.413  30.355  59.549  1.00  0.00     0.040 A 
HETATM   27 CL   UNL     1       9.442  31.360  61.833  1.00  0.00    -0.084 Cl
BRANCH  22  28
HETATM   28  O   UNL     1       5.604  31.346  57.388  1.00  0.00    -0.355 OA
HETATM   29  C   UNL     1       4.282  31.008  57.812  1.00  0.00     0.210 C 
ENDBRANCH  22  28
ENDBRANCH   1  21
TORSDOF 5
ENDMDL
MODEL 3
REMARK VINA RESULT:      -9.5      2.179      2.650
REMARK  5 active torsions:
REMARK  status: ('A' for Active; 'I' for Inactive)
REMARK    1  A    between atoms: O_2  and  C_3 
REMARK    2  A    between atoms: C_4  and  C_5 
REMARK    3  A    between atoms: C_9  and  N_10 
REMARK       I    between atoms: N_10  and  C_11 
REMARK    4  A    between atoms: C_11  and  C_12 
REMARK    5  A    between atoms: C_12  and  C_13 
ROOT
HETATM    1  C   UNL     1       7.234  28.780  57.539  1.00  0.00     0.093 A 
HETATM    2  N   UNL     1       7.956  27.855  58.192  1.00  0.00    -0.172 NA
HETATM    3  N   UNL     1       8.090  26.852  57.308  1.00  0.00    -0.262 N 
HETATM    4  H   UNL     1       8.594  26.009  57.575  1.00  0.00     0.191 HD
HETATM    5  C   UNL     1       7.527  27.114  56.088  1.00  0.00     0.126 A 
HETATM    6  C   UNL     1       6.955  28.357  56.208  1.00  0.00     0.084 A 
ENDROOT
BRANCH   5   7
HETATM    7  N   UNL     1       7.575  26.262  55.005  1.00  0.00    -0.311 N 
HETATM    8  C   UNL     1       6.568  25.351  54.751  1.00  0.00     0.236 C 
HETATM    9  O   UNL     1       5.542  25.216  55.412  1.00  0.00    -0.272 OA
HETATM   10  H   UNL     1       8.383  26.293  54.395  1.00  0.00     0.170 HD
BRANCH   8  11
HETATM   11  C   UNL     1       6.828  24.463  53.559  1.00  0.00     0.068 A 
HETATM   12  C   UNL     1       5.815  24.531  52.417  1.00  0.00     0.026 A 
HETATM   13  C   UNL     1       7.175  25.119  52.224  1.00  0.00     0.026 A 
BRANCH  11  14
HETATM   14  C   UNL     1       7.407  23.088  53.883  1.00  0.00    -0.039 A 
HETATM   15  C   UNL     1       7.583  22.644  55.205  1.00  0.00     0.032 A 
HETATM   16  C   UNL     1       8.101  21.375  55.477  1.00  0.00     0.034 A 
HETATM   17 CL   UNL     1       8.306  20.873  57.110  1.00  0.00    -0.084 Cl
HETATM   18  C   UNL     1       8.449  20.516  54.440  1.00  0.00     0.024 A 
HETATM   19  C   UNL     1       8.278  20.928  53.122  1.00  0.00     0.002 A 
HETATM   20  C   UNL     1       7.763  22.198  52.851  1.00  0.00     0.008 A 
ENDBRANCH  11  14
ENDBRANCH   8  11
ENDBRANCH   5   7
BRANCH   1  21
HETATM   21  C   UNL     1       6.873  30.060  58.148  1.00  0.00     0.029 A 
HETATM   22  C   UNL     1       7.649  30.671  59.146  1.00  0.00     0.081 A 
HETATM   23  C   UNL     1       7.252  31.886  59.718  1.00  0.00     0.039 A 
HETATM   24  C   UNL     1       6.090  32.518  59.277  1.00  0.00     0.026 A 
HETATM   25  C   UNL     1       5.323  31.926  58.277  1.00  0.00     0.035 A 
HETATM   26  C   UNL     1       5.703  30.707  57.714  1.00  0.00     0.040 A 
HETATM   27 CL   UNL     1       3.883  32.700  57.737  1.00  0.00    -0.084 Cl
BRANCH  22  28
HETATM   28  O   UNL     1       8.756  30.046  59.661  1.00  0.00    -0.355 OA
HETATM   29  C   UNL     1       9.103  30.612  60.927  1.00  0.00     0.210 C 
ENDBRANCH  22  28
ENDBRANCH   1  21
TORSDOF 5
ENDMDL
MODEL 4
REMARK VINA RESULT:      -9.3      5.403      8.615
REMARK  5 active torsions:
REMARK  status: ('A' for Active; 'I' for Inactive)
REMARK    1  A    between atoms: O_2  and  C_3 
REMARK    2  A    between atoms: C_4  and  C_5 
REMARK    3  A    between atoms: C_9  and  N_10 
REMARK       I    between atoms: N_10  and  C_11 
REMARK    4  A    between atoms: C_11  and  C_12 
REMARK    5  A    between atoms: C_12  and  C_13 
ROOT
HETATM    1  C   UNL     1       6.245  24.893  53.034  1.00  0.00     0.093 A 
HETATM    2  N   UNL     1       4.906  24.849  53.128  1.00  0.00    -0.172 NA
HETATM    3  N   UNL     1       4.474  25.444  52.003  1.00  0.00    -0.262 N 
HETATM    4  H   UNL     1       3.475  25.552  51.841  1.00  0.00     0.191 HD
HETATM    5  C   UNL     1       5.482  25.824  51.158  1.00  0.00     0.126 A 
HETATM    6  C   UNL     1       6.647  25.487  51.804  1.00  0.00     0.084 A 
ENDROOT
BRANCH   5   7
HETATM    7  N   UNL     1       5.291  26.409  49.924  1.00  0.00    -0.311 N 
HETATM    8  C   UNL     1       4.462  27.501  49.757  1.00  0.00     0.236 C 
HETATM    9  O   UNL     1       3.846  28.075  50.651  1.00  0.00    -0.272 OA
HETATM   10  H   UNL     1       5.755  26.009  49.118  1.00  0.00     0.170 HD
BRANCH   8  11
HETATM   11  C   UNL     1       4.330  27.960  48.326  1.00  0.00     0.068 A 
HETATM   12  C   UNL     1       5.287  29.059  47.864  1.00  0.00     0.026 A 
HETATM   13  C   UNL     1       5.474  27.666  47.357  1.00  0.00     0.026 A 
BRANCH  11  14
HETATM   14  C   UNL     1       2.901  28.024  47.790  1.00  0.00    -0.039 A 
HETATM   15  C   UNL     1       2.122  29.190  47.876  1.00  0.00     0.032 A 
HETATM   16  C   UNL     1       0.822  29.229  47.365  1.00  0.00     0.034 A 
HETATM   17 CL   UNL     1      -0.100  30.675  47.496  1.00  0.00    -0.084 Cl
HETATM   18  C   UNL     1       0.270  28.109  46.750  1.00  0.00     0.024 A 
HETATM   19  C   UNL     1       1.023  26.944  46.645  1.00  0.00     0.002 A 
HETATM   20  C   UNL     1       2.321  26.906  47.160  1.00  0.00     0.008 A 
ENDBRANCH  11  14
ENDBRANCH   8  11
ENDBRANCH   5   7
BRANCH   1  21
HETATM   21  C   UNL     1       7.117  24.327  54.062  1.00  0.00     0.029 A 
HETATM   22  C   UNL     1       7.770  23.093  53.908  1.00  0.00     0.081 A 
HETATM   23  C   UNL     1       8.578  22.578  54.929  1.00  0.00     0.039 A 
HETATM   24  C   UNL     1       8.767  23.305  56.104  1.00  0.00     0.026 A 
HETATM   25  C   UNL     1       8.135  24.537  56.258  1.00  0.00     0.035 A 
HETATM   26  C   UNL     1       7.314  25.048  55.252  1.00  0.00     0.040 A 
HETATM   27 CL   UNL     1       8.359  25.433  57.711  1.00  0.00    -0.084 Cl
BRANCH  22  28
HETATM   28  O   UNL     1       7.551  22.312  52.802  1.00  0.00    -0.355 OA
HETATM   29  C   UNL     1       8.065  20.995  53.012  1.00  0.00     0.210 C 
ENDBRANCH  22  28
ENDBRANCH   1  21
TORSDOF 5
ENDMDL
MODEL 5
REMARK VINA RESULT:      -9.2      4.886      7.574
REMARK  5 active torsions:
REMARK  status: ('A' for Active; 'I' for Inactive)
REMARK    1  A    between atoms: O_2  and  C_3 
REMARK    2  A    between atoms: C_4  and  C_5 
REMARK    3  A    between atoms: C_9  and  N_10 
REMARK       I    between atoms: N_10  and  C_11 
REMARK    4  A    between atoms: C_11  and  C_12 
REMARK    5  A    between atoms: C_12  and  C_13 
ROOT
HETATM    1  C   UNL     1       5.259  26.796  51.347  1.00  0.00     0.093 A 
HETATM    2  N   UNL     1       4.594  27.290  52.404  1.00  0.00    -0.172 NA
HETATM    3  N   UNL     1       5.192  26.726  53.467  1.00  0.00    -0.262 N 
HETATM    4  H   UNL     1       4.853  26.932  54.404  1.00  0.00     0.191 HD
HETATM    5  C   UNL     1       6.254  25.926  53.141  1.00  0.00     0.126 A 
HETATM    6  C   UNL     1       6.319  25.944  51.769  1.00  0.00     0.084 A 
ENDROOT
BRANCH   5   7
HETATM    7  N   UNL     1       7.055  25.277  54.057  1.00  0.00    -0.311 N 
HETATM    8  C   UNL     1       6.600  24.951  55.320  1.00  0.00     0.236 C 
HETATM    9  O   UNL     1       5.469  25.164  55.749  1.00  0.00    -0.272 OA
HETATM   10  H   UNL     1       8.009  25.057  53.801  1.00  0.00     0.170 HD
BRANCH   8  11
HETATM   11  C   UNL     1       7.639  24.303  56.201  1.00  0.00     0.068 A 
HETATM   12  C   UNL     1       8.814  25.177  56.637  1.00  0.00     0.026 A 
HETATM   13  C   UNL     1       7.779  24.789  57.642  1.00  0.00     0.026 A 
BRANCH  11  14
HETATM   14  C   UNL     1       7.952  22.844  55.876  1.00  0.00    -0.039 A 
HETATM   15  C   UNL     1       7.956  22.356  54.558  1.00  0.00     0.032 A 
HETATM   16  C   UNL     1       8.260  21.020  54.285  1.00  0.00     0.034 A 
HETATM   17 CL   UNL     1       8.248  20.461  52.657  1.00  0.00    -0.084 Cl
HETATM   18  C   UNL     1       8.573  20.140  55.315  1.00  0.00     0.024 A 
HETATM   19  C   UNL     1       8.584  20.599  56.629  1.00  0.00     0.002 A 
HETATM   20  C   UNL     1       8.277  21.935  56.901  1.00  0.00     0.008 A 
ENDBRANCH  11  14
ENDBRANCH   8  11
ENDBRANCH   5   7
BRANCH   1  21
HETATM   21  C   UNL     1       4.932  27.175  49.973  1.00  0.00     0.029 A 
HETATM   22  C   UNL     1       5.358  28.383  49.397  1.00  0.00     0.081 A 
HETATM   23  C   UNL     1       5.001  28.717  48.085  1.00  0.00     0.039 A 
HETATM   24  C   UNL     1       4.239  27.832  47.323  1.00  0.00     0.026 A 
HETATM   25  C   UNL     1       3.825  26.625  47.881  1.00  0.00     0.035 A 
HETATM   26  C   UNL     1       4.163  26.294  49.194  1.00  0.00     0.040 A 
HETATM   27 CL   UNL     1       2.877  25.534  46.946  1.00  0.00    -0.084 Cl
BRANCH  22  28
HETATM   28  O   UNL     1       6.043  29.314  50.136  1.00  0.00    -0.355 OA
HETATM   29  C   UNL     1       5.725  30.635  49.692  1.00  0.00     0.210 C 
ENDBRANCH  22  28
ENDBRANCH   1  21
TORSDOF 5
ENDMDL
MODEL 6
REMARK VINA RESULT:      -9.2      5.078      8.829
REMARK  5 active torsions:
REMARK  status: ('A' for Active; 'I' for Inactive)
REMARK    1  A    between atoms: O_2  and  C_3 
REMARK    2  A    between atoms: C_4  and  C_5 
REMARK    3  A    between atoms: C_9  and  N_10 
REMARK       I    between atoms: N_10  and  C_11 
REMARK    4  A    between atoms: C_11  and  C_12 
REMARK    5  A    between atoms: C_12  and  C_13 
ROOT
HETATM    1  C   UNL     1       6.349  24.636  52.899  1.00  0.00     0.093 A 
HETATM    2  N   UNL     1       5.049  24.832  53.174  1.00  0.00    -0.172 NA
HETATM    3  N   UNL     1       4.609  25.608  52.169  1.00  0.00    -0.262 N 
HETATM    4  H   UNL     1       3.639  25.915  52.156  1.00  0.00     0.191 HD
HETATM    5  C   UNL     1       5.562  25.879  51.224  1.00  0.00     0.126 A 
HETATM    6  C   UNL     1       6.707  25.268  51.673  1.00  0.00     0.084 A 
ENDROOT
BRANCH   5   7
HETATM    7  N   UNL     1       5.342  26.611  50.076  1.00  0.00    -0.311 N 
HETATM    8  C   UNL     1       4.509  27.714  50.066  1.00  0.00     0.236 C 
HETATM    9  O   UNL     1       3.916  28.171  51.039  1.00  0.00    -0.272 OA
HETATM   10  H   UNL     1       5.785  26.316  49.216  1.00  0.00     0.170 HD
BRANCH   8  11
HETATM   11  C   UNL     1       4.342  28.347  48.707  1.00  0.00     0.068 A 
HETATM   12  C   UNL     1       5.083  29.661  48.464  1.00  0.00     0.026 A 
HETATM   13  C   UNL     1       5.556  28.418  47.783  1.00  0.00     0.026 A 
BRANCH  11  14
HETATM   14  C   UNL     1       2.949  28.220  48.094  1.00  0.00    -0.039 A 
HETATM   15  C   UNL     1       2.084  29.321  47.970  1.00  0.00     0.032 A 
HETATM   16  C   UNL     1       0.820  29.183  47.392  1.00  0.00     0.034 A 
HETATM   17 CL   UNL     1      -0.210  30.555  47.263  1.00  0.00    -0.084 Cl
HETATM   18  C   UNL     1       0.389  27.948  46.918  1.00  0.00     0.024 A 
HETATM   19  C   UNL     1       1.229  26.843  47.022  1.00  0.00     0.002 A 
HETATM   20  C   UNL     1       2.492  26.982  47.603  1.00  0.00     0.008 A 
ENDBRANCH  11  14
ENDBRANCH   8  11
ENDBRANCH   5   7
BRANCH   1  21
HETATM   21  C   UNL     1       7.211  23.817  53.749  1.00  0.00     0.029 A 
HETATM   22  C   UNL     1       7.655  24.242  55.012  1.00  0.00     0.081 A 
HETATM   23  C   UNL     1       8.500  23.434  55.783  1.00  0.00     0.039 A 
HETATM   24  C   UNL     1       8.887  22.180  55.313  1.00  0.00     0.026 A 
HETATM   25  C   UNL     1       8.440  21.746  54.067  1.00  0.00     0.035 A 
HETATM   26  C   UNL     1       7.611  22.552  53.286  1.00  0.00     0.040 A 
HETATM   27 CL   UNL     1       8.923  20.201  53.480  1.00  0.00    -0.084 Cl
BRANCH  22  28
HETATM   28  O   UNL     1       7.360  25.498  55.478  1.00  0.00    -0.355 OA
HETATM   29  C   UNL     1       6.547  25.416  56.650  1.00  0.00     0.210 C 
ENDBRANCH  22  28
ENDBRANCH   1  21
TORSDOF 5
ENDMDL
MODEL 7
REMARK VINA RESULT:      -8.9      2.503      9.620
REMARK  5 active torsions:
REMARK  status: ('A' for Active; 'I' for Inactive)
REMARK    1  A    between atoms: O_2  and  C_3 
REMARK    2  A    between atoms: C_4  and  C_5 
REMARK    3  A    between atoms: C_9  and  N_10 
REMARK       I    between atoms: N_10  and  C_11 
REMARK    4  A    between atoms: C_11  and  C_12 
REMARK    5  A    between atoms: C_12  and  C_13 
ROOT
HETATM    1  C   UNL     1       7.189  28.065  56.296  1.00  0.00     0.093 A 
HETATM    2  N   UNL     1       7.978  29.051  55.839  1.00  0.00    -0.172 NA
HETATM    3  N   UNL     1       8.318  29.742  56.940  1.00  0.00    -0.262 N 
HETATM    4  H   UNL     1       8.911  30.564  56.856  1.00  0.00     0.191 HD
HETATM    5  C   UNL     1       7.822  29.209  58.100  1.00  0.00     0.126 A 
HETATM    6  C   UNL     1       7.076  28.123  57.714  1.00  0.00     0.084 A 
ENDROOT
BRANCH   5   7
HETATM    7  N   UNL     1       8.072  29.710  59.361  1.00  0.00    -0.311 N 
HETATM    8  C   UNL     1       8.290  31.056  59.579  1.00  0.00     0.236 C 
HETATM    9  O   UNL     1       8.260  31.934  58.721  1.00  0.00    -0.272 OA
HETATM   10  H   UNL     1       8.119  29.066  60.140  1.00  0.00     0.170 HD
BRANCH   8  11
HETATM   11  C   UNL     1       8.610  31.404  61.012  1.00  0.00     0.068 A 
HETATM   12  C   UNL     1       9.531  30.444  61.764  1.00  0.00     0.026 A 
HETATM   13  C   UNL     1      10.045  31.790  61.366  1.00  0.00     0.026 A 
BRANCH  11  14
HETATM   14  C   UNL     1       7.458  32.016  61.808  1.00  0.00    -0.039 A 
HETATM   15  C   UNL     1       7.633  32.517  63.109  1.00  0.00     0.032 A 
HETATM   16  C   UNL     1       6.567  33.086  63.811  1.00  0.00     0.034 A 
HETATM   17 CL   UNL     1       6.822  33.682  65.405  1.00  0.00    -0.084 Cl
HETATM   18  C   UNL     1       5.306  33.177  63.232  1.00  0.00     0.024 A 
HETATM   19  C   UNL     1       5.108  32.695  61.941  1.00  0.00     0.002 A 
HETATM   20  C   UNL     1       6.173  32.123  61.242  1.00  0.00     0.008 A 
ENDBRANCH  11  14
ENDBRANCH   8  11
ENDBRANCH   5   7
BRANCH   1  21
HETATM   21  C   UNL     1       6.607  27.057  55.410  1.00  0.00     0.029 A 
HETATM   22  C   UNL     1       5.546  27.339  54.533  1.00  0.00     0.081 A 
HETATM   23  C   UNL     1       5.004  26.337  53.719  1.00  0.00     0.039 A 
HETATM   24  C   UNL     1       5.536  25.049  53.750  1.00  0.00     0.026 A 
HETATM   25  C   UNL     1       6.598  24.765  54.605  1.00  0.00     0.035 A 
HETATM   26  C   UNL     1       7.132  25.754  55.432  1.00  0.00     0.040 A 
HETATM   27 CL   UNL     1       7.252  23.173  54.652  1.00  0.00    -0.084 Cl
BRANCH  22  28
HETATM   28  O   UNL     1       4.944  28.572  54.528  1.00  0.00    -0.355 OA
HETATM   29  C   UNL     1       3.880  28.602  53.575  1.00  0.00     0.210 C 
ENDBRANCH  22  28
ENDBRANCH   1  21
TORSDOF 5
ENDMDL
MODEL 8
REMARK VINA RESULT:      -8.7      2.735      9.333
REMARK  5 active torsions:
REMARK  status: ('A' for Active; 'I' for Inactive)
REMARK    1  A    between atoms: O_2  and  C_3 
REMARK    2  A    between atoms: C_4  and  C_5 
REMARK    3  A    between atoms: C_9  and  N_10 
REMARK       I    between atoms: N_10  and  C_11 
REMARK    4  A    between atoms: C_11  and  C_12 
REMARK    5  A    between atoms: C_12  and  C_13 
ROOT
HETATM    1  C   UNL     1       7.661  27.727  56.341  1.00  0.00     0.093 A 
HETATM    2  N   UNL     1       8.597  28.610  55.958  1.00  0.00    -0.172 NA
HETATM    3  N   UNL     1       8.704  29.455  56.998  1.00  0.00    -0.262 N 
HETATM    4  H   UNL     1       9.351  30.238  56.947  1.00  0.00     0.191 HD
HETATM    5  C   UNL     1       7.910  29.121  58.062  1.00  0.00     0.126 A 
HETATM    6  C   UNL     1       7.212  28.008  57.664  1.00  0.00     0.084 A 
ENDROOT
BRANCH   5   7
HETATM    7  N   UNL     1       7.878  29.804  59.260  1.00  0.00    -0.311 N 
HETATM    8  C   UNL     1       8.461  31.048  59.404  1.00  0.00     0.236 C 
HETATM    9  O   UNL     1       9.026  31.681  58.515  1.00  0.00    -0.272 OA
HETATM   10  H   UNL     1       7.436  29.368  60.059  1.00  0.00     0.170 HD
BRANCH   8  11
HETATM   11  C   UNL     1       8.380  31.608  60.802  1.00  0.00     0.068 A 
HETATM   12  C   UNL     1       8.854  30.700  61.936  1.00  0.00     0.026 A 
HETATM   13  C   UNL     1       9.681  31.884  61.553  1.00  0.00     0.026 A 
BRANCH  11  14
HETATM   14  C   UNL     1       7.160  32.482  61.086  1.00  0.00    -0.039 A 
HETATM   15  C   UNL     1       5.994  32.413  60.304  1.00  0.00     0.032 A 
HETATM   16  C   UNL     1       4.884  33.211  60.593  1.00  0.00     0.034 A 
HETATM   17 CL   UNL     1       3.478  33.100  59.607  1.00  0.00    -0.084 Cl
HETATM   18  C   UNL     1       4.906  34.091  61.670  1.00  0.00     0.024 A 
HETATM   19  C   UNL     1       6.045  34.173  62.465  1.00  0.00     0.002 A 
HETATM   20  C   UNL     1       7.155  33.376  62.173  1.00  0.00     0.008 A 
ENDBRANCH  11  14
ENDBRANCH   8  11
ENDBRANCH   5   7
BRANCH   1  21
HETATM   21  C   UNL     1       7.248  26.610  55.493  1.00  0.00     0.029 A 
HETATM   22  C   UNL     1       7.637  25.284  55.743  1.00  0.00     0.081 A 
HETATM   23  C   UNL     1       7.239  24.247  54.889  1.00  0.00     0.039 A 
HETATM   24  C   UNL     1       6.422  24.522  53.793  1.00  0.00     0.026 A 
HETATM   25  C   UNL     1       6.020  25.832  53.547  1.00  0.00     0.035 A 
HETATM   26  C   UNL     1       6.427  26.872  54.383  1.00  0.00     0.040 A 
HETATM   27 CL   UNL     1       5.018  26.175  52.189  1.00  0.00    -0.084 Cl
BRANCH  22  28
HETATM   28  O   UNL     1       8.502  24.982  56.764  1.00  0.00    -0.355 OA
HETATM   29  C   UNL     1       8.463  23.584  57.053  1.00  0.00     0.210 C 
ENDBRANCH  22  28
ENDBRANCH   1  21
TORSDOF 5
ENDMDL
MODEL 9
REMARK VINA RESULT:      -8.7      4.805      7.339
REMARK  5 active torsions:
REMARK  status: ('A' for Active; 'I' for Inactive)
REMARK    1  A    between atoms: O_2  and  C_3 
REMARK    2  A    between atoms: C_4  and  C_5 
REMARK    3  A    between atoms: C_9  and  N_10 
REMARK       I    between atoms: N_10  and  C_11 
REMARK    4  A    between atoms: C_11  and  C_12 
REMARK    5  A    between atoms: C_12  and  C_13 
ROOT
HETATM    1  C   UNL     1       5.273  26.959  51.654  1.00  0.00     0.093 A 
HETATM    2  N   UNL     1       4.303  26.781  52.565  1.00  0.00    -0.172 NA
HETATM    3  N   UNL     1       4.883  26.050  53.532  1.00  0.00    -0.262 N 
HETATM    4  H   UNL     1       4.339  25.765  54.343  1.00  0.00     0.191 HD
HETATM    5  C   UNL     1       6.208  25.792  53.307  1.00  0.00     0.126 A 
HETATM    6  C   UNL     1       6.491  26.362  52.090  1.00  0.00     0.084 A 
ENDROOT
BRANCH   5   7
HETATM    7  N   UNL     1       7.030  25.104  54.175  1.00  0.00    -0.311 N 
HETATM    8  C   UNL     1       6.690  24.910  55.500  1.00  0.00     0.236 C 
HETATM    9  O   UNL     1       5.649  25.284  56.033  1.00  0.00    -0.272 OA
HETATM   10  H   UNL     1       7.916  24.754  53.833  1.00  0.00     0.170 HD
BRANCH   8  11
HETATM   11  C   UNL     1       7.743  24.191  56.307  1.00  0.00     0.068 A 
HETATM   12  C   UNL     1       8.971  25.004  56.715  1.00  0.00     0.026 A 
HETATM   13  C   UNL     1       7.970  24.620  57.755  1.00  0.00     0.026 A 
BRANCH  11  14
HETATM   14  C   UNL     1       7.981  22.734  55.918  1.00  0.00    -0.039 A 
HETATM   15  C   UNL     1       7.952  22.303  54.581  1.00  0.00     0.032 A 
HETATM   16  C   UNL     1       8.188  20.966  54.248  1.00  0.00     0.034 A 
HETATM   17 CL   UNL     1       8.136  20.479  52.599  1.00  0.00    -0.084 Cl
HETATM   18  C   UNL     1       8.466  20.030  55.238  1.00  0.00     0.024 A 
HETATM   19  C   UNL     1       8.509  20.431  56.570  1.00  0.00     0.002 A 
HETATM   20  C   UNL     1       8.270  21.767  56.901  1.00  0.00     0.008 A 
ENDBRANCH  11  14
ENDBRANCH   8  11
ENDBRANCH   5   7
BRANCH   1  21
HETATM   21  C   UNL     1       5.062  27.729  50.430  1.00  0.00     0.029 A 
HETATM   22  C   UNL     1       4.459  27.183  49.285  1.00  0.00     0.081 A 
HETATM   23  C   UNL     1       4.298  27.951  48.125  1.00  0.00     0.039 A 
HETATM   24  C   UNL     1       4.712  29.283  48.107  1.00  0.00     0.026 A 
HETATM   25  C   UNL     1       5.297  29.836  49.243  1.00  0.00     0.035 A 
HETATM   26  C   UNL     1       5.476  29.071  50.397  1.00  0.00     0.040 A 
HETATM   27 CL   UNL     1       5.817  31.477  49.221  1.00  0.00    -0.084 Cl
BRANCH  22  28
HETATM   28  O   UNL     1       4.108  25.858  49.235  1.00  0.00    -0.355 OA
HETATM   29  C   UNL     1       3.262  25.608  48.111  1.00  0.00     0.210 C 
ENDBRANCH  22  28
ENDBRANCH   1  21
TORSDOF 5
ENDMDL
MODEL 10
REMARK VINA RESULT:      -8.4      4.574      7.531
REMARK  5 active torsions:
REMARK  status: ('A' for Active; 'I' for Inactive)
REMARK    1  A    between atoms: O_2  and  C_3 
REMARK    2  A    between atoms: C_4  and  C_5 
REMARK    3  A    between atoms: C_9  and  N_10 
REMARK       I    between atoms: N_10  and  C_11 
REMARK    4  A    between atoms: C_11  and  C_12 
REMARK    5  A    between atoms: C_12  and  C_13 
ROOT
HETATM    1  C   UNL     1       4.287  28.546  51.491  1.00  0.00     0.093 A 
HETATM    2  N   UNL     1       5.348  29.288  51.845  1.00  0.00    -0.172 NA
HETATM    3  N   UNL     1       5.908  28.606  52.860  1.00  0.00    -0.262 N 
HETATM    4  H   UNL     1       6.735  28.977  53.320  1.00  0.00     0.191 HD
HETATM    5  C   UNL     1       5.279  27.423  53.141  1.00  0.00     0.126 A 
HETATM    6  C   UNL     1       4.215  27.358  52.274  1.00  0.00     0.084 A 
ENDROOT
BRANCH   5   7
HETATM    7  N   UNL     1       5.692  26.526  54.103  1.00  0.00    -0.311 N 
HETATM    8  C   UNL     1       7.029  26.242  54.307  1.00  0.00     0.236 C 
HETATM    9  O   UNL     1       7.968  26.753  53.704  1.00  0.00    -0.272 OA
HETATM   10  H   UNL     1       4.992  26.048  54.657  1.00  0.00     0.170 HD
BRANCH   8  11
HETATM   11  C   UNL     1       7.281  25.190  55.359  1.00  0.00     0.068 A 
HETATM   12  C   UNL     1       8.082  25.622  56.587  1.00  0.00     0.026 A 
HETATM   13  C   UNL     1       6.619  25.353  56.726  1.00  0.00     0.026 A 
BRANCH  11  14
HETATM   14  C   UNL     1       7.546  23.784  54.825  1.00  0.00    -0.039 A 
HETATM   15  C   UNL     1       7.682  22.674  55.677  1.00  0.00     0.032 A 
HETATM   16  C   UNL     1       7.909  21.395  55.164  1.00  0.00     0.034 A 
HETATM   17 CL   UNL     1       8.075  20.064  56.242  1.00  0.00    -0.084 Cl
HETATM   18  C   UNL     1       8.000  21.189  53.791  1.00  0.00     0.024 A 
HETATM   19  C   UNL     1       7.863  22.269  52.925  1.00  0.00     0.002 A 
HETATM   20  C   UNL     1       7.638  23.549  53.440  1.00  0.00     0.008 A 
ENDBRANCH  11  14
ENDBRANCH   8  11
ENDBRANCH   5   7
BRANCH   1  21
HETATM   21  C   UNL     1       3.399  28.928  50.393  1.00  0.00     0.029 A 
HETATM   22  C   UNL     1       3.593  28.489  49.073  1.00  0.00     0.081 A 
HETATM   23  C   UNL     1       2.731  28.900  48.048  1.00  0.00     0.039 A 
HETATM   24  C   UNL     1       1.649  29.730  48.337  1.00  0.00     0.026 A 
HETATM   25  C   UNL     1       1.442  30.158  49.647  1.00  0.00     0.035 A 
HETATM   26  C   UNL     1       2.306  29.767  50.670  1.00  0.00     0.040 A 
HETATM   27 CL   UNL     1       0.112  31.191  50.005  1.00  0.00    -0.084 Cl
BRANCH  22  28
HETATM   28  O   UNL     1       4.687  27.735  48.733  1.00  0.00    -0.355 OA
HETATM   29  C   UNL     1       4.288  26.408  48.383  1.00  0.00     0.210 C 
ENDBRANCH  22  28
ENDBRANCH   1  21
TORSDOF 5
ENDMDL
