MODEL 1
REMARK VINA RESULT:     -11.4      0.000      0.000
REMARK  6 active torsions:
REMARK  status: ('A' for Active; 'I' for Inactive)
REMARK    1  A    between atoms: C_4  and  N_5 
REMARK    2  A    between atoms: C_6  and  S_7 
REMARK    3  A    between atoms: S_7  and  C_8 
REMARK    4  A    between atoms: C_8  and  C_9 
REMARK       I    between atoms: C_9  and  N_10 
REMARK    5  A    between atoms: N_10  and  C_11 
REMARK    6  A    between atoms: C_24  and  C_25 
ROOT
HETATM    1  N   UNL     1       7.024  27.126  56.108  1.00  0.00    -0.271 N 
HETATM    2  C   UNL     1       7.217  27.902  57.244  1.00  0.00     0.197 A 
HETATM    3  N   UNL     1       7.988  27.275  58.101  1.00  0.00    -0.122 NA
HETATM    4  N   UNL     1       8.326  26.071  57.560  1.00  0.00    -0.128 NA
HETATM    5  C   UNL     1       7.730  25.950  56.386  1.00  0.00     0.169 A 
ENDROOT
BRANCH   2   6
HETATM    6  S   UNL     1       6.696  29.545  57.463  1.00  0.00    -0.080 SA
BRANCH   6   7
HETATM    7  C   UNL     1       8.024  30.159  58.546  1.00  0.00     0.185 C 
BRANCH   7   8
HETATM    8  C   UNL     1       7.492  31.211  59.505  1.00  0.00     0.231 C 
HETATM    9  N   UNL     1       7.479  30.785  60.826  1.00  0.00    -0.326 N 
HETATM   10  H   UNL     1       7.675  29.801  60.975  1.00  0.00     0.169 HD
HETATM   11  O   UNL     1       7.169  32.326  59.103  1.00  0.00    -0.272 OA
BRANCH   9  12
HETATM   12  C   UNL     1       7.159  31.543  61.972  1.00  0.00     0.037 A 
HETATM   13  C   UNL     1       5.850  31.743  62.426  1.00  0.00     0.061 A 
HETATM   14  C   UNL     1       5.687  32.527  63.546  1.00  0.00     0.065 A 
HETATM   15  C   UNL     1       6.760  33.103  64.219  1.00  0.00     0.063 A 
HETATM   16  N   UNL     1       4.520  32.900  64.205  1.00  0.00    -0.306 N 
HETATM   17  N   UNL     1       6.256  33.828  65.292  1.00  0.00    -0.307 N 
HETATM   18  C   UNL     1       8.056  32.928  63.807  1.00  0.00     0.034 A 
HETATM   19  C   UNL     1       4.857  33.712  65.297  1.00  0.00     0.325 A 
HETATM   20  H   UNL     1       6.773  34.363  65.970  1.00  0.00     0.170 HD
HETATM   21  O   UNL     1       4.090  34.222  66.093  1.00  0.00    -0.247 OA
HETATM   22  C   UNL     1       8.249  32.137  62.664  1.00  0.00     0.032 A 
HETATM   23  H   UNL     1       3.576  32.646  63.961  1.00  0.00     0.170 HD
ENDBRANCH   9  12
ENDBRANCH   7   8
ENDBRANCH   6   7
ENDBRANCH   2   6
BRANCH   1  24
HETATM   24  C   UNL     1       6.311  27.444  54.917  1.00  0.00     0.043 A 
HETATM   25  C   UNL     1       6.952  28.141  53.882  1.00  0.00     0.030 A 
HETATM   26  C   UNL     1       6.264  28.435  52.702  1.00  0.00     0.002 A 
HETATM   27  C   UNL     1       4.938  28.037  52.548  1.00  0.00     0.000 A 
HETATM   28  C   UNL     1       4.296  27.345  53.573  1.00  0.00     0.002 A 
HETATM   29  C   UNL     1       4.977  27.048  54.756  1.00  0.00     0.030 A 
ENDBRANCH   1  24
BRANCH   5  30
HETATM   30  C   UNL     1       7.769  24.719  55.593  1.00  0.00     0.012 A 
HETATM   31  C   UNL     1       7.912  24.742  54.197  1.00  0.00     0.017 A 
HETATM   32  C   UNL     1       7.927  23.550  53.466  1.00  0.00     0.025 A 
HETATM   33  C   UNL     1       7.783  22.330  54.123  1.00  0.00     0.034 A 
HETATM   34 CL   UNL     1       7.801  20.866  53.223  1.00  0.00    -0.084 Cl
HETATM   35  C   UNL     1       7.617  22.291  55.506  1.00  0.00     0.025 A 
HETATM   36  C   UNL     1       7.604  23.483  56.236  1.00  0.00     0.017 A 
ENDBRANCH   5  30
TORSDOF 6
ENDMDL
MODEL 2
REMARK VINA RESULT:     -11.4      0.131      1.190
REMARK  6 active torsions:
REMARK  status: ('A' for Active; 'I' for Inactive)
REMARK    1  A    between atoms: C_4  and  N_5 
REMARK    2  A    between atoms: C_6  and  S_7 
REMARK    3  A    between atoms: S_7  and  C_8 
REMARK    4  A    between atoms: C_8  and  C_9 
REMARK       I    between atoms: C_9  and  N_10 
REMARK    5  A    between atoms: N_10  and  C_11 
REMARK    6  A    between atoms: C_24  and  C_25 
ROOT
HETATM    1  N   UNL     1       7.015  27.165  56.105  1.00  0.00    -0.271 N 
HETATM    2  C   UNL     1       7.239  27.934  57.238  1.00  0.00     0.197 A 
HETATM    3  N   UNL     1       8.010  27.291  58.083  1.00  0.00    -0.122 NA
HETATM    4  N   UNL     1       8.317  26.082  57.536  1.00  0.00    -0.128 NA
HETATM    5  C   UNL     1       7.701  25.975  56.371  1.00  0.00     0.169 A 
ENDROOT
BRANCH   2   6
HETATM    6  S   UNL     1       6.754  29.587  57.468  1.00  0.00    -0.080 SA
BRANCH   6   7
HETATM    7  C   UNL     1       8.057  30.147  58.609  1.00  0.00     0.185 C 
BRANCH   7   8
HETATM    8  C   UNL     1       7.522  31.207  59.557  1.00  0.00     0.231 C 
HETATM    9  N   UNL     1       7.489  30.787  60.879  1.00  0.00    -0.326 N 
HETATM   10  H   UNL     1       7.675  29.803  61.034  1.00  0.00     0.169 HD
HETATM   11  O   UNL     1       7.213  32.323  59.146  1.00  0.00    -0.272 OA
BRANCH   9  12
HETATM   12  C   UNL     1       7.161  31.553  62.018  1.00  0.00     0.037 A 
HETATM   13  C   UNL     1       5.851  31.736  62.475  1.00  0.00     0.061 A 
HETATM   14  C   UNL     1       5.679  32.529  63.588  1.00  0.00     0.065 A 
HETATM   15  C   UNL     1       6.745  33.132  64.249  1.00  0.00     0.063 A 
HETATM   16  N   UNL     1       4.509  32.889  64.248  1.00  0.00    -0.306 N 
HETATM   17  N   UNL     1       6.233  33.860  65.316  1.00  0.00    -0.307 N 
HETATM   18  C   UNL     1       8.042  32.974  63.833  1.00  0.00     0.034 A 
HETATM   19  C   UNL     1       4.837  33.719  65.328  1.00  0.00     0.325 A 
HETATM   20  H   UNL     1       6.744  34.411  65.986  1.00  0.00     0.170 HD
HETATM   21  O   UNL     1       4.064  34.225  66.123  1.00  0.00    -0.247 OA
HETATM   22  C   UNL     1       8.244  32.174  62.698  1.00  0.00     0.032 A 
HETATM   23  H   UNL     1       3.568  32.616  64.011  1.00  0.00     0.170 HD
ENDBRANCH   9  12
ENDBRANCH   7   8
ENDBRANCH   6   7
ENDBRANCH   2   6
BRANCH   1  24
HETATM   24  C   UNL     1       6.290  27.498  54.925  1.00  0.00     0.043 A 
HETATM   25  C   UNL     1       4.895  27.361  54.897  1.00  0.00     0.030 A 
HETATM   26  C   UNL     1       4.177  27.709  53.751  1.00  0.00     0.002 A 
HETATM   27  C   UNL     1       4.844  28.194  52.628  1.00  0.00     0.000 A 
HETATM   28  C   UNL     1       6.231  28.331  52.649  1.00  0.00     0.002 A 
HETATM   29  C   UNL     1       6.955  27.985  53.792  1.00  0.00     0.030 A 
ENDBRANCH   1  24
BRANCH   5  30
HETATM   30  C   UNL     1       7.703  24.743  55.576  1.00  0.00     0.012 A 
HETATM   31  C   UNL     1       7.587  23.479  56.171  1.00  0.00     0.017 A 
HETATM   32  C   UNL     1       7.612  22.321  55.387  1.00  0.00     0.025 A 
HETATM   33  C   UNL     1       7.768  22.420  54.007  1.00  0.00     0.034 A 
HETATM   34 CL   UNL     1       7.798  20.996  53.044  1.00  0.00    -0.084 Cl
HETATM   35  C   UNL     1       7.907  23.668  53.402  1.00  0.00     0.025 A 
HETATM   36  C   UNL     1       7.881  24.824  54.186  1.00  0.00     0.017 A 
ENDBRANCH   5  30
TORSDOF 6
ENDMDL
MODEL 3
REMARK VINA RESULT:     -10.1      2.042      3.355
REMARK  6 active torsions:
REMARK  status: ('A' for Active; 'I' for Inactive)
REMARK    1  A    between atoms: C_4  and  N_5 
REMARK    2  A    between atoms: C_6  and  S_7 
REMARK    3  A    between atoms: S_7  and  C_8 
REMARK    4  A    between atoms: C_8  and  C_9 
REMARK       I    between atoms: C_9  and  N_10 
REMARK    5  A    between atoms: N_10  and  C_11 
REMARK    6  A    between atoms: C_24  and  C_25 
ROOT
HETATM    1  N   UNL     1       6.656  29.002  56.751  1.00  0.00    -0.271 N 
HETATM    2  C   UNL     1       5.525  29.805  56.811  1.00  0.00     0.197 A 
HETATM    3  N   UNL     1       4.440  29.078  56.684  1.00  0.00    -0.122 NA
HETATM    4  N   UNL     1       4.819  27.778  56.538  1.00  0.00    -0.128 NA
HETATM    5  C   UNL     1       6.140  27.718  56.539  1.00  0.00     0.169 A 
ENDROOT
BRANCH   2   6
HETATM    6  S   UNL     1       5.491  31.501  57.189  1.00  0.00    -0.080 SA
BRANCH   6   7
HETATM    7  C   UNL     1       4.389  31.482  58.638  1.00  0.00     0.185 C 
BRANCH   7   8
HETATM    8  C   UNL     1       4.922  32.396  59.729  1.00  0.00     0.231 C 
HETATM    9  N   UNL     1       4.986  31.778  60.971  1.00  0.00    -0.326 N 
HETATM   10  H   UNL     1       4.542  30.870  61.036  1.00  0.00     0.169 HD
HETATM   11  O   UNL     1       5.293  33.538  59.471  1.00  0.00    -0.272 OA
BRANCH   9  12
HETATM   12  C   UNL     1       5.535  32.297  62.163  1.00  0.00     0.037 A 
HETATM   13  C   UNL     1       4.762  32.722  63.249  1.00  0.00     0.061 A 
HETATM   14  C   UNL     1       5.434  33.229  64.339  1.00  0.00     0.065 A 
HETATM   15  C   UNL     1       6.822  33.322  64.385  1.00  0.00     0.063 A 
HETATM   16  N   UNL     1       4.932  33.728  65.537  1.00  0.00    -0.306 N 
HETATM   17  N   UNL     1       7.175  33.876  65.610  1.00  0.00    -0.307 N 
HETATM   18  C   UNL     1       7.613  32.914  63.342  1.00  0.00     0.034 A 
HETATM   19  C   UNL     1       6.006  34.136  66.341  1.00  0.00     0.325 A 
HETATM   20  H   UNL     1       8.102  34.076  65.949  1.00  0.00     0.170 HD
HETATM   21  O   UNL     1       5.941  34.625  67.454  1.00  0.00    -0.247 OA
HETATM   22  C   UNL     1       6.952  32.398  62.218  1.00  0.00     0.032 A 
HETATM   23  H   UNL     1       3.965  33.799  65.809  1.00  0.00     0.170 HD
ENDBRANCH   9  12
ENDBRANCH   7   8
ENDBRANCH   6   7
ENDBRANCH   2   6
BRANCH   1  24
HETATM   24  C   UNL     1       8.024  29.368  56.902  1.00  0.00     0.043 A 
HETATM   25  C   UNL     1       8.896  29.284  55.807  1.00  0.00     0.030 A 
HETATM   26  C   UNL     1      10.233  29.664  55.944  1.00  0.00     0.002 A 
HETATM   27  C   UNL     1      10.707  30.128  57.168  1.00  0.00     0.000 A 
HETATM   28  C   UNL     1       9.845  30.213  58.261  1.00  0.00     0.002 A 
HETATM   29  C   UNL     1       8.507  29.834  58.132  1.00  0.00     0.030 A 
ENDBRANCH   1  24
BRANCH   5  30
HETATM   30  C   UNL     1       6.884  26.486  56.265  1.00  0.00     0.012 A 
HETATM   31  C   UNL     1       7.584  25.805  57.272  1.00  0.00     0.017 A 
HETATM   32  C   UNL     1       8.301  24.642  56.976  1.00  0.00     0.025 A 
HETATM   33  C   UNL     1       8.334  24.161  55.669  1.00  0.00     0.034 A 
HETATM   34 CL   UNL     1       9.216  22.730  55.306  1.00  0.00    -0.084 Cl
HETATM   35  C   UNL     1       7.663  24.838  54.653  1.00  0.00     0.025 A 
HETATM   36  C   UNL     1       6.946  25.999  54.950  1.00  0.00     0.017 A 
ENDBRANCH   5  30
TORSDOF 6
ENDMDL
MODEL 4
REMARK VINA RESULT:      -9.9      6.612     11.237
REMARK  6 active torsions:
REMARK  status: ('A' for Active; 'I' for Inactive)
REMARK    1  A    between atoms: C_4  and  N_5 
REMARK    2  A    between atoms: C_6  and  S_7 
REMARK    3  A    between atoms: S_7  and  C_8 
REMARK    4  A    between atoms: C_8  and  C_9 
REMARK       I    between atoms: C_9  and  N_10 
REMARK    5  A    between atoms: N_10  and  C_11 
REMARK    6  A    between atoms: C_24  and  C_25 
ROOT
HETATM    1  N   UNL     1       5.866  26.209  53.574  1.00  0.00    -0.271 N 
HETATM    2  C   UNL     1       5.129  26.772  52.541  1.00  0.00     0.197 A 
HETATM    3  N   UNL     1       4.911  25.886  51.598  1.00  0.00    -0.122 NA
HETATM    4  N   UNL     1       5.495  24.715  51.979  1.00  0.00    -0.128 NA
HETATM    5  C   UNL     1       6.101  24.900  53.140  1.00  0.00     0.169 A 
ENDROOT
BRANCH   2   6
HETATM    6  S   UNL     1       4.412  28.355  52.537  1.00  0.00    -0.080 SA
BRANCH   6   7
HETATM    7  C   UNL     1       5.448  29.171  51.282  1.00  0.00     0.185 C 
BRANCH   7   8
HETATM    8  C   UNL     1       4.857  28.984  49.894  1.00  0.00     0.231 C 
HETATM    9  N   UNL     1       3.693  28.229  49.897  1.00  0.00    -0.326 N 
HETATM   10  H   UNL     1       3.462  27.775  50.774  1.00  0.00     0.169 HD
HETATM   11  O   UNL     1       5.371  29.514  48.913  1.00  0.00    -0.272 OA
BRANCH   9  12
HETATM   12  C   UNL     1       2.835  27.964  48.808  1.00  0.00     0.037 A 
HETATM   13  C   UNL     1       1.806  28.825  48.408  1.00  0.00     0.061 A 
HETATM   14  C   UNL     1       1.033  28.426  47.341  1.00  0.00     0.065 A 
HETATM   15  C   UNL     1       1.245  27.224  46.671  1.00  0.00     0.063 A 
HETATM   16  N   UNL     1      -0.048  29.064  46.741  1.00  0.00    -0.306 N 
HETATM   17  N   UNL     1       0.298  27.124  45.658  1.00  0.00    -0.307 N 
HETATM   18  C   UNL     1       2.244  26.357  47.032  1.00  0.00     0.034 A 
HETATM   19  C   UNL     1      -0.518  28.265  45.690  1.00  0.00     0.325 A 
HETATM   20  H   UNL     1       0.183  26.373  44.998  1.00  0.00     0.170 HD
HETATM   21  O   UNL     1      -1.453  28.508  44.949  1.00  0.00    -0.247 OA
HETATM   22  C   UNL     1       3.043  26.738  48.119  1.00  0.00     0.032 A 
HETATM   23  H   UNL     1      -0.450  29.952  46.998  1.00  0.00     0.170 HD
ENDBRANCH   9  12
ENDBRANCH   7   8
ENDBRANCH   6   7
ENDBRANCH   2   6
BRANCH   1  24
HETATM   24  C   UNL     1       6.269  26.794  54.809  1.00  0.00     0.043 A 
HETATM   25  C   UNL     1       7.555  27.338  54.940  1.00  0.00     0.030 A 
HETATM   26  C   UNL     1       7.947  27.934  56.140  1.00  0.00     0.002 A 
HETATM   27  C   UNL     1       7.063  27.990  57.215  1.00  0.00     0.000 A 
HETATM   28  C   UNL     1       5.783  27.451  57.092  1.00  0.00     0.002 A 
HETATM   29  C   UNL     1       5.384  26.853  55.894  1.00  0.00     0.030 A 
ENDBRANCH   1  24
BRANCH   5  30
HETATM   30  C   UNL     1       6.944  23.882  53.772  1.00  0.00     0.012 A 
HETATM   31  C   UNL     1       7.834  23.093  53.029  1.00  0.00     0.017 A 
HETATM   32  C   UNL     1       8.612  22.116  53.659  1.00  0.00     0.025 A 
HETATM   33  C   UNL     1       8.493  21.913  55.032  1.00  0.00     0.034 A 
HETATM   34 CL   UNL     1       9.451  20.712  55.805  1.00  0.00    -0.084 Cl
HETATM   35  C   UNL     1       7.598  22.674  55.781  1.00  0.00     0.025 A 
HETATM   36  C   UNL     1       6.822  23.650  55.151  1.00  0.00     0.017 A 
ENDBRANCH   5  30
TORSDOF 6
ENDMDL
MODEL 5
REMARK VINA RESULT:      -9.7      1.605      2.227
REMARK  6 active torsions:
REMARK  status: ('A' for Active; 'I' for Inactive)
REMARK    1  A    between atoms: C_4  and  N_5 
REMARK    2  A    between atoms: C_6  and  S_7 
REMARK    3  A    between atoms: S_7  and  C_8 
REMARK    4  A    between atoms: C_8  and  C_9 
REMARK       I    between atoms: C_9  and  N_10 
REMARK    5  A    between atoms: N_10  and  C_11 
REMARK    6  A    between atoms: C_24  and  C_25 
ROOT
HETATM    1  N   UNL     1       7.187  26.491  56.113  1.00  0.00    -0.271 N 
HETATM    2  C   UNL     1       7.243  27.184  57.314  1.00  0.00     0.197 A 
HETATM    3  N   UNL     1       7.925  26.502  58.204  1.00  0.00    -0.122 NA
HETATM    4  N   UNL     1       8.339  25.343  57.620  1.00  0.00    -0.128 NA
HETATM    5  C   UNL     1       7.876  25.303  56.382  1.00  0.00     0.169 A 
ENDROOT
BRANCH   2   6
HETATM    6  S   UNL     1       6.677  28.803  57.591  1.00  0.00    -0.080 SA
BRANCH   6   7
HETATM    7  C   UNL     1       8.256  29.639  57.936  1.00  0.00     0.185 C 
BRANCH   7   8
HETATM    8  C   UNL     1       8.018  30.981  58.608  1.00  0.00     0.231 C 
HETATM    9  N   UNL     1       6.752  31.091  59.167  1.00  0.00    -0.326 N 
HETATM   10  H   UNL     1       6.101  30.349  58.937  1.00  0.00     0.169 HD
HETATM   11  O   UNL     1       8.908  31.825  58.666  1.00  0.00    -0.272 OA
BRANCH   9  12
HETATM   12  C   UNL     1       6.248  32.146  59.957  1.00  0.00     0.037 A 
HETATM   13  C   UNL     1       6.764  32.485  61.214  1.00  0.00     0.061 A 
HETATM   14  C   UNL     1       6.156  33.524  61.883  1.00  0.00     0.065 A 
HETATM   15  C   UNL     1       5.077  34.225  61.353  1.00  0.00     0.063 A 
HETATM   16  N   UNL     1       6.445  34.063  63.132  1.00  0.00    -0.306 N 
HETATM   17  N   UNL     1       4.702  35.197  62.274  1.00  0.00    -0.307 N 
HETATM   18  C   UNL     1       4.546  33.925  60.125  1.00  0.00     0.034 A 
HETATM   19  C   UNL     1       5.546  35.108  63.391  1.00  0.00     0.325 A 
HETATM   20  H   UNL     1       3.955  35.866  62.191  1.00  0.00     0.170 HD
HETATM   21  O   UNL     1       5.502  35.802  64.391  1.00  0.00    -0.247 OA
HETATM   22  C   UNL     1       5.144  32.866  59.425  1.00  0.00     0.032 A 
HETATM   23  H   UNL     1       7.170  33.772  63.768  1.00  0.00     0.170 HD
ENDBRANCH   9  12
ENDBRANCH   7   8
ENDBRANCH   6   7
ENDBRANCH   2   6
BRANCH   1  24
HETATM   24  C   UNL     1       6.603  26.889  54.876  1.00  0.00     0.043 A 
HETATM   25  C   UNL     1       5.234  26.685  54.650  1.00  0.00     0.030 A 
HETATM   26  C   UNL     1       4.652  27.095  53.448  1.00  0.00     0.002 A 
HETATM   27  C   UNL     1       5.429  27.707  52.467  1.00  0.00     0.000 A 
HETATM   28  C   UNL     1       6.790  27.911  52.685  1.00  0.00     0.002 A 
HETATM   29  C   UNL     1       7.380  27.504  53.885  1.00  0.00     0.030 A 
ENDBRANCH   1  24
BRANCH   5  30
HETATM   30  C   UNL     1       8.019  24.132  55.513  1.00  0.00     0.012 A 
HETATM   31  C   UNL     1       9.018  23.170  55.726  1.00  0.00     0.017 A 
HETATM   32  C   UNL     1       9.142  22.073  54.868  1.00  0.00     0.025 A 
HETATM   33  C   UNL     1       8.278  21.939  53.784  1.00  0.00     0.034 A 
HETATM   34 CL   UNL     1       8.430  20.590  52.729  1.00  0.00    -0.084 Cl
HETATM   35  C   UNL     1       7.295  22.897  53.545  1.00  0.00     0.025 A 
HETATM   36  C   UNL     1       7.171  23.993  54.403  1.00  0.00     0.017 A 
ENDBRANCH   5  30
TORSDOF 6
ENDMDL
MODEL 6
REMARK VINA RESULT:      -9.6      2.703      3.765
REMARK  6 active torsions:
REMARK  status: ('A' for Active; 'I' for Inactive)
REMARK    1  A    between atoms: C_4  and  N_5 
REMARK    2  A    between atoms: C_6  and  S_7 
REMARK    3  A    between atoms: S_7  and  C_8 
REMARK    4  A    between atoms: C_8  and  C_9 
REMARK       I    between atoms: C_9  and  N_10 
REMARK    5  A    between atoms: N_10  and  C_11 
REMARK    6  A    between atoms: C_24  and  C_25 
ROOT
HETATM    1  N   UNL     1       5.873  27.604  54.447  1.00  0.00    -0.271 N 
HETATM    2  C   UNL     1       4.833  28.420  54.021  1.00  0.00     0.197 A 
HETATM    3  N   UNL     1       4.038  27.761  53.211  1.00  0.00    -0.122 NA
HETATM    4  N   UNL     1       4.527  26.497  53.077  1.00  0.00    -0.128 NA
HETATM    5  C   UNL     1       5.643  26.397  53.779  1.00  0.00     0.169 A 
ENDROOT
BRANCH   2   6
HETATM    6  S   UNL     1       4.482  30.020  54.599  1.00  0.00    -0.080 SA
BRANCH   6   7
HETATM    7  C   UNL     1       3.767  29.623  56.225  1.00  0.00     0.185 C 
BRANCH   7   8
HETATM    8  C   UNL     1       4.386  30.488  57.310  1.00  0.00     0.231 C 
HETATM    9  N   UNL     1       3.455  31.270  57.980  1.00  0.00    -0.326 N 
HETATM   10  H   UNL     1       2.524  31.288  57.579  1.00  0.00     0.169 HD
HETATM   11  O   UNL     1       5.587  30.423  57.561  1.00  0.00    -0.272 OA
BRANCH   9  12
HETATM   12  C   UNL     1       3.671  32.091  59.106  1.00  0.00     0.037 A 
HETATM   13  C   UNL     1       3.238  31.764  60.397  1.00  0.00     0.061 A 
HETATM   14  C   UNL     1       3.499  32.674  61.397  1.00  0.00     0.065 A 
HETATM   15  C   UNL     1       4.164  33.874  61.161  1.00  0.00     0.063 A 
HETATM   16  N   UNL     1       3.182  32.620  62.750  1.00  0.00    -0.306 N 
HETATM   17  N   UNL     1       4.260  34.556  62.368  1.00  0.00    -0.307 N 
HETATM   18  C   UNL     1       4.606  34.228  59.912  1.00  0.00     0.034 A 
HETATM   19  C   UNL     1       3.649  33.787  63.370  1.00  0.00     0.325 A 
HETATM   20  H   UNL     1       4.683  35.455  62.534  1.00  0.00     0.170 HD
HETATM   21  O   UNL     1       3.545  34.081  64.547  1.00  0.00    -0.247 OA
HETATM   22  C   UNL     1       4.348  33.320  58.875  1.00  0.00     0.032 A 
HETATM   23  H   UNL     1       2.697  31.880  63.232  1.00  0.00     0.170 HD
ENDBRANCH   9  12
ENDBRANCH   7   8
ENDBRANCH   6   7
ENDBRANCH   2   6
BRANCH   1  24
HETATM   24  C   UNL     1       6.918  27.895  55.370  1.00  0.00     0.043 A 
HETATM   25  C   UNL     1       6.848  27.408  56.684  1.00  0.00     0.030 A 
HETATM   26  C   UNL     1       7.882  27.670  57.586  1.00  0.00     0.002 A 
HETATM   27  C   UNL     1       8.987  28.417  57.186  1.00  0.00     0.000 A 
HETATM   28  C   UNL     1       9.062  28.904  55.882  1.00  0.00     0.002 A 
HETATM   29  C   UNL     1       8.032  28.646  54.974  1.00  0.00     0.030 A 
ENDBRANCH   1  24
BRANCH   5  30
HETATM   30  C   UNL     1       6.503  25.210  53.748  1.00  0.00     0.012 A 
HETATM   31  C   UNL     1       7.246  24.866  52.609  1.00  0.00     0.017 A 
HETATM   32  C   UNL     1       8.043  23.717  52.603  1.00  0.00     0.025 A 
HETATM   33  C   UNL     1       8.090  22.899  53.730  1.00  0.00     0.034 A 
HETATM   34 CL   UNL     1       9.071  21.487  53.721  1.00  0.00    -0.084 Cl
HETATM   35  C   UNL     1       7.340  23.215  54.861  1.00  0.00     0.025 A 
HETATM   36  C   UNL     1       6.545  24.364  54.866  1.00  0.00     0.017 A 
ENDBRANCH   5  30
TORSDOF 6
ENDMDL
MODEL 7
REMARK VINA RESULT:      -9.6      3.306      4.806
REMARK  6 active torsions:
REMARK  status: ('A' for Active; 'I' for Inactive)
REMARK    1  A    between atoms: C_4  and  N_5 
REMARK    2  A    between atoms: C_6  and  S_7 
REMARK    3  A    between atoms: S_7  and  C_8 
REMARK    4  A    between atoms: C_8  and  C_9 
REMARK       I    between atoms: C_9  and  N_10 
REMARK    5  A    between atoms: N_10  and  C_11 
REMARK    6  A    between atoms: C_24  and  C_25 
ROOT
HETATM    1  N   UNL     1       6.336  26.791  53.297  1.00  0.00    -0.271 N 
HETATM    2  C   UNL     1       5.623  27.408  52.278  1.00  0.00     0.197 A 
HETATM    3  N   UNL     1       5.202  26.518  51.411  1.00  0.00    -0.122 NA
HETATM    4  N   UNL     1       5.623  25.292  51.828  1.00  0.00    -0.128 NA
HETATM    5  C   UNL     1       6.333  25.440  52.933  1.00  0.00     0.169 A 
ENDROOT
BRANCH   2   6
HETATM    6  S   UNL     1       5.163  29.082  52.218  1.00  0.00    -0.080 SA
BRANCH   6   7
HETATM    7  C   UNL     1       3.572  29.008  53.100  1.00  0.00     0.185 C 
BRANCH   7   8
HETATM    8  C   UNL     1       3.521  30.052  54.203  1.00  0.00     0.231 C 
HETATM    9  N   UNL     1       4.048  29.598  55.404  1.00  0.00    -0.326 N 
HETATM   10  H   UNL     1       4.258  28.607  55.449  1.00  0.00     0.169 HD
HETATM   11  O   UNL     1       3.095  31.182  53.984  1.00  0.00    -0.272 OA
BRANCH   9  12
HETATM   12  C   UNL     1       4.259  30.338  56.587  1.00  0.00     0.037 A 
HETATM   13  C   UNL     1       3.398  30.296  57.690  1.00  0.00     0.061 A 
HETATM   14  C   UNL     1       3.718  31.091  58.767  1.00  0.00     0.065 A 
HETATM   15  C   UNL     1       4.844  31.909  58.785  1.00  0.00     0.063 A 
HETATM   16  N   UNL     1       3.050  31.257  59.976  1.00  0.00    -0.306 N 
HETATM   17  N   UNL     1       4.872  32.576  60.005  1.00  0.00    -0.307 N 
HETATM   18  C   UNL     1       5.712  31.976  57.726  1.00  0.00     0.034 A 
HETATM   19  C   UNL     1       3.757  32.180  60.760  1.00  0.00     0.325 A 
HETATM   20  H   UNL     1       5.556  33.241  60.326  1.00  0.00     0.170 HD
HETATM   21  O   UNL     1       3.463  32.568  61.876  1.00  0.00    -0.247 OA
HETATM   22  C   UNL     1       5.406  31.178  56.613  1.00  0.00     0.032 A 
HETATM   23  H   UNL     1       2.199  30.805  60.268  1.00  0.00     0.170 HD
ENDBRANCH   9  12
ENDBRANCH   7   8
ENDBRANCH   6   7
ENDBRANCH   2   6
BRANCH   1  24
HETATM   24  C   UNL     1       6.915  27.370  54.463  1.00  0.00     0.043 A 
HETATM   25  C   UNL     1       8.028  28.215  54.348  1.00  0.00     0.030 A 
HETATM   26  C   UNL     1       8.584  28.803  55.486  1.00  0.00     0.002 A 
HETATM   27  C   UNL     1       8.036  28.553  56.742  1.00  0.00     0.000 A 
HETATM   28  C   UNL     1       6.930  27.713  56.863  1.00  0.00     0.002 A 
HETATM   29  C   UNL     1       6.369  27.121  55.729  1.00  0.00     0.030 A 
ENDBRANCH   1  24
BRANCH   5  30
HETATM   30  C   UNL     1       7.052  24.336  53.576  1.00  0.00     0.012 A 
HETATM   31  C   UNL     1       7.998  23.567  52.882  1.00  0.00     0.017 A 
HETATM   32  C   UNL     1       8.654  22.507  53.517  1.00  0.00     0.025 A 
HETATM   33  C   UNL     1       8.356  22.202  54.843  1.00  0.00     0.034 A 
HETATM   34 CL   UNL     1       9.163  20.899  55.623  1.00  0.00    -0.084 Cl
HETATM   35  C   UNL     1       7.402  22.941  55.539  1.00  0.00     0.025 A 
HETATM   36  C   UNL     1       6.749  24.000  54.904  1.00  0.00     0.017 A 
ENDBRANCH   5  30
TORSDOF 6
ENDMDL
MODEL 8
REMARK VINA RESULT:      -9.4      5.479      8.531
REMARK  6 active torsions:
REMARK  status: ('A' for Active; 'I' for Inactive)
REMARK    1  A    between atoms: C_4  and  N_5 
REMARK    2  A    between atoms: C_6  and  S_7 
REMARK    3  A    between atoms: S_7  and  C_8 
REMARK    4  A    between atoms: C_8  and  C_9 
REMARK       I    between atoms: C_9  and  N_10 
REMARK    5  A    between atoms: N_10  and  C_11 
REMARK    6  A    between atoms: C_24  and  C_25 
ROOT
HETATM    1  N   UNL     1       7.430  26.065  55.778  1.00  0.00    -0.271 N 
HETATM    2  C   UNL     1       7.478  27.199  56.578  1.00  0.00     0.197 A 
HETATM    3  N   UNL     1       8.198  26.973  57.651  1.00  0.00    -0.122 NA
HETATM    4  N   UNL     1       8.645  25.687  57.594  1.00  0.00    -0.128 NA
HETATM    5  C   UNL     1       8.167  25.119  56.500  1.00  0.00     0.169 A 
ENDROOT
BRANCH   2   6
HETATM    6  S   UNL     1       6.855  28.769  56.168  1.00  0.00    -0.080 SA
BRANCH   6   7
HETATM    7  C   UNL     1       5.068  28.440  56.270  1.00  0.00     0.185 C 
BRANCH   7   8
HETATM    8  C   UNL     1       4.340  29.060  55.089  1.00  0.00     0.231 C 
HETATM    9  N   UNL     1       4.879  28.692  53.864  1.00  0.00    -0.326 N 
HETATM   10  H   UNL     1       5.761  28.193  53.902  1.00  0.00     0.169 HD
HETATM   11  O   UNL     1       3.349  29.766  55.258  1.00  0.00    -0.272 OA
BRANCH   9  12
HETATM   12  C   UNL     1       4.381  28.992  52.579  1.00  0.00     0.037 A 
HETATM   13  C   UNL     1       3.085  28.669  52.158  1.00  0.00     0.061 A 
HETATM   14  C   UNL     1       2.743  29.002  50.866  1.00  0.00     0.065 A 
HETATM   15  C   UNL     1       3.628  29.635  49.997  1.00  0.00     0.063 A 
HETATM   16  N   UNL     1       1.548  28.796  50.184  1.00  0.00    -0.306 N 
HETATM   17  N   UNL     1       2.978  29.822  48.783  1.00  0.00    -0.307 N 
HETATM   18  C   UNL     1       4.903  29.970  50.374  1.00  0.00     0.034 A 
HETATM   19  C   UNL     1       1.678  29.302  48.883  1.00  0.00     0.325 A 
HETATM   20  H   UNL     1       3.345  30.249  47.949  1.00  0.00     0.170 HD
HETATM   21  O   UNL     1       0.832  29.291  48.007  1.00  0.00    -0.247 OA
HETATM   22  C   UNL     1       5.278  29.637  51.684  1.00  0.00     0.032 A 
HETATM   23  H   UNL     1       0.713  28.359  50.538  1.00  0.00     0.170 HD
ENDBRANCH   9  12
ENDBRANCH   7   8
ENDBRANCH   6   7
ENDBRANCH   2   6
BRANCH   1  24
HETATM   24  C   UNL     1       6.814  25.891  54.506  1.00  0.00     0.043 A 
HETATM   25  C   UNL     1       5.550  25.291  54.416  1.00  0.00     0.030 A 
HETATM   26  C   UNL     1       4.931  25.140  53.173  1.00  0.00     0.002 A 
HETATM   27  C   UNL     1       5.567  25.583  52.016  1.00  0.00     0.000 A 
HETATM   28  C   UNL     1       6.825  26.178  52.099  1.00  0.00     0.002 A 
HETATM   29  C   UNL     1       7.450  26.333  53.338  1.00  0.00     0.030 A 
ENDBRANCH   1  24
BRANCH   5  30
HETATM   30  C   UNL     1       8.341  23.696  56.198  1.00  0.00     0.012 A 
HETATM   31  C   UNL     1       8.218  22.709  57.187  1.00  0.00     0.017 A 
HETATM   32  C   UNL     1       8.408  21.360  56.871  1.00  0.00     0.025 A 
HETATM   33  C   UNL     1       8.738  20.992  55.568  1.00  0.00     0.034 A 
HETATM   34 CL   UNL     1       8.972  19.333  55.181  1.00  0.00    -0.084 Cl
HETATM   35  C   UNL     1       8.887  21.962  54.579  1.00  0.00     0.025 A 
HETATM   36  C   UNL     1       8.695  23.309  54.896  1.00  0.00     0.017 A 
ENDBRANCH   5  30
TORSDOF 6
ENDMDL
MODEL 9
REMARK VINA RESULT:      -9.4      2.373      3.679
REMARK  6 active torsions:
REMARK  status: ('A' for Active; 'I' for Inactive)
REMARK    1  A    between atoms: C_4  and  N_5 
REMARK    2  A    between atoms: C_6  and  S_7 
REMARK    3  A    between atoms: S_7  and  C_8 
REMARK    4  A    between atoms: C_8  and  C_9 
REMARK       I    between atoms: C_9  and  N_10 
REMARK    5  A    between atoms: N_10  and  C_11 
REMARK    6  A    between atoms: C_24  and  C_25 
ROOT
HETATM    1  N   UNL     1       6.590  28.724  56.179  1.00  0.00    -0.271 N 
HETATM    2  C   UNL     1       5.438  29.496  56.115  1.00  0.00     0.197 A 
HETATM    3  N   UNL     1       4.394  28.740  55.871  1.00  0.00    -0.122 NA
HETATM    4  N   UNL     1       4.822  27.451  55.765  1.00  0.00    -0.128 NA
HETATM    5  C   UNL     1       6.136  27.428  55.911  1.00  0.00     0.169 A 
ENDROOT
BRANCH   2   6
HETATM    6  S   UNL     1       5.317  31.188  56.490  1.00  0.00    -0.080 SA
BRANCH   6   7
HETATM    7  C   UNL     1       4.030  31.139  57.776  1.00  0.00     0.185 C 
BRANCH   7   8
HETATM    8  C   UNL     1       4.427  31.998  58.966  1.00  0.00     0.231 C 
HETATM    9  N   UNL     1       3.383  32.211  59.854  1.00  0.00    -0.326 N 
HETATM   10  H   UNL     1       2.467  31.910  59.541  1.00  0.00     0.169 HD
HETATM   11  O   UNL     1       5.583  32.392  59.102  1.00  0.00    -0.272 OA
BRANCH   9  12
HETATM   12  C   UNL     1       3.436  32.859  61.107  1.00  0.00     0.037 A 
HETATM   13  C   UNL     1       4.261  32.442  62.158  1.00  0.00     0.061 A 
HETATM   14  C   UNL     1       4.191  33.157  63.333  1.00  0.00     0.065 A 
HETATM   15  C   UNL     1       3.348  34.252  63.493  1.00  0.00     0.063 A 
HETATM   16  N   UNL     1       4.876  32.966  64.528  1.00  0.00    -0.306 N 
HETATM   17  N   UNL     1       3.515  34.738  64.785  1.00  0.00    -0.307 N 
HETATM   18  C   UNL     1       2.528  34.693  62.486  1.00  0.00     0.034 A 
HETATM   19  C   UNL     1       4.466  33.945  65.445  1.00  0.00     0.325 A 
HETATM   20  H   UNL     1       3.048  35.521  65.212  1.00  0.00     0.170 HD
HETATM   21  O   UNL     1       4.853  34.081  66.591  1.00  0.00    -0.247 OA
HETATM   22  C   UNL     1       2.577  33.978  61.280  1.00  0.00     0.032 A 
HETATM   23  H   UNL     1       5.558  32.253  64.733  1.00  0.00     0.170 HD
ENDBRANCH   9  12
ENDBRANCH   7   8
ENDBRANCH   6   7
ENDBRANCH   2   6
BRANCH   1  24
HETATM   24  C   UNL     1       7.923  29.126  56.478  1.00  0.00     0.043 A 
HETATM   25  C   UNL     1       8.287  29.415  57.802  1.00  0.00     0.030 A 
HETATM   26  C   UNL     1       9.599  29.787  58.104  1.00  0.00     0.002 A 
HETATM   27  C   UNL     1      10.552  29.875  57.092  1.00  0.00     0.000 A 
HETATM   28  C   UNL     1      10.196  29.590  55.775  1.00  0.00     0.002 A 
HETATM   29  C   UNL     1       8.886  29.217  55.465  1.00  0.00     0.030 A 
ENDBRANCH   1  24
BRANCH   5  30
HETATM   30  C   UNL     1       6.939  26.217  55.718  1.00  0.00     0.012 A 
HETATM   31  C   UNL     1       7.076  25.612  54.460  1.00  0.00     0.017 A 
HETATM   32  C   UNL     1       7.834  24.446  54.311  1.00  0.00     0.025 A 
HETATM   33  C   UNL     1       8.446  23.871  55.422  1.00  0.00     0.034 A 
HETATM   34 CL   UNL     1       9.378  22.438  55.238  1.00  0.00    -0.084 Cl
HETATM   35  C   UNL     1       8.302  24.447  56.683  1.00  0.00     0.025 A 
HETATM   36  C   UNL     1       7.546  25.612  56.830  1.00  0.00     0.017 A 
ENDBRANCH   5  30
TORSDOF 6
ENDMDL
MODEL 10
REMARK VINA RESULT:      -9.3      4.740     11.015
REMARK  6 active torsions:
REMARK  status: ('A' for Active; 'I' for Inactive)
REMARK    1  A    between atoms: C_4  and  N_5 
REMARK    2  A    between atoms: C_6  and  S_7 
REMARK    3  A    between atoms: S_7  and  C_8 
REMARK    4  A    between atoms: C_8  and  C_9 
REMARK       I    between atoms: C_9  and  N_10 
REMARK    5  A    between atoms: N_10  and  C_11 
REMARK    6  A    between atoms: C_24  and  C_25 
ROOT
HETATM    1  N   UNL     1       5.812  32.476  60.145  1.00  0.00    -0.271 N 
HETATM    2  C   UNL     1       5.265  32.037  58.947  1.00  0.00     0.197 A 
HETATM    3  N   UNL     1       4.126  32.646  58.714  1.00  0.00    -0.122 NA
HETATM    4  N   UNL     1       3.887  33.501  59.746  1.00  0.00    -0.128 NA
HETATM    5  C   UNL     1       4.865  33.386  60.628  1.00  0.00     0.169 A 
ENDROOT
BRANCH   2   6
HETATM    6  S   UNL     1       6.030  30.985  57.796  1.00  0.00    -0.080 SA
BRANCH   6   7
HETATM    7  C   UNL     1       4.566  30.168  57.088  1.00  0.00     0.185 C 
BRANCH   7   8
HETATM    8  C   UNL     1       4.926  28.793  56.549  1.00  0.00     0.231 C 
HETATM    9  N   UNL     1       6.248  28.445  56.790  1.00  0.00    -0.326 N 
HETATM   10  H   UNL     1       6.841  29.184  57.148  1.00  0.00     0.169 HD
HETATM   11  O   UNL     1       4.080  28.085  56.010  1.00  0.00    -0.272 OA
BRANCH   9  12
HETATM   12  C   UNL     1       6.873  27.207  56.529  1.00  0.00     0.037 A 
HETATM   13  C   UNL     1       6.907  26.609  55.264  1.00  0.00     0.061 A 
HETATM   14  C   UNL     1       7.533  25.386  55.163  1.00  0.00     0.065 A 
HETATM   15  C   UNL     1       8.117  24.753  56.257  1.00  0.00     0.063 A 
HETATM   16  N   UNL     1       7.707  24.568  54.052  1.00  0.00    -0.306 N 
HETATM   17  N   UNL     1       8.652  23.547  55.819  1.00  0.00    -0.307 N 
HETATM   18  C   UNL     1       8.107  25.308  57.510  1.00  0.00     0.034 A 
HETATM   19  C   UNL     1       8.403  23.416  54.444  1.00  0.00     0.325 A 
HETATM   20  H   UNL     1       9.139  22.856  56.366  1.00  0.00     0.170 HD
HETATM   21  O   UNL     1       8.727  22.481  53.734  1.00  0.00    -0.247 OA
HETATM   22  C   UNL     1       7.471  26.551  57.640  1.00  0.00     0.032 A 
HETATM   23  H   UNL     1       7.394  24.745  53.111  1.00  0.00     0.170 HD
ENDBRANCH   9  12
ENDBRANCH   7   8
ENDBRANCH   6   7
ENDBRANCH   2   6
BRANCH   1  24
HETATM   24  C   UNL     1       7.055  32.124  60.745  1.00  0.00     0.043 A 
HETATM   25  C   UNL     1       8.259  32.460  60.109  1.00  0.00     0.030 A 
HETATM   26  C   UNL     1       9.481  32.139  60.705  1.00  0.00     0.002 A 
HETATM   27  C   UNL     1       9.510  31.481  61.932  1.00  0.00     0.000 A 
HETATM   28  C   UNL     1       8.316  31.143  62.568  1.00  0.00     0.002 A 
HETATM   29  C   UNL     1       7.090  31.462  61.979  1.00  0.00     0.030 A 
ENDBRANCH   1  24
BRANCH   5  30
HETATM   30  C   UNL     1       4.853  34.064  61.928  1.00  0.00     0.012 A 
HETATM   31  C   UNL     1       5.723  35.127  62.215  1.00  0.00     0.017 A 
HETATM   32  C   UNL     1       5.702  35.741  63.471  1.00  0.00     0.025 A 
HETATM   33  C   UNL     1       4.821  35.288  64.450  1.00  0.00     0.034 A 
HETATM   34 CL   UNL     1       4.795  36.045  65.994  1.00  0.00    -0.084 Cl
HETATM   35  C   UNL     1       3.966  34.219  64.188  1.00  0.00     0.025 A 
HETATM   36  C   UNL     1       3.988  33.607  62.933  1.00  0.00     0.017 A 
ENDBRANCH   5  30
TORSDOF 6
ENDMDL
