MODEL 1
REMARK VINA RESULT:     -10.1      0.000      0.000
REMARK  3 active torsions:
REMARK  status: ('A' for Active; 'I' for Inactive)
REMARK    1  A    between atoms: C_4  and  C_5 
REMARK    2  A    between atoms: C_9  and  C_10 
REMARK       I    between atoms: C_10  and  N_11 
REMARK    3  A    between atoms: N_11  and  N_12 
ROOT
HETATM    1  C   UNL     1       8.786  29.275  56.759  1.00  0.00     0.289 C 
HETATM    2  N   UNL     1       7.834  28.269  56.756  1.00  0.00    -0.241 N 
HETATM    3  O   UNL     1       9.603  29.449  55.858  1.00  0.00    -0.264 OA
HETATM    4  H   UNL     1       7.177  28.166  57.528  1.00  0.00     0.192 HD
ENDROOT
BRANCH   1   5
HETATM    5  C   UNL     1       8.768  30.135  57.915  1.00  0.00     0.121 A 
HETATM    6  N   UNL     1       9.591  31.228  57.981  1.00  0.00    -0.272 N 
HETATM    7  N   UNL     1       9.472  31.942  59.111  1.00  0.00    -0.172 NA
HETATM    8  H   UNL     1      10.255  31.527  57.273  1.00  0.00     0.189 HD
HETATM    9  C   UNL     1       8.534  31.284  59.804  1.00  0.00     0.113 A 
HETATM   10  C   UNL     1       8.061  30.150  59.102  1.00  0.00     0.073 A 
BRANCH   9  11
HETATM   11  C   UNL     1       8.072  31.728  61.151  1.00  0.00     0.106 A 
HETATM   12  O   UNL     1       6.761  31.832  61.533  1.00  0.00    -0.313 OA
HETATM   13  C   UNL     1       6.747  32.266  62.826  1.00  0.00     0.050 A 
HETATM   14  C   UNL     1       5.423  32.451  63.451  1.00  0.00     0.076 C 
HETATM   15  C   UNL     1       8.035  32.441  63.283  1.00  0.00     0.035 A 
HETATM   16  C   UNL     1       8.886  32.095  62.206  1.00  0.00     0.042 A 
ENDBRANCH   9  11
ENDBRANCH   1   5
BRANCH   2  17
HETATM   17  N   UNL     1       7.767  27.396  55.704  1.00  0.00    -0.165 NA
HETATM   18  C   UNL     1       7.741  26.134  55.989  1.00  0.00     0.157 A 
HETATM   19  C   UNL     1       7.776  25.464  57.365  1.00  0.00     0.277 A 
HETATM   20  C   UNL     1       7.671  25.049  55.019  1.00  0.00     0.027 A 
HETATM   21  O   UNL     1       7.834  26.059  58.420  1.00  0.00    -0.266 OA
HETATM   22  N   UNL     1       7.727  24.109  57.119  1.00  0.00    -0.321 N 
HETATM   23  C   UNL     1       7.665  23.861  55.748  1.00  0.00     0.048 A 
HETATM   24  H   UNL     1       7.735  23.410  57.846  1.00  0.00     0.169 HD
HETATM   25  C   UNL     1       7.606  22.637  55.118  1.00  0.00     0.030 A 
HETATM   26  C   UNL     1       7.551  22.636  53.719  1.00  0.00     0.002 A 
HETATM   27  C   UNL     1       7.558  23.843  52.987  1.00  0.00     0.001 A 
HETATM   28  C   UNL     1       7.619  25.075  53.640  1.00  0.00     0.016 A 
ENDBRANCH   2  17
TORSDOF 3
ENDMDL
MODEL 2
REMARK VINA RESULT:     -10.0      1.562      1.931
REMARK  3 active torsions:
REMARK  status: ('A' for Active; 'I' for Inactive)
REMARK    1  A    between atoms: C_4  and  C_5 
REMARK    2  A    between atoms: C_9  and  C_10 
REMARK       I    between atoms: C_10  and  N_11 
REMARK    3  A    between atoms: N_11  and  N_12 
ROOT
HETATM    1  C   UNL     1       6.957  28.264  56.090  1.00  0.00     0.289 C 
HETATM    2  N   UNL     1       7.647  27.078  56.284  1.00  0.00    -0.241 N 
HETATM    3  O   UNL     1       6.263  28.501  55.104  1.00  0.00    -0.264 OA
HETATM    4  H   UNL     1       8.210  26.929  57.120  1.00  0.00     0.192 HD
ENDROOT
BRANCH   1   5
HETATM    5  C   UNL     1       7.103  29.238  57.142  1.00  0.00     0.121 A 
HETATM    6  N   UNL     1       6.259  30.315  57.213  1.00  0.00    -0.272 N 
HETATM    7  N   UNL     1       6.505  31.143  58.240  1.00  0.00    -0.172 NA
HETATM    8  H   UNL     1       5.496  30.528  56.577  1.00  0.00     0.189 HD
HETATM    9  C   UNL     1       7.550  30.579  58.859  1.00  0.00     0.113 A 
HETATM   10  C   UNL     1       7.961  29.388  58.214  1.00  0.00     0.073 A 
BRANCH   9  11
HETATM   11  C   UNL     1       8.175  31.168  60.079  1.00  0.00     0.106 A 
HETATM   12  O   UNL     1       7.499  31.500  61.222  1.00  0.00    -0.313 OA
HETATM   13  C   UNL     1       8.410  32.005  62.101  1.00  0.00     0.050 A 
HETATM   14  C   UNL     1       7.897  32.433  63.417  1.00  0.00     0.076 C 
HETATM   15  C   UNL     1       9.667  32.002  61.539  1.00  0.00     0.035 A 
HETATM   16  C   UNL     1       9.516  31.464  60.238  1.00  0.00     0.042 A 
ENDBRANCH   9  11
ENDBRANCH   1   5
BRANCH   2  17
HETATM   17  N   UNL     1       7.577  26.086  55.343  1.00  0.00    -0.165 NA
HETATM   18  C   UNL     1       7.876  24.888  55.730  1.00  0.00     0.157 A 
HETATM   19  C   UNL     1       8.305  24.411  57.120  1.00  0.00     0.277 A 
HETATM   20  C   UNL     1       7.864  23.700  54.887  1.00  0.00     0.027 A 
HETATM   21  O   UNL     1       8.427  25.131  58.088  1.00  0.00    -0.266 OA
HETATM   22  N   UNL     1       8.504  23.053  57.000  1.00  0.00    -0.321 N 
HETATM   23  C   UNL     1       8.247  22.632  55.696  1.00  0.00     0.048 A 
HETATM   24  H   UNL     1       8.795  22.463  57.766  1.00  0.00     0.169 HD
HETATM   25  C   UNL     1       8.337  21.352  55.195  1.00  0.00     0.030 A 
HETATM   26  C   UNL     1       8.028  21.170  53.840  1.00  0.00     0.002 A 
HETATM   27  C   UNL     1       7.641  22.255  53.026  1.00  0.00     0.001 A 
HETATM   28  C   UNL     1       7.555  23.547  53.551  1.00  0.00     0.016 A 
ENDBRANCH   2  17
TORSDOF 3
ENDMDL
MODEL 3
REMARK VINA RESULT:      -8.9      2.378      9.176
REMARK  3 active torsions:
REMARK  status: ('A' for Active; 'I' for Inactive)
REMARK    1  A    between atoms: C_4  and  C_5 
REMARK    2  A    between atoms: C_9  and  C_10 
REMARK       I    between atoms: C_10  and  N_11 
REMARK    3  A    between atoms: N_11  and  N_12 
ROOT
HETATM    1  C   UNL     1       5.775  27.935  55.979  1.00  0.00     0.289 C 
HETATM    2  N   UNL     1       6.575  29.050  56.166  1.00  0.00    -0.241 N 
HETATM    3  O   UNL     1       4.618  27.845  56.383  1.00  0.00    -0.264 OA
HETATM    4  H   UNL     1       7.530  29.077  55.811  1.00  0.00     0.192 HD
ENDROOT
BRANCH   1   5
HETATM    5  C   UNL     1       6.393  26.850  55.259  1.00  0.00     0.121 A 
HETATM    6  N   UNL     1       7.157  27.098  54.150  1.00  0.00    -0.272 N 
HETATM    7  N   UNL     1       7.672  25.999  53.577  1.00  0.00    -0.172 NA
HETATM    8  H   UNL     1       7.356  28.008  53.744  1.00  0.00     0.189 HD
HETATM    9  C   UNL     1       7.223  25.000  54.347  1.00  0.00     0.113 A 
HETATM   10  C   UNL     1       6.421  25.477  55.411  1.00  0.00     0.073 A 
BRANCH   9  11
HETATM   11  C   UNL     1       7.553  23.570  54.080  1.00  0.00     0.106 A 
HETATM   12  O   UNL     1       7.661  22.600  55.040  1.00  0.00    -0.313 OA
HETATM   13  C   UNL     1       7.972  21.434  54.406  1.00  0.00     0.050 A 
HETATM   14  C   UNL     1       8.139  20.239  55.257  1.00  0.00     0.076 C 
HETATM   15  C   UNL     1       8.064  21.640  53.048  1.00  0.00     0.035 A 
HETATM   16  C   UNL     1       7.795  23.014  52.838  1.00  0.00     0.042 A 
ENDBRANCH   9  11
ENDBRANCH   1   5
BRANCH   2  17
HETATM   17  N   UNL     1       6.085  30.137  56.839  1.00  0.00    -0.165 NA
HETATM   18  C   UNL     1       6.639  30.426  57.972  1.00  0.00     0.157 A 
HETATM   19  C   UNL     1       7.789  29.710  58.683  1.00  0.00     0.277 A 
HETATM   20  C   UNL     1       6.264  31.537  58.838  1.00  0.00     0.027 A 
HETATM   21  O   UNL     1       8.360  28.729  58.255  1.00  0.00    -0.266 OA
HETATM   22  N   UNL     1       7.997  30.411  59.850  1.00  0.00    -0.321 N 
HETATM   23  C   UNL     1       7.108  31.481  59.946  1.00  0.00     0.048 A 
HETATM   24  H   UNL     1       8.703  30.167  60.529  1.00  0.00     0.169 HD
HETATM   25  C   UNL     1       7.011  32.404  60.964  1.00  0.00     0.030 A 
HETATM   26  C   UNL     1       6.031  33.397  60.840  1.00  0.00     0.002 A 
HETATM   27  C   UNL     1       5.180  33.448  59.715  1.00  0.00     0.001 A 
HETATM   28  C   UNL     1       5.292  32.504  58.692  1.00  0.00     0.016 A 
ENDBRANCH   2  17
TORSDOF 3
ENDMDL
MODEL 4
REMARK VINA RESULT:      -8.7      3.556      4.589
REMARK  3 active torsions:
REMARK  status: ('A' for Active; 'I' for Inactive)
REMARK    1  A    between atoms: C_4  and  C_5 
REMARK    2  A    between atoms: C_9  and  C_10 
REMARK       I    between atoms: C_10  and  N_11 
REMARK    3  A    between atoms: N_11  and  N_12 
ROOT
HETATM    1  C   UNL     1       7.256  26.694  57.321  1.00  0.00     0.289 C 
HETATM    2  N   UNL     1       6.451  25.788  56.651  1.00  0.00    -0.241 N 
HETATM    3  O   UNL     1       8.327  26.402  57.848  1.00  0.00    -0.264 OA
HETATM    4  H   UNL     1       5.570  26.080  56.230  1.00  0.00     0.192 HD
ENDROOT
BRANCH   1   5
HETATM    5  C   UNL     1       6.754  28.044  57.369  1.00  0.00     0.121 A 
HETATM    6  N   UNL     1       7.302  28.960  58.228  1.00  0.00    -0.272 N 
HETATM    7  N   UNL     1       6.740  30.177  58.170  1.00  0.00    -0.172 NA
HETATM    8  H   UNL     1       8.067  28.797  58.876  1.00  0.00     0.189 HD
HETATM    9  C   UNL     1       5.790  30.044  57.237  1.00  0.00     0.113 A 
HETATM   10  C   UNL     1       5.757  28.733  56.705  1.00  0.00     0.073 A 
BRANCH   9  11
HETATM   11  C   UNL     1       4.896  31.168  56.835  1.00  0.00     0.106 A 
HETATM   12  O   UNL     1       3.749  31.031  56.099  1.00  0.00    -0.313 OA
HETATM   13  C   UNL     1       3.216  32.276  55.940  1.00  0.00     0.050 A 
HETATM   14  C   UNL     1       1.961  32.368  55.169  1.00  0.00     0.076 C 
HETATM   15  C   UNL     1       4.006  33.215  56.566  1.00  0.00     0.035 A 
HETATM   16  C   UNL     1       5.086  32.502  57.140  1.00  0.00     0.042 A 
ENDBRANCH   9  11
ENDBRANCH   1   5
BRANCH   2  17
HETATM   17  N   UNL     1       6.835  24.478  56.549  1.00  0.00    -0.165 NA
HETATM   18  C   UNL     1       7.074  24.027  55.360  1.00  0.00     0.157 A 
HETATM   19  C   UNL     1       6.985  24.765  54.022  1.00  0.00     0.277 A 
HETATM   20  C   UNL     1       7.492  22.669  55.039  1.00  0.00     0.027 A 
HETATM   21  O   UNL     1       6.663  25.928  53.896  1.00  0.00    -0.266 OA
HETATM   22  N   UNL     1       7.337  23.840  53.064  1.00  0.00    -0.321 N 
HETATM   23  C   UNL     1       7.635  22.612  53.653  1.00  0.00     0.048 A 
HETATM   24  H   UNL     1       7.369  24.045  52.076  1.00  0.00     0.169 HD
HETATM   25  C   UNL     1       8.025  21.451  53.023  1.00  0.00     0.030 A 
HETATM   26  C   UNL     1       8.271  20.333  53.830  1.00  0.00     0.002 A 
HETATM   27  C   UNL     1       8.124  20.397  55.232  1.00  0.00     0.001 A 
HETATM   28  C   UNL     1       7.728  21.582  55.855  1.00  0.00     0.016 A 
ENDBRANCH   2  17
TORSDOF 3
ENDMDL
MODEL 5
REMARK VINA RESULT:      -8.6      7.563     10.737
REMARK  3 active torsions:
REMARK  status: ('A' for Active; 'I' for Inactive)
REMARK    1  A    between atoms: C_4  and  C_5 
REMARK    2  A    between atoms: C_9  and  C_10 
REMARK       I    between atoms: C_10  and  N_11 
REMARK    3  A    between atoms: N_11  and  N_12 
ROOT
HETATM    1  C   UNL     1       4.670  27.069  51.554  1.00  0.00     0.289 C 
HETATM    2  N   UNL     1       4.322  27.019  50.214  1.00  0.00    -0.241 N 
HETATM    3  O   UNL     1       4.251  27.914  52.341  1.00  0.00    -0.264 OA
HETATM    4  H   UNL     1       4.697  26.297  49.601  1.00  0.00     0.192 HD
ENDROOT
BRANCH   1   5
HETATM    5  C   UNL     1       5.583  26.042  51.990  1.00  0.00     0.121 A 
HETATM    6  N   UNL     1       6.762  25.832  51.325  1.00  0.00    -0.272 N 
HETATM    7  N   UNL     1       7.516  24.847  51.835  1.00  0.00    -0.172 NA
HETATM    8  H   UNL     1       7.095  26.341  50.511  1.00  0.00     0.189 HD
HETATM    9  C   UNL     1       6.796  24.401  52.873  1.00  0.00     0.113 A 
HETATM   10  C   UNL     1       5.581  25.114  53.013  1.00  0.00     0.073 A 
BRANCH   9  11
HETATM   11  C   UNL     1       7.256  23.286  53.750  1.00  0.00     0.106 A 
HETATM   12  O   UNL     1       7.804  22.114  53.302  1.00  0.00    -0.313 OA
HETATM   13  C   UNL     1       8.093  21.356  54.398  1.00  0.00     0.050 A 
HETATM   14  C   UNL     1       8.700  20.033  54.150  1.00  0.00     0.076 C 
HETATM   15  C   UNL     1       7.739  22.026  55.547  1.00  0.00     0.035 A 
HETATM   16  C   UNL     1       7.200  23.267  55.130  1.00  0.00     0.042 A 
ENDBRANCH   9  11
ENDBRANCH   1   5
BRANCH   2  17
HETATM   17  N   UNL     1       3.461  27.950  49.697  1.00  0.00    -0.165 NA
HETATM   18  C   UNL     1       2.726  27.579  48.699  1.00  0.00     0.157 A 
HETATM   19  C   UNL     1       2.679  26.219  47.999  1.00  0.00     0.277 A 
HETATM   20  C   UNL     1       1.752  28.416  48.010  1.00  0.00     0.027 A 
HETATM   21  O   UNL     1       3.361  25.263  48.305  1.00  0.00    -0.266 OA
HETATM   22  N   UNL     1       1.735  26.346  47.004  1.00  0.00    -0.321 N 
HETATM   23  C   UNL     1       1.189  27.629  47.006  1.00  0.00     0.048 A 
HETATM   24  H   UNL     1       1.487  25.599  46.372  1.00  0.00     0.169 HD
HETATM   25  C   UNL     1       0.221  28.131  46.164  1.00  0.00     0.030 A 
HETATM   26  C   UNL     1      -0.172  29.462  46.358  1.00  0.00     0.002 A 
HETATM   27  C   UNL     1       0.402  30.252  47.375  1.00  0.00     0.001 A 
HETATM   28  C   UNL     1       1.382  29.728  48.221  1.00  0.00     0.016 A 
ENDBRANCH   2  17
TORSDOF 3
ENDMDL
MODEL 6
REMARK VINA RESULT:      -8.6      3.222      3.855
REMARK  3 active torsions:
REMARK  status: ('A' for Active; 'I' for Inactive)
REMARK    1  A    between atoms: C_4  and  C_5 
REMARK    2  A    between atoms: C_9  and  C_10 
REMARK       I    between atoms: C_10  and  N_11 
REMARK    3  A    between atoms: N_11  and  N_12 
ROOT
HETATM    1  C   UNL     1       7.217  28.350  57.576  1.00  0.00     0.289 C 
HETATM    2  N   UNL     1       6.325  27.636  56.791  1.00  0.00    -0.241 N 
HETATM    3  O   UNL     1       8.253  27.878  58.039  1.00  0.00    -0.264 OA
HETATM    4  H   UNL     1       5.478  28.073  56.430  1.00  0.00     0.192 HD
ENDROOT
BRANCH   1   5
HETATM    5  C   UNL     1       6.851  29.720  57.829  1.00  0.00     0.121 A 
HETATM    6  N   UNL     1       7.680  30.538  58.552  1.00  0.00    -0.272 N 
HETATM    7  N   UNL     1       7.219  31.788  58.713  1.00  0.00    -0.172 NA
HETATM    8  H   UNL     1       8.576  30.284  58.957  1.00  0.00     0.189 HD
HETATM    9  C   UNL     1       6.045  31.779  58.070  1.00  0.00     0.113 A 
HETATM   10  C   UNL     1       5.768  30.513  57.500  1.00  0.00     0.073 A 
BRANCH   9  11
HETATM   11  C   UNL     1       5.164  32.980  57.987  1.00  0.00     0.106 A 
HETATM   12  O   UNL     1       5.353  34.031  57.130  1.00  0.00    -0.313 OA
HETATM   13  C   UNL     1       4.349  34.924  57.354  1.00  0.00     0.050 A 
HETATM   14  C   UNL     1       4.352  36.150  56.531  1.00  0.00     0.076 C 
HETATM   15  C   UNL     1       3.513  34.462  58.346  1.00  0.00     0.035 A 
HETATM   16  C   UNL     1       4.038  33.212  58.753  1.00  0.00     0.042 A 
ENDBRANCH   9  11
ENDBRANCH   1   5
BRANCH   2  17
HETATM   17  N   UNL     1       6.578  26.325  56.492  1.00  0.00    -0.165 NA
HETATM   18  C   UNL     1       6.948  26.059  55.280  1.00  0.00     0.157 A 
HETATM   19  C   UNL     1       7.148  27.025  54.109  1.00  0.00     0.277 A 
HETATM   20  C   UNL     1       7.262  24.734  54.763  1.00  0.00     0.027 A 
HETATM   21  O   UNL     1       6.977  28.224  54.168  1.00  0.00    -0.266 OA
HETATM   22  N   UNL     1       7.543  26.241  53.047  1.00  0.00    -0.321 N 
HETATM   23  C   UNL     1       7.612  24.901  53.424  1.00  0.00     0.048 A 
HETATM   24  H   UNL     1       7.750  26.609  52.130  1.00  0.00     0.169 HD
HETATM   25  C   UNL     1       7.967  23.825  52.640  1.00  0.00     0.030 A 
HETATM   26  C   UNL     1       7.962  22.561  53.243  1.00  0.00     0.002 A 
HETATM   27  C   UNL     1       7.607  22.399  54.599  1.00  0.00     0.001 A 
HETATM   28  C   UNL     1       7.249  23.500  55.380  1.00  0.00     0.016 A 
ENDBRANCH   2  17
TORSDOF 3
ENDMDL
MODEL 7
REMARK VINA RESULT:      -8.6      2.269      9.159
REMARK  3 active torsions:
REMARK  status: ('A' for Active; 'I' for Inactive)
REMARK    1  A    between atoms: C_4  and  C_5 
REMARK    2  A    between atoms: C_9  and  C_10 
REMARK       I    between atoms: C_10  and  N_11 
REMARK    3  A    between atoms: N_11  and  N_12 
ROOT
HETATM    1  C   UNL     1       6.190  30.133  57.345  1.00  0.00     0.289 C 
HETATM    2  N   UNL     1       7.022  30.457  58.404  1.00  0.00    -0.241 N 
HETATM    3  O   UNL     1       5.078  30.626  57.170  1.00  0.00    -0.264 OA
HETATM    4  H   UNL     1       7.937  30.020  58.505  1.00  0.00     0.192 HD
ENDROOT
BRANCH   1   5
HETATM    5  C   UNL     1       6.715  29.152  56.429  1.00  0.00     0.121 A 
HETATM    6  N   UNL     1       7.734  29.477  55.573  1.00  0.00    -0.272 N 
HETATM    7  N   UNL     1       8.128  28.472  54.775  1.00  0.00    -0.172 NA
HETATM    8  H   UNL     1       8.196  30.379  55.498  1.00  0.00     0.189 HD
HETATM    9  C   UNL     1       7.330  27.456  55.129  1.00  0.00     0.113 A 
HETATM   10  C   UNL     1       6.431  27.827  56.157  1.00  0.00     0.073 A 
BRANCH   9  11
HETATM   11  C   UNL     1       7.413  26.110  54.491  1.00  0.00     0.106 A 
HETATM   12  O   UNL     1       7.322  24.920  55.161  1.00  0.00    -0.313 OA
HETATM   13  C   UNL     1       7.443  23.923  54.239  1.00  0.00     0.050 A 
HETATM   14  C   UNL     1       7.374  22.538  54.743  1.00  0.00     0.076 C 
HETATM   15  C   UNL     1       7.610  24.457  52.980  1.00  0.00     0.035 A 
HETATM   16  C   UNL     1       7.591  25.863  53.143  1.00  0.00     0.042 A 
ENDBRANCH   9  11
ENDBRANCH   1   5
BRANCH   2  17
HETATM   17  N   UNL     1       6.618  31.378  59.333  1.00  0.00    -0.165 NA
HETATM   18  C   UNL     1       7.339  31.490  60.401  1.00  0.00     0.157 A 
HETATM   19  C   UNL     1       8.609  30.724  60.782  1.00  0.00     0.277 A 
HETATM   20  C   UNL     1       7.080  32.406  61.504  1.00  0.00     0.027 A 
HETATM   21  O   UNL     1       9.129  29.868  60.097  1.00  0.00    -0.266 OA
HETATM   22  N   UNL     1       8.983  31.216  62.013  1.00  0.00    -0.321 N 
HETATM   23  C   UNL     1       8.093  32.201  62.440  1.00  0.00     0.048 A 
HETATM   24  H   UNL     1       9.795  30.894  62.518  1.00  0.00     0.169 HD
HETATM   25  C   UNL     1       8.137  32.920  63.614  1.00  0.00     0.030 A 
HETATM   26  C   UNL     1       7.124  33.864  63.827  1.00  0.00     0.002 A 
HETATM   27  C   UNL     1       6.101  34.067  62.876  1.00  0.00     0.001 A 
HETATM   28  C   UNL     1       6.072  33.328  61.691  1.00  0.00     0.016 A 
ENDBRANCH   2  17
TORSDOF 3
ENDMDL
MODEL 8
REMARK VINA RESULT:      -8.5      6.813     10.176
REMARK  3 active torsions:
REMARK  status: ('A' for Active; 'I' for Inactive)
REMARK    1  A    between atoms: C_4  and  C_5 
REMARK    2  A    between atoms: C_9  and  C_10 
REMARK       I    between atoms: C_10  and  N_11 
REMARK    3  A    between atoms: N_11  and  N_12 
ROOT
HETATM    1  C   UNL     1       4.291  27.476  53.011  1.00  0.00     0.289 C 
HETATM    2  N   UNL     1       4.274  27.541  51.628  1.00  0.00    -0.241 N 
HETATM    3  O   UNL     1       3.725  28.285  53.743  1.00  0.00    -0.264 OA
HETATM    4  H   UNL     1       4.759  26.845  51.064  1.00  0.00     0.192 HD
ENDROOT
BRANCH   1   5
HETATM    5  C   UNL     1       5.034  26.373  53.565  1.00  0.00     0.121 A 
HETATM    6  N   UNL     1       5.157  26.229  54.922  1.00  0.00    -0.272 N 
HETATM    7  N   UNL     1       5.873  25.160  55.302  1.00  0.00    -0.172 NA
HETATM    8  H   UNL     1       4.765  26.841  55.632  1.00  0.00     0.189 HD
HETATM    9  C   UNL     1       6.228  24.588  54.145  1.00  0.00     0.113 A 
HETATM   10  C   UNL     1       5.729  25.305  53.030  1.00  0.00     0.073 A 
BRANCH   9  11
HETATM   11  C   UNL     1       7.050  23.345  54.081  1.00  0.00     0.106 A 
HETATM   12  O   UNL     1       7.230  22.473  55.121  1.00  0.00    -0.313 OA
HETATM   13  C   UNL     1       8.039  21.470  54.674  1.00  0.00     0.050 A 
HETATM   14  C   UNL     1       8.371  20.404  55.639  1.00  0.00     0.076 C 
HETATM   15  C   UNL     1       8.382  21.685  53.358  1.00  0.00     0.035 A 
HETATM   16  C   UNL     1       7.746  22.892  52.977  1.00  0.00     0.042 A 
ENDBRANCH   9  11
ENDBRANCH   1   5
BRANCH   2  17
HETATM   17  N   UNL     1       3.597  28.552  51.000  1.00  0.00    -0.165 NA
HETATM   18  C   UNL     1       3.286  28.368  49.757  1.00  0.00     0.157 A 
HETATM   19  C   UNL     1       3.573  27.154  48.870  1.00  0.00     0.277 A 
HETATM   20  C   UNL     1       2.571  29.318  48.915  1.00  0.00     0.027 A 
HETATM   21  O   UNL     1       4.159  26.157  49.235  1.00  0.00    -0.266 OA
HETATM   22  N   UNL     1       3.036  27.460  47.639  1.00  0.00    -0.321 N 
HETATM   23  C   UNL     1       2.448  28.724  47.660  1.00  0.00     0.048 A 
HETATM   24  H   UNL     1       3.074  26.839  46.844  1.00  0.00     0.169 HD
HETATM   25  C   UNL     1       1.813  29.372  46.623  1.00  0.00     0.030 A 
HETATM   26  C   UNL     1       1.297  30.648  46.883  1.00  0.00     0.002 A 
HETATM   27  C   UNL     1       1.425  31.243  48.156  1.00  0.00     0.001 A 
HETATM   28  C   UNL     1       2.072  30.573  49.196  1.00  0.00     0.016 A 
ENDBRANCH   2  17
TORSDOF 3
ENDMDL
MODEL 9
REMARK VINA RESULT:      -8.3      2.151      2.327
REMARK  3 active torsions:
REMARK  status: ('A' for Active; 'I' for Inactive)
REMARK    1  A    between atoms: C_4  and  C_5 
REMARK    2  A    between atoms: C_9  and  C_10 
REMARK       I    between atoms: C_10  and  N_11 
REMARK    3  A    between atoms: N_11  and  N_12 
ROOT
HETATM    1  C   UNL     1       5.827  29.843  56.287  1.00  0.00     0.289 C 
HETATM    2  N   UNL     1       6.125  28.559  56.711  1.00  0.00    -0.241 N 
HETATM    3  O   UNL     1       5.570  30.140  55.123  1.00  0.00    -0.264 OA
HETATM    4  H   UNL     1       6.331  28.363  57.689  1.00  0.00     0.192 HD
ENDROOT
BRANCH   1   5
HETATM    5  C   UNL     1       5.834  30.848  57.321  1.00  0.00     0.121 A 
HETATM    6  N   UNL     1       5.394  32.118  57.058  1.00  0.00    -0.272 N 
HETATM    7  N   UNL     1       5.455  32.952  58.107  1.00  0.00    -0.172 NA
HETATM    8  H   UNL     1       5.041  32.464  56.170  1.00  0.00     0.189 HD
HETATM    9  C   UNL     1       5.954  32.191  59.089  1.00  0.00     0.113 A 
HETATM   10  C   UNL     1       6.207  30.869  58.651  1.00  0.00     0.073 A 
BRANCH   9  11
HETATM   11  C   UNL     1       6.198  32.712  60.465  1.00  0.00     0.106 A 
HETATM   12  O   UNL     1       7.146  32.230  61.327  1.00  0.00    -0.313 OA
HETATM   13  C   UNL     1       7.059  32.960  62.476  1.00  0.00     0.050 A 
HETATM   14  C   UNL     1       8.000  32.610  63.558  1.00  0.00     0.076 C 
HETATM   15  C   UNL     1       6.067  33.908  62.364  1.00  0.00     0.035 A 
HETATM   16  C   UNL     1       5.513  33.748  61.071  1.00  0.00     0.042 A 
ENDBRANCH   9  11
ENDBRANCH   1   5
BRANCH   2  17
HETATM   17  N   UNL     1       6.147  27.530  55.807  1.00  0.00    -0.165 NA
HETATM   18  C   UNL     1       6.933  26.536  56.068  1.00  0.00     0.157 A 
HETATM   19  C   UNL     1       7.864  26.343  57.268  1.00  0.00     0.277 A 
HETATM   20  C   UNL     1       7.102  25.351  55.237  1.00  0.00     0.027 A 
HETATM   21  O   UNL     1       7.990  27.136  58.176  1.00  0.00    -0.266 OA
HETATM   22  N   UNL     1       8.478  25.126  57.068  1.00  0.00    -0.321 N 
HETATM   23  C   UNL     1       8.035  24.541  55.882  1.00  0.00     0.048 A 
HETATM   24  H   UNL     1       9.152  24.730  57.706  1.00  0.00     0.169 HD
HETATM   25  C   UNL     1       8.419  23.331  55.348  1.00  0.00     0.030 A 
HETATM   26  C   UNL     1       7.834  22.949  54.134  1.00  0.00     0.002 A 
HETATM   27  C   UNL     1       6.890  23.773  53.487  1.00  0.00     0.001 A 
HETATM   28  C   UNL     1       6.511  24.998  54.041  1.00  0.00     0.016 A 
ENDBRANCH   2  17
TORSDOF 3
ENDMDL
MODEL 10
REMARK VINA RESULT:      -8.3      7.700     10.598
REMARK  3 active torsions:
REMARK  status: ('A' for Active; 'I' for Inactive)
REMARK    1  A    between atoms: C_4  and  C_5 
REMARK    2  A    between atoms: C_9  and  C_10 
REMARK       I    between atoms: C_10  and  N_11 
REMARK    3  A    between atoms: N_11  and  N_12 
ROOT
HETATM    1  C   UNL     1       5.648  27.669  51.235  1.00  0.00     0.289 C 
HETATM    2  N   UNL     1       5.555  27.575  49.856  1.00  0.00    -0.241 N 
HETATM    3  O   UNL     1       5.609  28.730  51.854  1.00  0.00    -0.264 OA
HETATM    4  H   UNL     1       5.592  26.670  49.388  1.00  0.00     0.192 HD
ENDROOT
BRANCH   1   5
HETATM    5  C   UNL     1       5.798  26.415  51.928  1.00  0.00     0.121 A 
HETATM    6  N   UNL     1       4.699  25.737  52.384  1.00  0.00    -0.272 N 
HETATM    7  N   UNL     1       4.981  24.584  53.011  1.00  0.00    -0.172 NA
HETATM    8  H   UNL     1       3.729  26.025  52.289  1.00  0.00     0.189 HD
HETATM    9  C   UNL     1       6.317  24.514  52.959  1.00  0.00     0.113 A 
HETATM   10  C   UNL     1       6.876  25.631  52.293  1.00  0.00     0.073 A 
BRANCH   9  11
HETATM   11  C   UNL     1       7.085  23.377  53.544  1.00  0.00     0.106 A 
HETATM   12  O   UNL     1       7.154  23.085  54.880  1.00  0.00    -0.313 OA
HETATM   13  C   UNL     1       7.946  21.983  55.015  1.00  0.00     0.050 A 
HETATM   14  C   UNL     1       8.162  21.484  56.387  1.00  0.00     0.076 C 
HETATM   15  C   UNL     1       8.387  21.560  53.781  1.00  0.00     0.035 A 
HETATM   16  C   UNL     1       7.834  22.457  52.835  1.00  0.00     0.042 A 
ENDBRANCH   9  11
ENDBRANCH   1   5
BRANCH   2  17
HETATM   17  N   UNL     1       5.411  28.708  49.102  1.00  0.00    -0.165 NA
HETATM   18  C   UNL     1       4.341  28.801  48.380  1.00  0.00     0.157 A 
HETATM   19  C   UNL     1       3.189  27.803  48.245  1.00  0.00     0.277 A 
HETATM   20  C   UNL     1       4.002  29.921  47.511  1.00  0.00     0.027 A 
HETATM   21  O   UNL     1       3.126  26.741  48.828  1.00  0.00    -0.266 OA
HETATM   22  N   UNL     1       2.305  28.375  47.357  1.00  0.00    -0.321 N 
HETATM   23  C   UNL     1       2.775  29.614  46.925  1.00  0.00     0.048 A 
HETATM   24  H   UNL     1       1.440  27.939  47.072  1.00  0.00     0.169 HD
HETATM   25  C   UNL     1       2.171  30.480  46.040  1.00  0.00     0.030 A 
HETATM   26  C   UNL     1       2.839  31.677  45.754  1.00  0.00     0.002 A 
HETATM   27  C   UNL     1       4.081  31.982  46.351  1.00  0.00     0.001 A 
HETATM   28  C   UNL     1       4.680  31.093  47.247  1.00  0.00     0.016 A 
ENDBRANCH   2  17
TORSDOF 3
ENDMDL
