MODEL 1
REMARK VINA RESULT:      -8.9      0.000      0.000
REMARK  3 active torsions:
REMARK  status: ('A' for Active; 'I' for Inactive)
REMARK    1  A    between atoms: C_5  and  N_6 
REMARK       I    between atoms: N_6  and  C_7 
REMARK    2  A    between atoms: C_7  and  C_8 
REMARK    3  A    between atoms: C_8  and  C_9 
ROOT
HETATM    1  C   UNL     1       7.386  24.865  55.328  1.00  0.00     0.286 C 
HETATM    2  N   UNL     1       8.674  24.101  55.669  1.00  0.00    -0.056 N 
HETATM    3  H   UNL     1       9.462  24.699  55.389  1.00  0.00     0.278 HD
HETATM    4  H   UNL     1       8.780  24.053  56.707  1.00  0.00     0.278 HD
HETATM    5  C   UNL     1       8.875  22.748  55.058  1.00  0.00     0.209 C 
HETATM    6  C   UNL     1       8.451  22.778  53.573  1.00  0.00     0.115 C 
HETATM    7  N   UNL     1       7.106  23.312  53.403  1.00  0.00    -0.353 N 
HETATM    8  C   UNL     1       6.594  24.357  54.119  1.00  0.00     0.249 C 
HETATM    9  O   UNL     1       5.528  24.865  53.786  1.00  0.00    -0.271 OA
HETATM   10  C   UNL     1       8.138  21.688  55.876  1.00  0.00     0.035 C 
HETATM   11  C   UNL     1       8.270  20.312  55.225  1.00  0.00     0.002 C 
HETATM   12  C   UNL     1       7.809  20.329  53.769  1.00  0.00     0.002 C 
HETATM   13  C   UNL     1       8.559  21.383  52.953  1.00  0.00     0.027 C 
HETATM   14  H   UNL     1       6.582  23.097  52.557  1.00  0.00     0.163 HD
ENDROOT
BRANCH   1  15
HETATM   15  C   UNL     1       6.469  24.979  56.551  1.00  0.00     0.146 C 
BRANCH  15  16
HETATM   16  C   UNL     1       7.086  26.032  57.427  1.00  0.00     0.224 C 
HETATM   17  N   UNL     1       6.905  27.317  56.980  1.00  0.00    -0.327 N 
HETATM   18  H   UNL     1       6.194  27.490  56.275  1.00  0.00     0.169 HD
HETATM   19  O   UNL     1       7.848  25.639  58.311  1.00  0.00    -0.273 OA
BRANCH  17  20
HETATM   20  C   UNL     1       7.652  28.454  57.363  1.00  0.00     0.034 A 
HETATM   21  C   UNL     1       7.138  29.502  58.127  1.00  0.00     0.030 A 
HETATM   22  C   UNL     1       7.960  30.563  58.522  1.00  0.00     0.009 A 
HETATM   23  C   UNL     1       9.307  30.595  58.155  1.00  0.00    -0.062 A 
HETATM   24  C   UNL     1      10.200  31.716  58.597  1.00  0.00     0.048 C 
HETATM   25  C   UNL     1       9.821  29.549  57.383  1.00  0.00     0.009 A 
HETATM   26  C   UNL     1       8.999  28.492  56.983  1.00  0.00     0.030 A 
ENDBRANCH  17  20
ENDBRANCH  15  16
ENDBRANCH   1  15
TORSDOF 3
ENDMDL
MODEL 2
REMARK VINA RESULT:      -8.7      2.052      7.601
REMARK  3 active torsions:
REMARK  status: ('A' for Active; 'I' for Inactive)
REMARK    1  A    between atoms: C_5  and  N_6 
REMARK       I    between atoms: N_6  and  C_7 
REMARK    2  A    between atoms: C_7  and  C_8 
REMARK    3  A    between atoms: C_8  and  C_9 
ROOT
HETATM    1  C   UNL     1       6.139  28.681  56.867  1.00  0.00     0.286 C 
HETATM    2  N   UNL     1       7.226  27.988  57.702  1.00  0.00    -0.056 N 
HETATM    3  H   UNL     1       6.767  27.615  58.543  1.00  0.00     0.278 HD
HETATM    4  H   UNL     1       7.539  27.123  57.209  1.00  0.00     0.278 HD
HETATM    5  C   UNL     1       8.408  28.801  58.137  1.00  0.00     0.209 C 
HETATM    6  C   UNL     1       7.936  30.192  58.617  1.00  0.00     0.115 C 
HETATM    7  N   UNL     1       7.094  30.851  57.626  1.00  0.00    -0.353 N 
HETATM    8  C   UNL     1       6.162  30.213  56.859  1.00  0.00     0.249 C 
HETATM    9  O   UNL     1       5.368  30.866  56.189  1.00  0.00    -0.271 OA
HETATM   10  C   UNL     1       9.441  28.867  57.014  1.00  0.00     0.035 C 
HETATM   11  C   UNL     1      10.619  29.754  57.413  1.00  0.00     0.002 C 
HETATM   12  C   UNL     1      10.159  31.145  57.844  1.00  0.00     0.002 C 
HETATM   13  C   UNL     1       9.135  31.073  58.977  1.00  0.00     0.027 C 
HETATM   14  H   UNL     1       6.984  31.863  57.653  1.00  0.00     0.163 HD
ENDROOT
BRANCH   1  15
HETATM   15  C   UNL     1       6.118  28.145  55.431  1.00  0.00     0.146 C 
BRANCH  15  16
HETATM   16  C   UNL     1       6.294  26.657  55.548  1.00  0.00     0.224 C 
HETATM   17  N   UNL     1       7.382  26.162  54.873  1.00  0.00    -0.327 N 
HETATM   18  H   UNL     1       8.102  26.812  54.569  1.00  0.00     0.169 HD
HETATM   19  O   UNL     1       5.359  26.027  56.043  1.00  0.00    -0.273 OA
BRANCH  17  20
HETATM   20  C   UNL     1       7.597  24.818  54.494  1.00  0.00     0.034 A 
HETATM   21  C   UNL     1       7.715  23.763  55.400  1.00  0.00     0.030 A 
HETATM   22  C   UNL     1       7.861  22.449  54.945  1.00  0.00     0.009 A 
HETATM   23  C   UNL     1       7.895  22.168  53.577  1.00  0.00    -0.062 A 
HETATM   24  C   UNL     1       8.024  20.759  53.082  1.00  0.00     0.048 C 
HETATM   25  C   UNL     1       7.783  23.225  52.669  1.00  0.00     0.009 A 
HETATM   26  C   UNL     1       7.644  24.539  53.123  1.00  0.00     0.030 A 
ENDBRANCH  17  20
ENDBRANCH  15  16
ENDBRANCH   1  15
TORSDOF 3
ENDMDL
MODEL 3
REMARK VINA RESULT:      -8.6      2.702      4.419
REMARK  3 active torsions:
REMARK  status: ('A' for Active; 'I' for Inactive)
REMARK    1  A    between atoms: C_5  and  N_6 
REMARK       I    between atoms: N_6  and  C_7 
REMARK    2  A    between atoms: C_7  and  C_8 
REMARK    3  A    between atoms: C_8  and  C_9 
ROOT
HETATM    1  C   UNL     1       6.967  27.606  56.967  1.00  0.00     0.286 C 
HETATM    2  N   UNL     1       6.260  27.844  55.623  1.00  0.00    -0.056 N 
HETATM    3  H   UNL     1       5.268  28.015  55.832  1.00  0.00     0.278 HD
HETATM    4  H   UNL     1       6.572  28.759  55.229  1.00  0.00     0.278 HD
HETATM    5  C   UNL     1       6.341  26.770  54.582  1.00  0.00     0.209 C 
HETATM    6  C   UNL     1       6.141  25.387  55.243  1.00  0.00     0.115 C 
HETATM    7  N   UNL     1       7.041  25.190  56.372  1.00  0.00    -0.353 N 
HETATM    8  C   UNL     1       7.376  26.162  57.271  1.00  0.00     0.249 C 
HETATM    9  O   UNL     1       7.986  25.866  58.294  1.00  0.00    -0.271 OA
HETATM   10  C   UNL     1       7.654  26.886  53.809  1.00  0.00     0.035 C 
HETATM   11  C   UNL     1       7.787  25.752  52.793  1.00  0.00     0.002 C 
HETATM   12  C   UNL     1       7.634  24.383  53.452  1.00  0.00     0.002 C 
HETATM   13  C   UNL     1       6.313  24.268  54.213  1.00  0.00     0.027 C 
HETATM   14  H   UNL     1       7.252  24.245  56.688  1.00  0.00     0.163 HD
ENDROOT
BRANCH   1  15
HETATM   15  C   UNL     1       8.168  28.543  57.135  1.00  0.00     0.146 C 
BRANCH  15  16
HETATM   16  C   UNL     1       7.702  29.643  58.047  1.00  0.00     0.224 C 
HETATM   17  N   UNL     1       8.683  30.159  58.857  1.00  0.00    -0.327 N 
HETATM   18  H   UNL     1       9.654  29.964  58.628  1.00  0.00     0.169 HD
HETATM   19  O   UNL     1       6.486  29.818  58.126  1.00  0.00    -0.273 OA
BRANCH  17  20
HETATM   20  C   UNL     1       8.490  30.911  60.037  1.00  0.00     0.034 A 
HETATM   21  C   UNL     1       7.802  32.125  60.083  1.00  0.00     0.030 A 
HETATM   22  C   UNL     1       7.595  32.777  61.303  1.00  0.00     0.009 A 
HETATM   23  C   UNL     1       8.077  32.230  62.495  1.00  0.00    -0.062 A 
HETATM   24  C   UNL     1       7.835  32.912  63.808  1.00  0.00     0.048 C 
HETATM   25  C   UNL     1       8.772  31.018  62.448  1.00  0.00     0.009 A 
HETATM   26  C   UNL     1       8.984  30.369  61.229  1.00  0.00     0.030 A 
ENDBRANCH  17  20
ENDBRANCH  15  16
ENDBRANCH   1  15
TORSDOF 3
ENDMDL
MODEL 4
REMARK VINA RESULT:      -8.4      2.856      7.761
REMARK  3 active torsions:
REMARK  status: ('A' for Active; 'I' for Inactive)
REMARK    1  A    between atoms: C_5  and  N_6 
REMARK       I    between atoms: N_6  and  C_7 
REMARK    2  A    between atoms: C_7  and  C_8 
REMARK    3  A    between atoms: C_8  and  C_9 
ROOT
HETATM    1  C   UNL     1       5.456  27.469  55.683  1.00  0.00     0.286 C 
HETATM    2  N   UNL     1       4.136  27.947  56.307  1.00  0.00    -0.056 N 
HETATM    3  H   UNL     1       3.387  27.368  55.906  1.00  0.00     0.278 HD
HETATM    4  H   UNL     1       4.117  27.680  57.316  1.00  0.00     0.278 HD
HETATM    5  C   UNL     1       3.755  29.386  56.138  1.00  0.00     0.209 C 
HETATM    6  C   UNL     1       4.050  29.836  54.689  1.00  0.00     0.115 C 
HETATM    7  N   UNL     1       5.419  29.533  54.294  1.00  0.00    -0.353 N 
HETATM    8  C   UNL     1       6.087  28.393  54.638  1.00  0.00     0.249 C 
HETATM    9  O   UNL     1       7.163  28.130  54.110  1.00  0.00    -0.271 OA
HETATM   10  C   UNL     1       4.458  30.242  57.191  1.00  0.00     0.035 C 
HETATM   11  C   UNL     1       4.141  31.723  56.986  1.00  0.00     0.002 C 
HETATM   12  C   UNL     1       4.473  32.181  55.568  1.00  0.00     0.002 C 
HETATM   13  C   UNL     1       3.757  31.329  54.519  1.00  0.00     0.027 C 
HETATM   14  H   UNL     1       5.844  30.044  53.522  1.00  0.00     0.163 HD
ENDROOT
BRANCH   1  15
HETATM   15  C   UNL     1       6.482  27.113  56.764  1.00  0.00     0.146 C 
BRANCH  15  16
HETATM   16  C   UNL     1       6.800  25.658  56.563  1.00  0.00     0.224 C 
HETATM   17  N   UNL     1       7.766  25.415  55.618  1.00  0.00    -0.327 N 
HETATM   18  H   UNL     1       8.355  26.187  55.317  1.00  0.00     0.169 HD
HETATM   19  O   UNL     1       6.037  24.847  57.090  1.00  0.00    -0.273 OA
BRANCH  17  20
HETATM   20  C   UNL     1       8.009  24.190  54.959  1.00  0.00     0.034 A 
HETATM   21  C   UNL     1       8.711  23.126  55.526  1.00  0.00     0.030 A 
HETATM   22  C   UNL     1       8.853  21.919  54.834  1.00  0.00     0.009 A 
HETATM   23  C   UNL     1       8.300  21.758  53.561  1.00  0.00    -0.062 A 
HETATM   24  C   UNL     1       8.427  20.457  52.826  1.00  0.00     0.048 C 
HETATM   25  C   UNL     1       7.603  22.825  52.990  1.00  0.00     0.009 A 
HETATM   26  C   UNL     1       7.466  24.034  53.678  1.00  0.00     0.030 A 
ENDBRANCH  17  20
ENDBRANCH  15  16
ENDBRANCH   1  15
TORSDOF 3
ENDMDL
MODEL 5
REMARK VINA RESULT:      -8.2      4.633      7.698
REMARK  3 active torsions:
REMARK  status: ('A' for Active; 'I' for Inactive)
REMARK    1  A    between atoms: C_5  and  N_6 
REMARK       I    between atoms: N_6  and  C_7 
REMARK    2  A    between atoms: C_7  and  C_8 
REMARK    3  A    between atoms: C_8  and  C_9 
ROOT
HETATM    1  C   UNL     1       6.212  26.291  53.595  1.00  0.00     0.286 C 
HETATM    2  N   UNL     1       5.691  25.104  54.419  1.00  0.00    -0.056 N 
HETATM    3  H   UNL     1       4.718  25.318  54.673  1.00  0.00     0.278 HD
HETATM    4  H   UNL     1       5.588  24.273  53.796  1.00  0.00     0.278 HD
HETATM    5  C   UNL     1       6.429  24.734  55.669  1.00  0.00     0.209 C 
HETATM    6  C   UNL     1       6.811  26.013  56.448  1.00  0.00     0.115 C 
HETATM    7  N   UNL     1       7.513  26.972  55.605  1.00  0.00    -0.353 N 
HETATM    8  C   UNL     1       7.205  27.222  54.298  1.00  0.00     0.249 C 
HETATM    9  O   UNL     1       7.719  28.174  53.718  1.00  0.00    -0.271 OA
HETATM   10  C   UNL     1       7.630  23.853  55.328  1.00  0.00     0.035 C 
HETATM   11  C   UNL     1       8.438  23.528  56.584  1.00  0.00     0.002 C 
HETATM   12  C   UNL     1       8.855  24.793  57.331  1.00  0.00     0.002 C 
HETATM   13  C   UNL     1       7.648  25.664  57.681  1.00  0.00     0.027 C 
HETATM   14  H   UNL     1       8.096  27.688  56.035  1.00  0.00     0.163 HD
ENDROOT
BRANCH   1  15
HETATM   15  C   UNL     1       6.784  25.825  52.252  1.00  0.00     0.146 C 
BRANCH  15  16
HETATM   16  C   UNL     1       5.595  25.578  51.366  1.00  0.00     0.224 C 
HETATM   17  N   UNL     1       5.529  26.397  50.266  1.00  0.00    -0.327 N 
HETATM   18  H   UNL     1       6.364  26.909  49.992  1.00  0.00     0.169 HD
HETATM   19  O   UNL     1       4.717  24.839  51.812  1.00  0.00    -0.273 OA
BRANCH  17  20
HETATM   20  C   UNL     1       4.387  26.656  49.477  1.00  0.00     0.034 A 
HETATM   21  C   UNL     1       3.861  25.757  48.548  1.00  0.00     0.030 A 
HETATM   22  C   UNL     1       2.686  26.060  47.852  1.00  0.00     0.009 A 
HETATM   23  C   UNL     1       2.021  27.269  48.070  1.00  0.00    -0.062 A 
HETATM   24  C   UNL     1       0.747  27.589  47.347  1.00  0.00     0.048 C 
HETATM   25  C   UNL     1       2.551  28.173  48.996  1.00  0.00     0.009 A 
HETATM   26  C   UNL     1       3.728  27.873  49.687  1.00  0.00     0.030 A 
ENDBRANCH  17  20
ENDBRANCH  15  16
ENDBRANCH   1  15
TORSDOF 3
ENDMDL
MODEL 6
REMARK VINA RESULT:      -8.2      4.962      7.710
REMARK  3 active torsions:
REMARK  status: ('A' for Active; 'I' for Inactive)
REMARK    1  A    between atoms: C_5  and  N_6 
REMARK       I    between atoms: N_6  and  C_7 
REMARK    2  A    between atoms: C_7  and  C_8 
REMARK    3  A    between atoms: C_8  and  C_9 
ROOT
HETATM    1  C   UNL     1       4.792  28.099  51.316  1.00  0.00     0.286 C 
HETATM    2  N   UNL     1       5.543  27.303  50.238  1.00  0.00    -0.056 N 
HETATM    3  H   UNL     1       6.381  27.846  49.993  1.00  0.00     0.278 HD
HETATM    4  H   UNL     1       5.946  26.441  50.667  1.00  0.00     0.278 HD
HETATM    5  C   UNL     1       4.816  26.969  48.972  1.00  0.00     0.209 C 
HETATM    6  C   UNL     1       4.003  28.195  48.498  1.00  0.00     0.115 C 
HETATM    7  N   UNL     1       3.147  28.719  49.554  1.00  0.00    -0.353 N 
HETATM    8  C   UNL     1       3.505  28.800  50.870  1.00  0.00     0.249 C 
HETATM    9  O   UNL     1       2.803  29.425  51.659  1.00  0.00    -0.271 OA
HETATM   10  C   UNL     1       3.962  25.718  49.172  1.00  0.00     0.035 C 
HETATM   11  C   UNL     1       3.154  25.405  47.913  1.00  0.00     0.002 C 
HETATM   12  C   UNL     1       2.315  26.601  47.469  1.00  0.00     0.002 C 
HETATM   13  C   UNL     1       3.177  27.847  47.257  1.00  0.00     0.027 C 
HETATM   14  H   UNL     1       2.341  29.292  49.310  1.00  0.00     0.163 HD
ENDROOT
BRANCH   1  15
HETATM   15  C   UNL     1       4.523  27.238  52.555  1.00  0.00     0.146 C 
BRANCH  15  16
HETATM   16  C   UNL     1       5.796  26.480  52.809  1.00  0.00     0.224 C 
HETATM   17  N   UNL     1       5.618  25.138  53.042  1.00  0.00    -0.327 N 
HETATM   18  H   UNL     1       4.728  24.716  52.790  1.00  0.00     0.169 HD
HETATM   19  O   UNL     1       6.812  27.150  52.989  1.00  0.00    -0.273 OA
BRANCH  17  20
HETATM   20  C   UNL     1       6.539  24.262  53.657  1.00  0.00     0.034 A 
HETATM   21  C   UNL     1       6.691  24.135  55.038  1.00  0.00     0.030 A 
HETATM   22  C   UNL     1       7.579  23.196  55.572  1.00  0.00     0.009 A 
HETATM   23  C   UNL     1       8.333  22.372  54.733  1.00  0.00    -0.062 A 
HETATM   24  C   UNL     1       9.267  21.345  55.300  1.00  0.00     0.048 C 
HETATM   25  C   UNL     1       8.186  22.503  53.350  1.00  0.00     0.009 A 
HETATM   26  C   UNL     1       7.304  23.445  52.816  1.00  0.00     0.030 A 
ENDBRANCH  17  20
ENDBRANCH  15  16
ENDBRANCH   1  15
TORSDOF 3
ENDMDL
MODEL 7
REMARK VINA RESULT:      -8.2      4.160      6.666
REMARK  3 active torsions:
REMARK  status: ('A' for Active; 'I' for Inactive)
REMARK    1  A    between atoms: C_5  and  N_6 
REMARK       I    between atoms: N_6  and  C_7 
REMARK    2  A    between atoms: C_7  and  C_8 
REMARK    3  A    between atoms: C_8  and  C_9 
ROOT
HETATM    1  C   UNL     1       7.463  29.657  58.264  1.00  0.00     0.286 C 
HETATM    2  N   UNL     1       6.145  28.979  57.859  1.00  0.00    -0.056 N 
HETATM    3  H   UNL     1       5.882  28.350  58.629  1.00  0.00     0.278 HD
HETATM    4  H   UNL     1       5.378  29.687  57.869  1.00  0.00     0.278 HD
HETATM    5  C   UNL     1       6.118  28.193  56.584  1.00  0.00     0.209 C 
HETATM    6  C   UNL     1       7.407  27.348  56.464  1.00  0.00     0.115 C 
HETATM    7  N   UNL     1       8.605  28.159  56.637  1.00  0.00    -0.353 N 
HETATM    8  C   UNL     1       8.724  29.178  57.539  1.00  0.00     0.249 C 
HETATM    9  O   UNL     1       9.822  29.683  57.752  1.00  0.00    -0.271 OA
HETATM   10  C   UNL     1       5.896  29.129  55.397  1.00  0.00     0.035 C 
HETATM   11  C   UNL     1       5.941  28.354  54.080  1.00  0.00     0.002 C 
HETATM   12  C   UNL     1       7.233  27.554  53.939  1.00  0.00     0.002 C 
HETATM   13  C   UNL     1       7.444  26.610  55.124  1.00  0.00     0.027 C 
HETATM   14  H   UNL     1       9.495  27.825  56.272  1.00  0.00     0.163 HD
ENDROOT
BRANCH   1  15
HETATM   15  C   UNL     1       7.350  31.183  58.178  1.00  0.00     0.146 C 
BRANCH  15  16
HETATM   16  C   UNL     1       7.826  31.703  59.505  1.00  0.00     0.224 C 
HETATM   17  N   UNL     1       7.087  31.274  60.579  1.00  0.00    -0.327 N 
HETATM   18  H   UNL     1       6.466  30.479  60.454  1.00  0.00     0.169 HD
HETATM   19  O   UNL     1       8.669  32.601  59.477  1.00  0.00    -0.273 OA
BRANCH  17  20
HETATM   20  C   UNL     1       7.052  31.859  61.864  1.00  0.00     0.034 A 
HETATM   21  C   UNL     1       8.189  32.180  62.605  1.00  0.00     0.030 A 
HETATM   22  C   UNL     1       8.073  32.820  63.844  1.00  0.00     0.009 A 
HETATM   23  C   UNL     1       6.817  33.144  64.363  1.00  0.00    -0.062 A 
HETATM   24  C   UNL     1       6.687  33.853  65.678  1.00  0.00     0.048 C 
HETATM   25  C   UNL     1       5.677  32.816  63.624  1.00  0.00     0.009 A 
HETATM   26  C   UNL     1       5.793  32.172  62.390  1.00  0.00     0.030 A 
ENDBRANCH  17  20
ENDBRANCH  15  16
ENDBRANCH   1  15
TORSDOF 3
ENDMDL
MODEL 8
REMARK VINA RESULT:      -8.1     10.435     14.032
REMARK  3 active torsions:
REMARK  status: ('A' for Active; 'I' for Inactive)
REMARK    1  A    between atoms: C_5  and  N_6 
REMARK       I    between atoms: N_6  and  C_7 
REMARK    2  A    between atoms: C_7  and  C_8 
REMARK    3  A    between atoms: C_8  and  C_9 
ROOT
HETATM    1  C   UNL     1       4.157  34.997  64.681  1.00  0.00     0.286 C 
HETATM    2  N   UNL     1       5.621  35.448  64.575  1.00  0.00    -0.056 N 
HETATM    3  H   UNL     1       5.614  36.408  64.206  1.00  0.00     0.278 HD
HETATM    4  H   UNL     1       6.012  35.575  65.535  1.00  0.00     0.278 HD
HETATM    5  C   UNL     1       6.554  34.632  63.733  1.00  0.00     0.209 C 
HETATM    6  C   UNL     1       5.849  34.226  62.419  1.00  0.00     0.115 C 
HETATM    7  N   UNL     1       4.562  33.590  62.667  1.00  0.00    -0.353 N 
HETATM    8  C   UNL     1       3.683  33.979  63.638  1.00  0.00     0.249 C 
HETATM    9  O   UNL     1       2.547  33.517  63.658  1.00  0.00    -0.271 OA
HETATM   10  C   UNL     1       7.074  33.439  64.533  1.00  0.00     0.035 C 
HETATM   11  C   UNL     1       7.967  32.553  63.666  1.00  0.00     0.002 C 
HETATM   12  C   UNL     1       7.257  32.113  62.388  1.00  0.00     0.002 C 
HETATM   13  C   UNL     1       6.750  33.312  61.585  1.00  0.00     0.027 C 
HETATM   14  H   UNL     1       4.148  32.995  61.951  1.00  0.00     0.163 HD
ENDROOT
BRANCH   1  15
HETATM   15  C   UNL     1       3.831  34.498  66.093  1.00  0.00     0.146 C 
BRANCH  15  16
HETATM   16  C   UNL     1       4.848  35.137  66.996  1.00  0.00     0.224 C 
HETATM   17  N   UNL     1       5.548  34.250  67.776  1.00  0.00    -0.327 N 
HETATM   18  H   UNL     1       5.525  33.264  67.530  1.00  0.00     0.169 HD
HETATM   19  O   UNL     1       4.804  36.363  67.098  1.00  0.00    -0.273 OA
BRANCH  17  20
HETATM   20  C   UNL     1       6.277  34.553  68.948  1.00  0.00     0.034 A 
HETATM   21  C   UNL     1       5.705  34.656  70.216  1.00  0.00     0.030 A 
HETATM   22  C   UNL     1       6.504  34.894  71.339  1.00  0.00     0.009 A 
HETATM   23  C   UNL     1       7.888  35.038  71.210  1.00  0.00    -0.062 A 
HETATM   24  C   UNL     1       8.753  35.268  72.413  1.00  0.00     0.048 C 
HETATM   25  C   UNL     1       8.460  34.942  69.939  1.00  0.00     0.009 A 
HETATM   26  C   UNL     1       7.661  34.711  68.816  1.00  0.00     0.030 A 
ENDBRANCH  17  20
ENDBRANCH  15  16
ENDBRANCH   1  15
TORSDOF 3
ENDMDL
MODEL 9
REMARK VINA RESULT:      -8.0      2.394      8.139
REMARK  3 active torsions:
REMARK  status: ('A' for Active; 'I' for Inactive)
REMARK    1  A    between atoms: C_5  and  N_6 
REMARK       I    between atoms: N_6  and  C_7 
REMARK    2  A    between atoms: C_7  and  C_8 
REMARK    3  A    between atoms: C_8  and  C_9 
ROOT
HETATM    1  C   UNL     1       7.160  28.379  56.469  1.00  0.00     0.286 C 
HETATM    2  N   UNL     1       6.199  28.923  55.400  1.00  0.00    -0.056 N 
HETATM    3  H   UNL     1       6.777  29.250  54.615  1.00  0.00     0.278 HD
HETATM    4  H   UNL     1       5.669  28.129  54.979  1.00  0.00     0.278 HD
HETATM    5  C   UNL     1       5.267  30.031  55.787  1.00  0.00     0.209 C 
HETATM    6  C   UNL     1       6.020  31.070  56.646  1.00  0.00     0.115 C 
HETATM    7  N   UNL     1       6.704  30.449  57.773  1.00  0.00    -0.353 N 
HETATM    8  C   UNL     1       7.347  29.245  57.718  1.00  0.00     0.249 C 
HETATM    9  O   UNL     1       8.056  28.885  58.653  1.00  0.00    -0.271 OA
HETATM   10  C   UNL     1       4.030  29.458  56.477  1.00  0.00     0.035 C 
HETATM   11  C   UNL     1       3.103  30.578  56.945  1.00  0.00     0.002 C 
HETATM   12  C   UNL     1       3.834  31.583  57.832  1.00  0.00     0.002 C 
HETATM   13  C   UNL     1       5.064  32.163  57.132  1.00  0.00     0.027 C 
HETATM   14  H   UNL     1       6.956  31.015  58.582  1.00  0.00     0.163 HD
ENDROOT
BRANCH   1  15
HETATM   15  C   UNL     1       6.789  26.947  56.869  1.00  0.00     0.146 C 
BRANCH  15  16
HETATM   16  C   UNL     1       7.029  26.106  55.647  1.00  0.00     0.224 C 
HETATM   17  N   UNL     1       6.643  24.795  55.777  1.00  0.00    -0.327 N 
HETATM   18  H   UNL     1       6.022  24.546  56.542  1.00  0.00     0.169 HD
HETATM   19  O   UNL     1       7.720  26.606  54.759  1.00  0.00    -0.273 OA
BRANCH  17  20
HETATM   20  C   UNL     1       7.062  23.711  54.974  1.00  0.00     0.034 A 
HETATM   21  C   UNL     1       7.143  23.758  53.582  1.00  0.00     0.030 A 
HETATM   22  C   UNL     1       7.632  22.663  52.862  1.00  0.00     0.009 A 
HETATM   23  C   UNL     1       8.041  21.502  53.522  1.00  0.00    -0.062 A 
HETATM   24  C   UNL     1       8.590  20.334  52.757  1.00  0.00     0.048 C 
HETATM   25  C   UNL     1       7.953  21.452  54.915  1.00  0.00     0.009 A 
HETATM   26  C   UNL     1       7.460  22.543  55.635  1.00  0.00     0.030 A 
ENDBRANCH  17  20
ENDBRANCH  15  16
ENDBRANCH   1  15
TORSDOF 3
ENDMDL
MODEL 10
REMARK VINA RESULT:      -7.8      2.728      7.445
REMARK  3 active torsions:
REMARK  status: ('A' for Active; 'I' for Inactive)
REMARK    1  A    between atoms: C_5  and  N_6 
REMARK       I    between atoms: N_6  and  C_7 
REMARK    2  A    between atoms: C_7  and  C_8 
REMARK    3  A    between atoms: C_8  and  C_9 
ROOT
HETATM    1  C   UNL     1       4.807  26.855  53.313  1.00  0.00     0.286 C 
HETATM    2  N   UNL     1       5.377  26.611  54.719  1.00  0.00    -0.056 N 
HETATM    3  H   UNL     1       4.823  25.853  55.139  1.00  0.00     0.278 HD
HETATM    4  H   UNL     1       6.325  26.182  54.635  1.00  0.00     0.278 HD
HETATM    5  C   UNL     1       5.403  27.759  55.680  1.00  0.00     0.209 C 
HETATM    6  C   UNL     1       4.076  28.546  55.589  1.00  0.00     0.115 C 
HETATM    7  N   UNL     1       3.763  28.926  54.218  1.00  0.00    -0.353 N 
HETATM    8  C   UNL     1       3.982  28.132  53.128  1.00  0.00     0.249 C 
HETATM    9  O   UNL     1       3.519  28.449  52.036  1.00  0.00    -0.271 OA
HETATM   10  C   UNL     1       6.637  28.625  55.429  1.00  0.00     0.035 C 
HETATM   11  C   UNL     1       6.641  29.843  56.351  1.00  0.00     0.002 C 
HETATM   12  C   UNL     1       5.349  30.647  56.230  1.00  0.00     0.002 C 
HETATM   13  C   UNL     1       4.118  29.779  56.495  1.00  0.00     0.027 C 
HETATM   14  H   UNL     1       3.123  29.699  54.043  1.00  0.00     0.163 HD
ENDROOT
BRANCH   1  15
HETATM   15  C   UNL     1       5.906  26.777  52.248  1.00  0.00     0.146 C 
BRANCH  15  16
HETATM   16  C   UNL     1       6.937  25.829  52.794  1.00  0.00     0.224 C 
HETATM   17  N   UNL     1       6.541  24.514  52.816  1.00  0.00    -0.327 N 
HETATM   18  H   UNL     1       5.734  24.241  52.261  1.00  0.00     0.169 HD
HETATM   19  O   UNL     1       7.914  26.333  53.347  1.00  0.00    -0.273 OA
BRANCH  17  20
HETATM   20  C   UNL     1       7.112  23.476  53.584  1.00  0.00     0.034 A 
HETATM   21  C   UNL     1       7.066  23.422  54.978  1.00  0.00     0.030 A 
HETATM   22  C   UNL     1       7.598  22.325  55.665  1.00  0.00     0.009 A 
HETATM   23  C   UNL     1       8.190  21.268  54.969  1.00  0.00    -0.062 A 
HETATM   24  C   UNL     1       8.738  20.078  55.698  1.00  0.00     0.048 C 
HETATM   25  C   UNL     1       8.242  21.325  53.573  1.00  0.00     0.009 A 
HETATM   26  C   UNL     1       7.716  22.423  52.888  1.00  0.00     0.030 A 
ENDBRANCH  17  20
ENDBRANCH  15  16
ENDBRANCH   1  15
TORSDOF 3
ENDMDL
