MODEL 1
REMARK VINA RESULT:      -9.8      0.000      0.000
REMARK  3 active torsions:
REMARK  status: ('A' for Active; 'I' for Inactive)
REMARK    1  A    between atoms: C_5  and  C_6 
REMARK    2  A    between atoms: C_6  and  N_7 
REMARK    3  A    between atoms: C_11  and  C_12 
ROOT
HETATM    1  N   UNL     1       7.514  29.053  56.775  1.00  0.00    -0.066 N 
HETATM    2  H   UNL     1       6.752  29.647  56.429  1.00  0.00     0.280 HD
HETATM    3  C   UNL     1       8.211  28.454  55.573  1.00  0.00     0.236 C 
HETATM    4  C   UNL     1       7.199  27.667  54.754  1.00  0.00     0.037 C 
HETATM    5  C   UNL     1       6.542  26.540  55.568  1.00  0.00     0.024 C 
HETATM    6  C   UNL     1       5.929  27.129  56.848  1.00  0.00     0.037 C 
HETATM    7  C   UNL     1       6.898  27.991  57.650  1.00  0.00     0.236 C 
ENDROOT
BRANCH   1   8
HETATM    8  C   UNL     1       8.428  29.957  57.579  1.00  0.00     0.293 C 
BRANCH   8   9
HETATM    9  C   UNL     1       7.700  30.873  58.480  1.00  0.00     0.061 A 
HETATM   10  N   UNL     1       8.094  31.173  59.777  1.00  0.00    -0.307 N 
HETATM   11  C   UNL     1       7.147  32.064  60.283  1.00  0.00     0.139 A 
HETATM   12  C   UNL     1       9.188  30.733  60.520  1.00  0.00     0.099 A 
HETATM   13  C   UNL     1       7.314  32.554  61.624  1.00  0.00    -0.016 A 
HETATM   14  N   UNL     1       6.203  32.307  59.398  1.00  0.00    -0.240 NA
HETATM   15  C   UNL     1       6.342  33.516  62.257  1.00  0.00     0.052 C 
HETATM   16  C   UNL     1       8.386  32.115  62.325  1.00  0.00     0.012 A 
HETATM   17  C   UNL     1       9.353  31.181  61.774  1.00  0.00     0.018 A 
HETATM   18  C   UNL     1       6.514  31.559  58.304  1.00  0.00     0.146 A 
ENDBRANCH   8   9
ENDBRANCH   1   8
BRANCH   5  19
HETATM   19  C   UNL     1       7.481  25.374  55.791  1.00  0.00    -0.024 A 
HETATM   20  C   UNL     1       7.749  24.327  54.837  1.00  0.00     0.018 A 
HETATM   21  C   UNL     1       8.667  23.460  55.417  1.00  0.00     0.138 A 
HETATM   22  C   UNL     1       7.314  24.007  53.538  1.00  0.00     0.017 A 
HETATM   23  N   UNL     1       9.217  22.359  54.879  1.00  0.00    -0.242 NA
HETATM   24  N   UNL     1       8.926  23.901  56.679  1.00  0.00    -0.350 N 
HETATM   25  C   UNL     1       8.772  22.102  53.629  1.00  0.00     0.119 A 
HETATM   26  C   UNL     1       7.846  22.867  52.932  1.00  0.00     0.020 A 
HETATM   27  H   UNL     1       9.535  23.414  57.321  1.00  0.00     0.166 HD
HETATM   28  C   UNL     1       8.211  25.049  56.926  1.00  0.00     0.098 A 
ENDBRANCH   5  19
TORSDOF 3
ENDMDL
MODEL 2
REMARK VINA RESULT:      -9.8      1.840      3.087
REMARK  3 active torsions:
REMARK  status: ('A' for Active; 'I' for Inactive)
REMARK    1  A    between atoms: C_5  and  C_6 
REMARK    2  A    between atoms: C_6  and  N_7 
REMARK    3  A    between atoms: C_11  and  C_12 
ROOT
HETATM    1  N   UNL     1       7.225  27.381  55.966  1.00  0.00    -0.066 N 
HETATM    2  H   UNL     1       6.625  27.672  56.748  1.00  0.00     0.280 HD
HETATM    3  C   UNL     1       6.327  26.825  54.882  1.00  0.00     0.236 C 
HETATM    4  C   UNL     1       5.524  25.665  55.448  1.00  0.00     0.037 C 
HETATM    5  C   UNL     1       6.424  24.539  55.982  1.00  0.00     0.024 C 
HETATM    6  C   UNL     1       7.413  25.121  57.003  1.00  0.00     0.037 C 
HETATM    7  C   UNL     1       8.178  26.337  56.491  1.00  0.00     0.236 C 
ENDROOT
BRANCH   1   8
HETATM    8  C   UNL     1       7.971  28.622  55.517  1.00  0.00     0.293 C 
BRANCH   8   9
HETATM    9  C   UNL     1       8.635  29.338  56.624  1.00  0.00     0.061 A 
HETATM   10  N   UNL     1       7.983  30.175  57.519  1.00  0.00    -0.307 N 
HETATM   11  C   UNL     1       8.956  30.651  58.398  1.00  0.00     0.139 A 
HETATM   12  C   UNL     1       6.640  30.537  57.612  1.00  0.00     0.099 A 
HETATM   13  C   UNL     1       8.553  31.545  59.449  1.00  0.00    -0.016 A 
HETATM   14  N   UNL     1      10.146  30.181  58.089  1.00  0.00    -0.240 NA
HETATM   15  C   UNL     1       9.532  32.113  60.444  1.00  0.00     0.052 C 
HETATM   16  C   UNL     1       7.243  31.880  59.522  1.00  0.00     0.012 A 
HETATM   17  C   UNL     1       6.252  31.373  58.588  1.00  0.00     0.018 A 
HETATM   18  C   UNL     1       9.967  29.404  56.986  1.00  0.00     0.146 A 
ENDBRANCH   8   9
ENDBRANCH   1   8
BRANCH   5  19
HETATM   19  C   UNL     1       7.061  23.739  54.866  1.00  0.00    -0.024 A 
HETATM   20  C   UNL     1       7.619  22.417  55.004  1.00  0.00     0.018 A 
HETATM   21  C   UNL     1       8.090  22.031  53.756  1.00  0.00     0.138 A 
HETATM   22  C   UNL     1       7.786  21.494  56.053  1.00  0.00     0.017 A 
HETATM   23  N   UNL     1       8.666  20.866  53.414  1.00  0.00    -0.242 NA
HETATM   24  N   UNL     1       7.890  23.064  52.890  1.00  0.00    -0.350 N 
HETATM   25  C   UNL     1       8.794  20.014  54.455  1.00  0.00     0.119 A 
HETATM   26  C   UNL     1       8.387  20.269  55.757  1.00  0.00     0.020 A 
HETATM   27  H   UNL     1       8.187  23.042  51.925  1.00  0.00     0.166 HD
HETATM   28  C   UNL     1       7.279  24.107  53.545  1.00  0.00     0.098 A 
ENDBRANCH   5  19
TORSDOF 3
ENDMDL
MODEL 3
REMARK VINA RESULT:      -9.7      1.572      9.112
REMARK  3 active torsions:
REMARK  status: ('A' for Active; 'I' for Inactive)
REMARK    1  A    between atoms: C_5  and  C_6 
REMARK    2  A    between atoms: C_6  and  N_7 
REMARK    3  A    between atoms: C_11  and  C_12 
ROOT
HETATM    1  N   UNL     1       7.532  26.608  56.002  1.00  0.00    -0.066 N 
HETATM    2  H   UNL     1       8.237  26.403  55.284  1.00  0.00     0.280 HD
HETATM    3  C   UNL     1       6.684  27.755  55.495  1.00  0.00     0.236 C 
HETATM    4  C   UNL     1       7.581  28.950  55.216  1.00  0.00     0.037 C 
HETATM    5  C   UNL     1       8.348  29.407  56.467  1.00  0.00     0.024 C 
HETATM    6  C   UNL     1       9.124  28.217  57.050  1.00  0.00     0.037 C 
HETATM    7  C   UNL     1       8.267  26.974  57.267  1.00  0.00     0.236 C 
ENDROOT
BRANCH   1   8
HETATM    8  C   UNL     1       6.730  25.336  56.188  1.00  0.00     0.293 C 
BRANCH   8   9
HETATM    9  C   UNL     1       6.987  24.323  55.144  1.00  0.00     0.061 A 
HETATM   10  N   UNL     1       7.561  23.082  55.381  1.00  0.00    -0.307 N 
HETATM   11  C   UNL     1       7.631  22.436  54.147  1.00  0.00     0.139 A 
HETATM   12  C   UNL     1       8.012  22.500  56.565  1.00  0.00     0.099 A 
HETATM   13  C   UNL     1       8.184  21.110  54.097  1.00  0.00    -0.016 A 
HETATM   14  N   UNL     1       7.162  23.200  53.183  1.00  0.00    -0.240 NA
HETATM   15  C   UNL     1       8.304  20.334  52.811  1.00  0.00     0.052 C 
HETATM   16  C   UNL     1       8.613  20.563  55.260  1.00  0.00     0.012 A 
HETATM   17  C   UNL     1       8.533  21.264  56.530  1.00  0.00     0.018 A 
HETATM   18  C   UNL     1       6.796  24.369  53.776  1.00  0.00     0.146 A 
ENDBRANCH   8   9
ENDBRANCH   1   8
BRANCH   5  19
HETATM   19  C   UNL     1       7.455  30.128  57.454  1.00  0.00    -0.024 A 
HETATM   20  C   UNL     1       7.915  30.925  58.564  1.00  0.00     0.018 A 
HETATM   21  C   UNL     1       6.792  31.419  59.215  1.00  0.00     0.138 A 
HETATM   22  C   UNL     1       9.164  31.286  59.102  1.00  0.00     0.017 A 
HETATM   23  N   UNL     1       6.747  32.228  60.288  1.00  0.00    -0.242 NA
HETATM   24  N   UNL     1       5.687  30.925  58.589  1.00  0.00    -0.350 N 
HETATM   25  C   UNL     1       7.972  32.550  60.758  1.00  0.00     0.119 A 
HETATM   26  C   UNL     1       9.178  32.118  60.222  1.00  0.00     0.020 A 
HETATM   27  H   UNL     1       4.745  31.109  58.902  1.00  0.00     0.166 HD
HETATM   28  C   UNL     1       6.069  30.136  57.530  1.00  0.00     0.098 A 
ENDBRANCH   5  19
TORSDOF 3
ENDMDL
MODEL 4
REMARK VINA RESULT:      -9.6      1.420      1.908
REMARK  3 active torsions:
REMARK  status: ('A' for Active; 'I' for Inactive)
REMARK    1  A    between atoms: C_5  and  C_6 
REMARK    2  A    between atoms: C_6  and  N_7 
REMARK    3  A    between atoms: C_11  and  C_12 
ROOT
HETATM    1  N   UNL     1       6.841  28.208  57.420  1.00  0.00    -0.066 N 
HETATM    2  H   UNL     1       6.546  28.230  58.403  1.00  0.00     0.280 HD
HETATM    3  C   UNL     1       5.634  27.837  56.586  1.00  0.00     0.236 C 
HETATM    4  C   UNL     1       5.103  26.491  57.054  1.00  0.00     0.037 C 
HETATM    5  C   UNL     1       6.156  25.377  56.937  1.00  0.00     0.024 C 
HETATM    6  C   UNL     1       7.427  25.799  57.690  1.00  0.00     0.037 C 
HETATM    7  C   UNL     1       7.939  27.182  57.300  1.00  0.00     0.236 C 
ENDROOT
BRANCH   1   8
HETATM    8  C   UNL     1       7.358  29.597  57.098  1.00  0.00     0.293 C 
BRANCH   8   9
HETATM    9  C   UNL     1       6.946  30.617  58.083  1.00  0.00     0.061 A 
HETATM   10  N   UNL     1       7.653  30.923  59.238  1.00  0.00    -0.307 N 
HETATM   11  C   UNL     1       6.935  31.926  59.888  1.00  0.00     0.139 A 
HETATM   12  C   UNL     1       8.842  30.398  59.741  1.00  0.00     0.099 A 
HETATM   13  C   UNL     1       7.450  32.447  61.125  1.00  0.00    -0.016 A 
HETATM   14  N   UNL     1       5.841  32.235  59.224  1.00  0.00    -0.240 NA
HETATM   15  C   UNL     1       6.744  33.529  61.901  1.00  0.00     0.052 C 
HETATM   16  C   UNL     1       8.609  31.924  61.593  1.00  0.00     0.012 A 
HETATM   17  C   UNL     1       9.331  30.873  60.897  1.00  0.00     0.018 A 
HETATM   18  C   UNL     1       5.821  31.417  58.136  1.00  0.00     0.146 A 
ENDBRANCH   8   9
ENDBRANCH   1   8
BRANCH   5  19
HETATM   19  C   UNL     1       6.379  24.950  55.503  1.00  0.00    -0.024 A 
HETATM   20  C   UNL     1       7.218  23.856  55.082  1.00  0.00     0.018 A 
HETATM   21  C   UNL     1       7.147  23.785  53.696  1.00  0.00     0.138 A 
HETATM   22  C   UNL     1       8.041  22.909  55.718  1.00  0.00     0.017 A 
HETATM   23  N   UNL     1       7.748  22.903  52.881  1.00  0.00    -0.242 NA
HETATM   24  N   UNL     1       6.353  24.803  53.261  1.00  0.00    -0.350 N 
HETATM   25  C   UNL     1       8.519  22.012  53.544  1.00  0.00     0.119 A 
HETATM   26  C   UNL     1       8.699  21.972  54.920  1.00  0.00     0.020 A 
HETATM   27  H   UNL     1       6.178  24.990  52.284  1.00  0.00     0.166 HD
HETATM   28  C   UNL     1       5.889  25.523  54.337  1.00  0.00     0.098 A 
ENDBRANCH   5  19
TORSDOF 3
ENDMDL
MODEL 5
REMARK VINA RESULT:      -9.2      2.533      4.152
REMARK  3 active torsions:
REMARK  status: ('A' for Active; 'I' for Inactive)
REMARK    1  A    between atoms: C_5  and  C_6 
REMARK    2  A    between atoms: C_6  and  N_7 
REMARK    3  A    between atoms: C_11  and  C_12 
ROOT
HETATM    1  N   UNL     1       6.457  26.892  52.859  1.00  0.00    -0.066 N 
HETATM    2  H   UNL     1       6.175  26.843  51.872  1.00  0.00     0.280 HD
HETATM    3  C   UNL     1       7.795  26.198  52.989  1.00  0.00     0.236 C 
HETATM    4  C   UNL     1       7.658  24.763  52.505  1.00  0.00     0.037 C 
HETATM    5  C   UNL     1       6.605  23.977  53.302  1.00  0.00     0.024 C 
HETATM    6  C   UNL     1       5.270  24.737  53.266  1.00  0.00     0.037 C 
HETATM    7  C   UNL     1       5.389  26.203  53.669  1.00  0.00     0.236 C 
ENDROOT
BRANCH   1   8
HETATM    8  C   UNL     1       6.536  28.366  53.206  1.00  0.00     0.293 C 
BRANCH   8   9
HETATM    9  C   UNL     1       6.624  28.622  54.657  1.00  0.00     0.061 A 
HETATM   10  N   UNL     1       7.795  28.957  55.324  1.00  0.00    -0.307 N 
HETATM   11  C   UNL     1       7.455  29.110  56.669  1.00  0.00     0.139 A 
HETATM   12  C   UNL     1       9.094  29.130  54.850  1.00  0.00     0.099 A 
HETATM   13  C   UNL     1       8.488  29.471  57.601  1.00  0.00    -0.016 A 
HETATM   14  N   UNL     1       6.175  28.873  56.865  1.00  0.00    -0.240 NA
HETATM   15  C   UNL     1       8.219  29.655  59.072  1.00  0.00     0.052 C 
HETATM   16  C   UNL     1       9.742  29.637  57.116  1.00  0.00     0.012 A 
HETATM   17  C   UNL     1      10.068  29.464  55.711  1.00  0.00     0.018 A 
HETATM   18  C   UNL     1       5.665  28.542  55.648  1.00  0.00     0.146 A 
ENDBRANCH   8   9
ENDBRANCH   1   8
BRANCH   5  19
HETATM   19  C   UNL     1       7.090  23.613  54.689  1.00  0.00    -0.024 A 
HETATM   20  C   UNL     1       7.676  22.349  55.059  1.00  0.00     0.018 A 
HETATM   21  C   UNL     1       7.996  22.418  56.410  1.00  0.00     0.138 A 
HETATM   22  C   UNL     1       7.973  21.140  54.404  1.00  0.00     0.017 A 
HETATM   23  N   UNL     1       8.582  21.478  57.169  1.00  0.00    -0.242 NA
HETATM   24  N   UNL     1       7.591  23.631  56.879  1.00  0.00    -0.350 N 
HETATM   25  C   UNL     1       8.853  20.342  56.489  1.00  0.00     0.119 A 
HETATM   26  C   UNL     1       8.575  20.123  55.147  1.00  0.00     0.020 A 
HETATM   27  H   UNL     1       7.677  23.907  57.847  1.00  0.00     0.166 HD
HETATM   28  C   UNL     1       7.033  24.362  55.856  1.00  0.00     0.098 A 
ENDBRANCH   5  19
TORSDOF 3
ENDMDL
MODEL 6
REMARK VINA RESULT:      -9.2      1.675      2.709
REMARK  3 active torsions:
REMARK  status: ('A' for Active; 'I' for Inactive)
REMARK    1  A    between atoms: C_5  and  C_6 
REMARK    2  A    between atoms: C_6  and  N_7 
REMARK    3  A    between atoms: C_11  and  C_12 
ROOT
HETATM    1  N   UNL     1       6.930  29.454  58.109  1.00  0.00    -0.066 N 
HETATM    2  H   UNL     1       6.432  29.241  58.982  1.00  0.00     0.280 HD
HETATM    3  C   UNL     1       5.923  29.399  56.981  1.00  0.00     0.236 C 
HETATM    4  C   UNL     1       5.285  28.019  56.952  1.00  0.00     0.037 C 
HETATM    5  C   UNL     1       6.322  26.902  56.754  1.00  0.00     0.024 C 
HETATM    6  C   UNL     1       7.409  27.022  57.833  1.00  0.00     0.037 C 
HETATM    7  C   UNL     1       8.013  28.418  57.941  1.00  0.00     0.236 C 
ENDROOT
BRANCH   1   8
HETATM    8  C   UNL     1       7.524  30.838  58.285  1.00  0.00     0.293 C 
BRANCH   8   9
HETATM    9  C   UNL     1       7.845  31.163  59.689  1.00  0.00     0.061 A 
HETATM   10  N   UNL     1       7.106  32.033  60.480  1.00  0.00    -0.307 N 
HETATM   11  C   UNL     1       7.736  32.068  61.724  1.00  0.00     0.139 A 
HETATM   12  C   UNL     1       5.960  32.771  60.193  1.00  0.00     0.099 A 
HETATM   13  C   UNL     1       7.171  32.894  62.756  1.00  0.00    -0.016 A 
HETATM   14  N   UNL     1       8.807  31.302  61.736  1.00  0.00    -0.240 NA
HETATM   15  C   UNL     1       7.781  32.999  64.130  1.00  0.00     0.052 C 
HETATM   16  C   UNL     1       6.055  33.600  62.455  1.00  0.00     0.012 A 
HETATM   17  C   UNL     1       5.425  33.549  61.148  1.00  0.00     0.018 A 
HETATM   18  C   UNL     1       8.902  30.771  60.487  1.00  0.00     0.146 A 
ENDBRANCH   8   9
ENDBRANCH   1   8
BRANCH   5  19
HETATM   19  C   UNL     1       6.840  26.848  55.333  1.00  0.00    -0.024 A 
HETATM   20  C   UNL     1       7.170  25.643  54.614  1.00  0.00     0.018 A 
HETATM   21  C   UNL     1       7.596  26.019  53.346  1.00  0.00     0.138 A 
HETATM   22  C   UNL     1       7.162  24.264  54.892  1.00  0.00     0.017 A 
HETATM   23  N   UNL     1       7.979  25.223  52.333  1.00  0.00    -0.242 NA
HETATM   24  N   UNL     1       7.585  27.380  53.282  1.00  0.00    -0.350 N 
HETATM   25  C   UNL     1       7.945  23.910  52.651  1.00  0.00     0.119 A 
HETATM   26  C   UNL     1       7.560  23.390  53.879  1.00  0.00     0.020 A 
HETATM   27  H   UNL     1       7.894  27.898  52.471  1.00  0.00     0.166 HD
HETATM   28  C   UNL     1       7.141  27.897  54.476  1.00  0.00     0.098 A 
ENDBRANCH   5  19
TORSDOF 3
ENDMDL
MODEL 7
REMARK VINA RESULT:      -9.2      1.631      2.633
REMARK  3 active torsions:
REMARK  status: ('A' for Active; 'I' for Inactive)
REMARK    1  A    between atoms: C_5  and  C_6 
REMARK    2  A    between atoms: C_6  and  N_7 
REMARK    3  A    between atoms: C_11  and  C_12 
ROOT
HETATM    1  N   UNL     1       6.952  27.873  57.340  1.00  0.00    -0.066 N 
HETATM    2  H   UNL     1       6.604  27.881  58.306  1.00  0.00     0.280 HD
HETATM    3  C   UNL     1       5.794  27.503  56.439  1.00  0.00     0.236 C 
HETATM    4  C   UNL     1       5.249  26.147  56.862  1.00  0.00     0.037 C 
HETATM    5  C   UNL     1       6.315  25.043  56.789  1.00  0.00     0.024 C 
HETATM    6  C   UNL     1       7.541  25.465  57.614  1.00  0.00     0.037 C 
HETATM    7  C   UNL     1       8.062  26.855  57.267  1.00  0.00     0.236 C 
ENDROOT
BRANCH   1   8
HETATM    8  C   UNL     1       7.475  29.268  57.063  1.00  0.00     0.293 C 
BRANCH   8   9
HETATM    9  C   UNL     1       7.627  30.089  58.281  1.00  0.00     0.061 A 
HETATM   10  N   UNL     1       6.724  31.062  58.689  1.00  0.00    -0.307 N 
HETATM   11  C   UNL     1       7.229  31.601  59.871  1.00  0.00     0.139 A 
HETATM   12  C   UNL     1       5.530  31.493  58.112  1.00  0.00     0.099 A 
HETATM   13  C   UNL     1       6.481  32.639  60.527  1.00  0.00    -0.016 A 
HETATM   14  N   UNL     1       8.376  31.042  60.197  1.00  0.00    -0.240 NA
HETATM   15  C   UNL     1       6.948  33.285  61.806  1.00  0.00     0.052 C 
HETATM   16  C   UNL     1       5.323  33.040  59.950  1.00  0.00     0.012 A 
HETATM   17  C   UNL     1       4.825  32.464  58.713  1.00  0.00     0.018 A 
HETATM   18  C   UNL     1       8.645  30.140  59.214  1.00  0.00     0.146 A 
ENDBRANCH   8   9
ENDBRANCH   1   8
BRANCH   5  19
HETATM   19  C   UNL     1       6.618  24.634  55.364  1.00  0.00    -0.024 A 
HETATM   20  C   UNL     1       7.170  23.365  54.962  1.00  0.00     0.018 A 
HETATM   21  C   UNL     1       7.286  23.380  53.577  1.00  0.00     0.138 A 
HETATM   22  C   UNL     1       7.593  22.193  55.616  1.00  0.00     0.017 A 
HETATM   23  N   UNL     1       7.730  22.399  52.774  1.00  0.00    -0.242 NA
HETATM   24  N   UNL     1       6.882  24.603  53.133  1.00  0.00    -0.350 N 
HETATM   25  C   UNL     1       8.115  21.295  53.452  1.00  0.00     0.119 A 
HETATM   26  C   UNL     1       8.073  21.142  54.831  1.00  0.00     0.020 A 
HETATM   27  H   UNL     1       6.911  24.875  52.161  1.00  0.00     0.166 HD
HETATM   28  C   UNL     1       6.485  25.376  54.198  1.00  0.00     0.098 A 
ENDBRANCH   5  19
TORSDOF 3
ENDMDL
MODEL 8
REMARK VINA RESULT:      -9.1      1.900      3.424
REMARK  3 active torsions:
REMARK  status: ('A' for Active; 'I' for Inactive)
REMARK    1  A    between atoms: C_5  and  C_6 
REMARK    2  A    between atoms: C_6  and  N_7 
REMARK    3  A    between atoms: C_11  and  C_12 
ROOT
HETATM    1  N   UNL     1       5.792  27.155  54.250  1.00  0.00    -0.066 N 
HETATM    2  H   UNL     1       5.507  27.578  53.359  1.00  0.00     0.280 HD
HETATM    3  C   UNL     1       7.304  27.107  54.272  1.00  0.00     0.236 C 
HETATM    4  C   UNL     1       7.793  26.304  53.077  1.00  0.00     0.037 C 
HETATM    5  C   UNL     1       7.244  24.868  53.077  1.00  0.00     0.024 C 
HETATM    6  C   UNL     1       5.711  24.910  53.167  1.00  0.00     0.037 C 
HETATM    7  C   UNL     1       5.189  25.775  54.309  1.00  0.00     0.236 C 
ENDROOT
BRANCH   1   8
HETATM    8  C   UNL     1       5.228  28.042  55.342  1.00  0.00     0.293 C 
BRANCH   8   9
HETATM    9  C   UNL     1       6.184  28.304  56.437  1.00  0.00     0.061 A 
HETATM   10  N   UNL     1       6.299  29.516  57.103  1.00  0.00    -0.307 N 
HETATM   11  C   UNL     1       7.307  29.351  58.053  1.00  0.00     0.139 A 
HETATM   12  C   UNL     1       5.606  30.714  56.938  1.00  0.00     0.099 A 
HETATM   13  C   UNL     1       7.636  30.463  58.904  1.00  0.00    -0.016 A 
HETATM   14  N   UNL     1       7.820  28.140  57.997  1.00  0.00    -0.240 NA
HETATM   15  C   UNL     1       8.711  30.381  59.957  1.00  0.00     0.052 C 
HETATM   16  C   UNL     1       6.947  31.615  58.727  1.00  0.00     0.012 A 
HETATM   17  C   UNL     1       5.907  31.760  57.724  1.00  0.00     0.018 A 
HETATM   18  C   UNL     1       7.163  27.502  56.990  1.00  0.00     0.146 A 
ENDBRANCH   8   9
ENDBRANCH   1   8
BRANCH   5  19
HETATM   19  C   UNL     1       7.918  23.998  54.116  1.00  0.00    -0.024 A 
HETATM   20  C   UNL     1       8.145  22.580  53.993  1.00  0.00     0.018 A 
HETATM   21  C   UNL     1       8.795  22.161  55.147  1.00  0.00     0.138 A 
HETATM   22  C   UNL     1       7.870  21.591  53.031  1.00  0.00     0.017 A 
HETATM   23  N   UNL     1       9.223  20.924  55.451  1.00  0.00    -0.242 NA
HETATM   24  N   UNL     1       8.926  23.236  55.973  1.00  0.00    -0.350 N 
HETATM   25  C   UNL     1       8.941  20.016  54.491  1.00  0.00     0.119 A 
HETATM   26  C   UNL     1       8.284  20.284  53.298  1.00  0.00     0.020 A 
HETATM   27  H   UNL     1       9.333  23.178  56.896  1.00  0.00     0.166 HD
HETATM   28  C   UNL     1       8.393  24.351  55.371  1.00  0.00     0.098 A 
ENDBRANCH   5  19
TORSDOF 3
ENDMDL
MODEL 9
REMARK VINA RESULT:      -9.1      1.521      9.006
REMARK  3 active torsions:
REMARK  status: ('A' for Active; 'I' for Inactive)
REMARK    1  A    between atoms: C_5  and  C_6 
REMARK    2  A    between atoms: C_6  and  N_7 
REMARK    3  A    between atoms: C_11  and  C_12 
ROOT
HETATM    1  N   UNL     1       6.972  26.977  56.744  1.00  0.00    -0.066 N 
HETATM    2  H   UNL     1       7.077  26.890  55.726  1.00  0.00     0.280 HD
HETATM    3  C   UNL     1       5.916  28.028  57.008  1.00  0.00     0.236 C 
HETATM    4  C   UNL     1       6.347  29.337  56.363  1.00  0.00     0.037 C 
HETATM    5  C   UNL     1       7.697  29.835  56.903  1.00  0.00     0.024 C 
HETATM    6  C   UNL     1       8.749  28.727  56.738  1.00  0.00     0.037 C 
HETATM    7  C   UNL     1       8.313  27.380  57.304  1.00  0.00     0.236 C 
ENDROOT
BRANCH   1   8
HETATM    8  C   UNL     1       6.562  25.608  57.249  1.00  0.00     0.293 C 
BRANCH   8   9
HETATM    9  C   UNL     1       7.309  24.502  56.618  1.00  0.00     0.061 A 
HETATM   10  N   UNL     1       7.202  24.147  55.280  1.00  0.00    -0.307 N 
HETATM   11  C   UNL     1       8.060  23.064  55.087  1.00  0.00     0.139 A 
HETATM   12  C   UNL     1       6.428  24.689  54.255  1.00  0.00     0.099 A 
HETATM   13  C   UNL     1       8.156  22.491  53.773  1.00  0.00    -0.016 A 
HETATM   14  N   UNL     1       8.661  22.729  56.210  1.00  0.00    -0.240 NA
HETATM   15  C   UNL     1       9.053  21.319  53.468  1.00  0.00     0.052 C 
HETATM   16  C   UNL     1       7.398  23.036  52.792  1.00  0.00     0.012 A 
HETATM   17  C   UNL     1       6.507  24.159  53.024  1.00  0.00     0.018 A 
HETATM   18  C   UNL     1       8.184  23.580  57.158  1.00  0.00     0.146 A 
ENDBRANCH   8   9
ENDBRANCH   1   8
BRANCH   5  19
HETATM   19  C   UNL     1       7.581  30.398  58.303  1.00  0.00    -0.024 A 
HETATM   20  C   UNL     1       6.666  31.435  58.709  1.00  0.00     0.018 A 
HETATM   21  C   UNL     1       6.864  31.658  60.066  1.00  0.00     0.138 A 
HETATM   22  C   UNL     1       5.684  32.222  58.079  1.00  0.00     0.017 A 
HETATM   23  N   UNL     1       6.213  32.519  60.866  1.00  0.00    -0.242 NA
HETATM   24  N   UNL     1       7.878  30.850  60.483  1.00  0.00    -0.350 N 
HETATM   25  C   UNL     1       5.277  33.242  60.213  1.00  0.00     0.119 A 
HETATM   26  C   UNL     1       4.981  33.141  58.860  1.00  0.00     0.020 A 
HETATM   27  H   UNL     1       8.239  30.857  61.427  1.00  0.00     0.166 HD
HETATM   28  C   UNL     1       8.330  30.090  59.430  1.00  0.00     0.098 A 
ENDBRANCH   5  19
TORSDOF 3
ENDMDL
MODEL 10
REMARK VINA RESULT:      -8.9      5.828      8.300
REMARK  3 active torsions:
REMARK  status: ('A' for Active; 'I' for Inactive)
REMARK    1  A    between atoms: C_5  and  C_6 
REMARK    2  A    between atoms: C_6  and  N_7 
REMARK    3  A    between atoms: C_11  and  C_12 
ROOT
HETATM    1  N   UNL     1       5.488  26.478  53.325  1.00  0.00    -0.066 N 
HETATM    2  H   UNL     1       5.657  27.369  53.807  1.00  0.00     0.280 HD
HETATM    3  C   UNL     1       5.294  25.414  54.383  1.00  0.00     0.236 C 
HETATM    4  C   UNL     1       6.532  25.360  55.265  1.00  0.00     0.037 C 
HETATM    5  C   UNL     1       7.805  25.046  54.463  1.00  0.00     0.024 C 
HETATM    6  C   UNL     1       7.947  26.059  53.317  1.00  0.00     0.037 C 
HETATM    7  C   UNL     1       6.691  26.194  52.462  1.00  0.00     0.236 C 
ENDROOT
BRANCH   1   8
HETATM    8  C   UNL     1       4.247  26.681  52.478  1.00  0.00     0.293 C 
BRANCH   8   9
HETATM    9  C   UNL     1       4.363  27.807  51.529  1.00  0.00     0.061 A 
HETATM   10  N   UNL     1       4.482  27.663  50.154  1.00  0.00    -0.307 N 
HETATM   11  C   UNL     1       4.568  28.952  49.627  1.00  0.00     0.139 A 
HETATM   12  C   UNL     1       4.519  26.519  49.359  1.00  0.00     0.099 A 
HETATM   13  C   UNL     1       4.691  29.104  48.203  1.00  0.00    -0.016 A 
HETATM   14  N   UNL     1       4.530  29.859  50.581  1.00  0.00    -0.240 NA
HETATM   15  C   UNL     1       4.793  30.455  47.542  1.00  0.00     0.052 C 
HETATM   16  C   UNL     1       4.722  27.978  47.450  1.00  0.00     0.012 A 
HETATM   17  C   UNL     1       4.637  26.648  48.028  1.00  0.00     0.018 A 
HETATM   18  C   UNL     1       4.439  29.169  51.750  1.00  0.00     0.146 A 
ENDBRANCH   8   9
ENDBRANCH   1   8
BRANCH   5  19
HETATM   19  C   UNL     1       7.870  23.594  54.040  1.00  0.00    -0.024 A 
HETATM   20  C   UNL     1       8.131  22.482  54.919  1.00  0.00     0.018 A 
HETATM   21  C   UNL     1       8.097  21.326  54.150  1.00  0.00     0.138 A 
HETATM   22  C   UNL     1       8.399  22.318  56.291  1.00  0.00     0.017 A 
HETATM   23  N   UNL     1       8.262  20.056  54.558  1.00  0.00    -0.242 NA
HETATM   24  N   UNL     1       7.879  21.686  52.854  1.00  0.00    -0.350 N 
HETATM   25  C   UNL     1       8.508  19.955  55.883  1.00  0.00     0.119 A 
HETATM   26  C   UNL     1       8.588  21.020  56.770  1.00  0.00     0.020 A 
HETATM   27  H   UNL     1       7.852  21.023  52.093  1.00  0.00     0.166 HD
HETATM   28  C   UNL     1       7.750  23.052  52.768  1.00  0.00     0.098 A 
ENDBRANCH   5  19
TORSDOF 3
ENDMDL
