MODEL 1
REMARK VINA RESULT:     -10.1      0.000      0.000
REMARK  10 active torsions:
REMARK  status: ('A' for Active; 'I' for Inactive)
REMARK    1  A    between atoms: C_9  and  S_10 
REMARK    2  A    between atoms: S_10  and  C_11 
REMARK    3  A    between atoms: C_11  and  C_12 
REMARK       I    between atoms: C_12  and  N_13 
REMARK    4  A    between atoms: N_13  and  C_14 
REMARK    5  A    between atoms: C_14  and  C_15 
REMARK    6  A    between atoms: C_15  and  C_16 
REMARK    7  A    between atoms: C_19  and  S_20 
REMARK    8  A    between atoms: S_20  and  N_21 
REMARK    9  A    between atoms: N_27  and  C_28 
REMARK   10  A    between atoms: C_35  and  N_36 
ROOT
HETATM    1  C   UNL     1       8.736  20.450  53.227  1.00  0.00     0.073 C 
HETATM    2  C   UNL     1       8.611  21.137  54.539  1.00  0.00     0.068 A 
HETATM    3  N   UNL     1       8.961  20.482  55.653  1.00  0.00    -0.177 NA
HETATM    4  N   UNL     1       8.699  21.347  56.643  1.00  0.00    -0.260 N 
HETATM    5  H   UNL     1       8.878  21.066  57.601  1.00  0.00     0.191 HD
HETATM    6  C   UNL     1       8.185  22.531  56.197  1.00  0.00     0.162 A 
HETATM    7  C   UNL     1       8.132  22.453  54.821  1.00  0.00     0.081 A 
HETATM    8  N   UNL     1       7.794  23.554  56.956  1.00  0.00    -0.204 NA
HETATM    9  C   UNL     1       7.305  24.575  56.217  1.00  0.00     0.177 A 
HETATM   10  N   UNL     1       7.227  24.590  54.856  1.00  0.00    -0.276 N 
HETATM   11  C   UNL     1       7.658  23.552  54.086  1.00  0.00     0.124 A 
ENDROOT
BRANCH   9  12
HETATM   12  S   UNL     1       6.581  25.881  57.227  1.00  0.00    -0.082 SA
BRANCH  12  13
HETATM   13  C   UNL     1       8.018  26.996  57.349  1.00  0.00     0.185 C 
BRANCH  13  14
HETATM   14  C   UNL     1       7.567  28.440  57.517  1.00  0.00     0.227 C 
HETATM   15  N   UNL     1       8.042  29.048  58.659  1.00  0.00    -0.360 N 
HETATM   16  H   UNL     1       8.808  28.606  59.156  1.00  0.00     0.162 HD
HETATM   17  O   UNL     1       6.832  28.999  56.703  1.00  0.00    -0.273 OA
BRANCH  15  18
HETATM   18  C   UNL     1       7.817  30.459  58.935  1.00  0.00     0.127 C 
BRANCH  18  19
HETATM   19  C   UNL     1       8.757  30.974  60.027  1.00  0.00     0.058 C 
BRANCH  19  20
HETATM   20  C   UNL     1       8.011  31.636  61.158  1.00  0.00    -0.057 A 
HETATM   21  C   UNL     1       6.668  32.011  61.003  1.00  0.00     0.009 A 
HETATM   22  C   UNL     1       5.986  32.642  62.046  1.00  0.00     0.025 A 
HETATM   23  C   UNL     1       6.646  32.892  63.251  1.00  0.00     0.074 A 
HETATM   24  C   UNL     1       7.987  32.536  63.415  1.00  0.00     0.025 A 
HETATM   25  C   UNL     1       8.664  31.906  62.370  1.00  0.00     0.009 A 
BRANCH  23  26
HETATM   26  S   UNL     1       5.803  33.742  64.555  1.00  0.00     0.239 S 
HETATM   27  O   UNL     1       5.801  35.157  64.270  1.00  0.00    -0.206 OA
HETATM   28  O   UNL     1       4.598  33.015  64.884  1.00  0.00    -0.206 OA
BRANCH  26  29
HETATM   29  N   UNL     1       6.849  33.524  65.848  1.00  0.00    -0.225 NA
HETATM   30  H   UNL     1       7.007  32.527  66.002  1.00  0.00     0.136 HD
HETATM   31  H   UNL     1       7.709  34.051  65.692  1.00  0.00     0.136 HD
ENDBRANCH  26  29
ENDBRANCH  23  26
ENDBRANCH  19  20
ENDBRANCH  18  19
ENDBRANCH  15  18
ENDBRANCH  13  14
ENDBRANCH  12  13
ENDBRANCH   9  12
BRANCH  10  32
HETATM   32  C   UNL     1       6.629  25.718  54.201  1.00  0.00     0.043 A 
HETATM   33  C   UNL     1       7.425  26.817  53.873  1.00  0.00     0.031 A 
HETATM   34  C   UNL     1       6.838  27.894  53.209  1.00  0.00     0.021 A 
HETATM   35  C   UNL     1       5.482  27.850  52.873  1.00  0.00     0.011 A 
HETATM   36 BR   UNL     1       4.697  29.313  51.971  1.00  0.00    -0.051 Br
HETATM   37  C   UNL     1       4.702  26.734  53.188  1.00  0.00     0.021 A 
HETATM   38  C   UNL     1       5.276  25.652  53.856  1.00  0.00     0.031 A 
ENDBRANCH  10  32
BRANCH  11  39
HETATM   39  N   UNL     1       7.599  23.563  52.695  1.00  0.00    -0.384 N 
HETATM   40  H   UNL     1       8.093  24.273  52.166  1.00  0.00     0.157 HD
HETATM   41  H   UNL     1       7.546  22.667  52.219  1.00  0.00     0.157 HD
ENDBRANCH  11  39
TORSDOF 10
ENDMDL
MODEL 2
REMARK VINA RESULT:      -9.8      2.869      5.033
REMARK  10 active torsions:
REMARK  status: ('A' for Active; 'I' for Inactive)
REMARK    1  A    between atoms: C_9  and  S_10 
REMARK    2  A    between atoms: S_10  and  C_11 
REMARK    3  A    between atoms: C_11  and  C_12 
REMARK       I    between atoms: C_12  and  N_13 
REMARK    4  A    between atoms: N_13  and  C_14 
REMARK    5  A    between atoms: C_14  and  C_15 
REMARK    6  A    between atoms: C_15  and  C_16 
REMARK    7  A    between atoms: C_19  and  S_20 
REMARK    8  A    between atoms: S_20  and  N_21 
REMARK    9  A    between atoms: N_27  and  C_28 
REMARK   10  A    between atoms: C_35  and  N_36 
ROOT
HETATM    1  C   UNL     1       2.716  28.994  51.776  1.00  0.00     0.073 C 
HETATM    2  C   UNL     1       3.570  29.326  52.947  1.00  0.00     0.068 A 
HETATM    3  N   UNL     1       3.477  30.542  53.496  1.00  0.00    -0.177 NA
HETATM    4  N   UNL     1       4.384  30.531  54.484  1.00  0.00    -0.260 N 
HETATM    5  H   UNL     1       4.505  31.364  55.049  1.00  0.00     0.191 HD
HETATM    6  C   UNL     1       5.059  29.348  54.576  1.00  0.00     0.162 A 
HETATM    7  C   UNL     1       4.544  28.514  53.605  1.00  0.00     0.081 A 
HETATM    8  N   UNL     1       6.041  29.068  55.432  1.00  0.00    -0.204 NA
HETATM    9  C   UNL     1       6.526  27.818  55.256  1.00  0.00     0.177 A 
HETATM   10  N   UNL     1       6.070  26.924  54.333  1.00  0.00    -0.276 N 
HETATM   11  C   UNL     1       5.044  27.207  53.482  1.00  0.00     0.124 A 
ENDROOT
BRANCH   9  12
HETATM   12  S   UNL     1       7.988  27.491  56.258  1.00  0.00    -0.082 SA
BRANCH  12  13
HETATM   13  C   UNL     1       7.418  28.174  57.849  1.00  0.00     0.185 C 
BRANCH  13  14
HETATM   14  C   UNL     1       8.023  29.549  58.092  1.00  0.00     0.227 C 
HETATM   15  N   UNL     1       7.261  30.364  58.902  1.00  0.00    -0.360 N 
HETATM   16  H   UNL     1       6.517  29.941  59.446  1.00  0.00     0.162 HD
HETATM   17  O   UNL     1       9.095  29.894  57.594  1.00  0.00    -0.273 OA
BRANCH  15  18
HETATM   18  C   UNL     1       7.728  31.670  59.344  1.00  0.00     0.127 C 
BRANCH  18  19
HETATM   19  C   UNL     1       8.511  31.571  60.655  1.00  0.00     0.058 C 
BRANCH  19  20
HETATM   20  C   UNL     1       7.777  32.208  61.808  1.00  0.00    -0.057 A 
HETATM   21  C   UNL     1       8.425  32.424  63.033  1.00  0.00     0.009 A 
HETATM   22  C   UNL     1       7.737  32.997  64.106  1.00  0.00     0.025 A 
HETATM   23  C   UNL     1       6.397  33.360  63.950  1.00  0.00     0.074 A 
HETATM   24  C   UNL     1       5.735  33.139  62.740  1.00  0.00     0.025 A 
HETATM   25  C   UNL     1       6.428  32.567  61.672  1.00  0.00     0.009 A 
BRANCH  23  26
HETATM   26  S   UNL     1       5.506  34.033  65.323  1.00  0.00     0.239 S 
HETATM   27  O   UNL     1       4.146  33.550  65.283  1.00  0.00    -0.206 OA
HETATM   28  O   UNL     1       6.328  33.940  66.507  1.00  0.00    -0.206 OA
BRANCH  26  29
HETATM   29  N   UNL     1       5.436  35.663  64.929  1.00  0.00    -0.225 NA
HETATM   30  H   UNL     1       6.267  36.140  65.280  1.00  0.00     0.136 HD
HETATM   31  H   UNL     1       5.301  35.772  63.923  1.00  0.00     0.136 HD
ENDBRANCH  26  29
ENDBRANCH  23  26
ENDBRANCH  19  20
ENDBRANCH  18  19
ENDBRANCH  15  18
ENDBRANCH  13  14
ENDBRANCH  12  13
ENDBRANCH   9  12
BRANCH  10  32
HETATM   32  C   UNL     1       6.716  25.649  54.214  1.00  0.00     0.043 A 
HETATM   33  C   UNL     1       6.446  24.656  55.158  1.00  0.00     0.031 A 
HETATM   34  C   UNL     1       7.058  23.410  55.013  1.00  0.00     0.021 A 
HETATM   35  C   UNL     1       7.909  23.175  53.930  1.00  0.00     0.011 A 
HETATM   36 BR   UNL     1       8.732  21.484  53.741  1.00  0.00    -0.051 Br
HETATM   37  C   UNL     1       8.154  24.171  52.980  1.00  0.00     0.021 A 
HETATM   38  C   UNL     1       7.552  25.422  53.116  1.00  0.00     0.031 A 
ENDBRANCH  10  32
BRANCH  11  39
HETATM   39  N   UNL     1       4.558  26.296  52.548  1.00  0.00    -0.384 N 
HETATM   40  H   UNL     1       5.055  25.431  52.368  1.00  0.00     0.157 HD
HETATM   41  H   UNL     1       3.550  26.213  52.453  1.00  0.00     0.157 HD
ENDBRANCH  11  39
TORSDOF 10
ENDMDL
MODEL 3
REMARK VINA RESULT:      -9.6      1.684      2.260
REMARK  10 active torsions:
REMARK  status: ('A' for Active; 'I' for Inactive)
REMARK    1  A    between atoms: C_9  and  S_10 
REMARK    2  A    between atoms: S_10  and  C_11 
REMARK    3  A    between atoms: C_11  and  C_12 
REMARK       I    between atoms: C_12  and  N_13 
REMARK    4  A    between atoms: N_13  and  C_14 
REMARK    5  A    between atoms: C_14  and  C_15 
REMARK    6  A    between atoms: C_15  and  C_16 
REMARK    7  A    between atoms: C_19  and  S_20 
REMARK    8  A    between atoms: S_20  and  N_21 
REMARK    9  A    between atoms: N_27  and  C_28 
REMARK   10  A    between atoms: C_35  and  N_36 
ROOT
HETATM    1  C   UNL     1       7.601  21.986  54.959  1.00  0.00     0.073 C 
HETATM    2  C   UNL     1       7.861  23.153  55.842  1.00  0.00     0.068 A 
HETATM    3  N   UNL     1       8.509  22.963  56.998  1.00  0.00    -0.177 NA
HETATM    4  N   UNL     1       8.548  24.179  57.560  1.00  0.00    -0.260 N 
HETATM    5  H   UNL     1       8.991  24.288  58.466  1.00  0.00     0.191 HD
HETATM    6  C   UNL     1       7.939  25.138  56.803  1.00  0.00     0.162 A 
HETATM    7  C   UNL     1       7.494  24.520  55.653  1.00  0.00     0.081 A 
HETATM    8  N   UNL     1       7.790  26.421  57.131  1.00  0.00    -0.204 NA
HETATM    9  C   UNL     1       7.119  27.112  56.182  1.00  0.00     0.177 A 
HETATM   10  N   UNL     1       6.656  26.588  55.012  1.00  0.00    -0.276 N 
HETATM   11  C   UNL     1       6.839  25.281  54.670  1.00  0.00     0.124 A 
ENDROOT
BRANCH   9  12
HETATM   12  S   UNL     1       6.725  28.795  56.694  1.00  0.00    -0.082 SA
BRANCH  12  13
HETATM   13  C   UNL     1       7.780  28.911  58.176  1.00  0.00     0.185 C 
BRANCH  13  14
HETATM   14  C   UNL     1       7.693  30.301  58.791  1.00  0.00     0.227 C 
HETATM   15  N   UNL     1       8.375  30.433  59.981  1.00  0.00    -0.360 N 
HETATM   16  H   UNL     1       9.047  29.716  60.232  1.00  0.00     0.162 HD
HETATM   17  O   UNL     1       7.057  31.215  58.265  1.00  0.00    -0.273 OA
BRANCH  15  18
HETATM   18  C   UNL     1       8.507  31.714  60.659  1.00  0.00     0.127 C 
BRANCH  18  19
HETATM   19  C   UNL     1       8.753  31.532  62.159  1.00  0.00     0.058 C 
BRANCH  19  20
HETATM   20  C   UNL     1       7.668  32.161  62.996  1.00  0.00    -0.057 A 
HETATM   21  C   UNL     1       6.317  31.887  62.736  1.00  0.00     0.009 A 
HETATM   22  C   UNL     1       5.314  32.487  63.501  1.00  0.00     0.025 A 
HETATM   23  C   UNL     1       5.663  33.359  64.534  1.00  0.00     0.074 A 
HETATM   24  C   UNL     1       7.003  33.652  64.796  1.00  0.00     0.025 A 
HETATM   25  C   UNL     1       8.002  33.050  64.030  1.00  0.00     0.009 A 
BRANCH  23  26
HETATM   26  S   UNL     1       4.394  34.165  65.469  1.00  0.00     0.239 S 
HETATM   27  O   UNL     1       3.123  33.951  64.818  1.00  0.00    -0.206 OA
HETATM   28  O   UNL     1       4.603  33.895  66.872  1.00  0.00    -0.206 OA
BRANCH  26  29
HETATM   29  N   UNL     1       4.769  35.785  65.243  1.00  0.00    -0.225 NA
HETATM   30  H   UNL     1       5.441  35.882  64.481  1.00  0.00     0.136 HD
HETATM   31  H   UNL     1       3.914  36.323  65.101  1.00  0.00     0.136 HD
ENDBRANCH  26  29
ENDBRANCH  23  26
ENDBRANCH  19  20
ENDBRANCH  18  19
ENDBRANCH  15  18
ENDBRANCH  13  14
ENDBRANCH  12  13
ENDBRANCH   9  12
BRANCH  10  32
HETATM   32  C   UNL     1       5.905  27.422  54.118  1.00  0.00     0.043 A 
HETATM   33  C   UNL     1       6.549  27.999  53.022  1.00  0.00     0.031 A 
HETATM   34  C   UNL     1       5.801  28.784  52.143  1.00  0.00     0.021 A 
HETATM   35  C   UNL     1       4.433  28.966  52.364  1.00  0.00     0.011 A 
HETATM   36 BR   UNL     1       3.429  30.029  51.168  1.00  0.00    -0.051 Br
HETATM   37  C   UNL     1       3.797  28.365  53.454  1.00  0.00     0.021 A 
HETATM   38  C   UNL     1       4.534  27.581  54.342  1.00  0.00     0.031 A 
ENDBRANCH  10  32
BRANCH  11  39
HETATM   39  N   UNL     1       6.386  24.739  53.471  1.00  0.00    -0.384 N 
HETATM   40  H   UNL     1       5.815  23.901  53.470  1.00  0.00     0.157 HD
HETATM   41  H   UNL     1       6.163  25.383  52.718  1.00  0.00     0.157 HD
ENDBRANCH  11  39
TORSDOF 10
ENDMDL
MODEL 4
REMARK VINA RESULT:      -9.6      3.484      5.593
REMARK  10 active torsions:
REMARK  status: ('A' for Active; 'I' for Inactive)
REMARK    1  A    between atoms: C_9  and  S_10 
REMARK    2  A    between atoms: S_10  and  C_11 
REMARK    3  A    between atoms: C_11  and  C_12 
REMARK       I    between atoms: C_12  and  N_13 
REMARK    4  A    between atoms: N_13  and  C_14 
REMARK    5  A    between atoms: C_14  and  C_15 
REMARK    6  A    between atoms: C_15  and  C_16 
REMARK    7  A    between atoms: C_19  and  S_20 
REMARK    8  A    between atoms: S_20  and  N_21 
REMARK    9  A    between atoms: N_27  and  C_28 
REMARK   10  A    between atoms: C_35  and  N_36 
ROOT
HETATM    1  C   UNL     1       2.477  31.698  55.266  1.00  0.00     0.073 C 
HETATM    2  C   UNL     1       3.599  31.518  56.224  1.00  0.00     0.068 A 
HETATM    3  N   UNL     1       3.792  32.435  57.180  1.00  0.00    -0.177 NA
HETATM    4  N   UNL     1       4.880  32.005  57.836  1.00  0.00    -0.260 N 
HETATM    5  H   UNL     1       5.232  32.553  58.615  1.00  0.00     0.191 HD
HETATM    6  C   UNL     1       5.392  30.848  57.324  1.00  0.00     0.162 A 
HETATM    7  C   UNL     1       4.571  30.473  56.281  1.00  0.00     0.081 A 
HETATM    8  N   UNL     1       6.487  30.218  57.747  1.00  0.00    -0.204 NA
HETATM    9  C   UNL     1       6.748  29.110  57.017  1.00  0.00     0.177 A 
HETATM   10  N   UNL     1       5.987  28.658  55.980  1.00  0.00    -0.276 N 
HETATM   11  C   UNL     1       4.851  29.291  55.574  1.00  0.00     0.124 A 
ENDROOT
BRANCH   9  12
HETATM   12  S   UNL     1       8.332  28.358  57.434  1.00  0.00    -0.082 SA
BRANCH  12  13
HETATM   13  C   UNL     1       9.445  29.491  56.537  1.00  0.00     0.185 C 
BRANCH  13  14
HETATM   14  C   UNL     1      10.128  30.451  57.502  1.00  0.00     0.227 C 
HETATM   15  N   UNL     1       9.269  31.055  58.396  1.00  0.00    -0.360 N 
HETATM   16  H   UNL     1       8.339  30.665  58.508  1.00  0.00     0.162 HD
HETATM   17  O   UNL     1      11.340  30.667  57.469  1.00  0.00    -0.273 OA
BRANCH  15  18
HETATM   18  C   UNL     1       9.749  31.912  59.470  1.00  0.00     0.127 C 
BRANCH  18  19
HETATM   19  C   UNL     1       9.471  31.296  60.844  1.00  0.00     0.058 C 
BRANCH  19  20
HETATM   20  C   UNL     1       8.359  32.006  61.574  1.00  0.00    -0.057 A 
HETATM   21  C   UNL     1       7.268  32.536  60.869  1.00  0.00     0.009 A 
HETATM   22  C   UNL     1       6.249  33.211  61.545  1.00  0.00     0.025 A 
HETATM   23  C   UNL     1       6.318  33.350  62.933  1.00  0.00     0.074 A 
HETATM   24  C   UNL     1       7.404  32.840  63.647  1.00  0.00     0.025 A 
HETATM   25  C   UNL     1       8.419  32.166  62.966  1.00  0.00     0.009 A 
BRANCH  23  26
HETATM   26  S   UNL     1       5.058  34.253  63.788  1.00  0.00     0.239 S 
HETATM   27  O   UNL     1       5.638  35.448  64.354  1.00  0.00    -0.206 OA
HETATM   28  O   UNL     1       3.866  34.280  62.973  1.00  0.00    -0.206 OA
BRANCH  26  29
HETATM   29  N   UNL     1       4.717  33.239  65.081  1.00  0.00    -0.225 NA
HETATM   30  H   UNL     1       5.532  32.660  65.291  1.00  0.00     0.136 HD
HETATM   31  H   UNL     1       4.394  33.788  65.878  1.00  0.00     0.136 HD
ENDBRANCH  26  29
ENDBRANCH  23  26
ENDBRANCH  19  20
ENDBRANCH  18  19
ENDBRANCH  15  18
ENDBRANCH  13  14
ENDBRANCH  12  13
ENDBRANCH   9  12
BRANCH  10  32
HETATM   32  C   UNL     1       6.413  27.498  55.252  1.00  0.00     0.043 A 
HETATM   33  C   UNL     1       7.236  27.658  54.135  1.00  0.00     0.031 A 
HETATM   34  C   UNL     1       7.668  26.519  53.454  1.00  0.00     0.021 A 
HETATM   35  C   UNL     1       7.287  25.252  53.903  1.00  0.00     0.011 A 
HETATM   36 BR   UNL     1       7.878  23.717  52.974  1.00  0.00    -0.051 Br
HETATM   37  C   UNL     1       6.479  25.106  55.035  1.00  0.00     0.021 A 
HETATM   38  C   UNL     1       6.037  26.236  55.722  1.00  0.00     0.031 A 
ENDBRANCH  10  32
BRANCH  11  39
HETATM   39  N   UNL     1       4.056  28.830  54.528  1.00  0.00    -0.384 N 
HETATM   40  H   UNL     1       3.717  27.875  54.523  1.00  0.00     0.157 HD
HETATM   41  H   UNL     1       3.416  29.490  54.098  1.00  0.00     0.157 HD
ENDBRANCH  11  39
TORSDOF 10
ENDMDL
MODEL 5
REMARK VINA RESULT:      -9.5      1.148      1.679
REMARK  10 active torsions:
REMARK  status: ('A' for Active; 'I' for Inactive)
REMARK    1  A    between atoms: C_9  and  S_10 
REMARK    2  A    between atoms: S_10  and  C_11 
REMARK    3  A    between atoms: C_11  and  C_12 
REMARK       I    between atoms: C_12  and  N_13 
REMARK    4  A    between atoms: N_13  and  C_14 
REMARK    5  A    between atoms: C_14  and  C_15 
REMARK    6  A    between atoms: C_15  and  C_16 
REMARK    7  A    between atoms: C_19  and  S_20 
REMARK    8  A    between atoms: S_20  and  N_21 
REMARK    9  A    between atoms: N_27  and  C_28 
REMARK   10  A    between atoms: C_35  and  N_36 
ROOT
HETATM    1  C   UNL     1       7.759  21.269  53.417  1.00  0.00     0.073 C 
HETATM    2  C   UNL     1       8.051  22.231  54.512  1.00  0.00     0.068 A 
HETATM    3  N   UNL     1       8.741  21.812  55.580  1.00  0.00    -0.177 NA
HETATM    4  N   UNL     1       8.800  22.887  56.379  1.00  0.00    -0.260 N 
HETATM    5  H   UNL     1       9.276  22.810  57.272  1.00  0.00     0.191 HD
HETATM    6  C   UNL     1       8.163  23.977  55.859  1.00  0.00     0.162 A 
HETATM    7  C   UNL     1       7.678  23.606  54.622  1.00  0.00     0.081 A 
HETATM    8  N   UNL     1       8.027  25.163  56.449  1.00  0.00    -0.204 NA
HETATM    9  C   UNL     1       7.321  26.030  55.687  1.00  0.00     0.177 A 
HETATM   10  N   UNL     1       6.816  25.754  54.451  1.00  0.00    -0.276 N 
HETATM   11  C   UNL     1       6.987  24.547  53.842  1.00  0.00     0.124 A 
ENDROOT
BRANCH   9  12
HETATM   12  S   UNL     1       6.946  27.568  56.548  1.00  0.00    -0.082 SA
BRANCH  12  13
HETATM   13  C   UNL     1       8.571  27.888  57.310  1.00  0.00     0.185 C 
BRANCH  13  14
HETATM   14  C   UNL     1       8.769  29.378  57.550  1.00  0.00     0.227 C 
HETATM   15  N   UNL     1       7.858  29.933  58.422  1.00  0.00    -0.360 N 
HETATM   16  H   UNL     1       7.302  29.309  58.998  1.00  0.00     0.162 HD
HETATM   17  O   UNL     1       9.663  30.021  56.999  1.00  0.00    -0.273 OA
BRANCH  15  18
HETATM   18  C   UNL     1       7.955  31.315  58.867  1.00  0.00     0.127 C 
BRANCH  18  19
HETATM   19  C   UNL     1       8.820  31.439  60.124  1.00  0.00     0.058 C 
BRANCH  19  20
HETATM   20  C   UNL     1       8.084  32.103  61.261  1.00  0.00    -0.057 A 
HETATM   21  C   UNL     1       8.556  31.993  62.577  1.00  0.00     0.009 A 
HETATM   22  C   UNL     1       7.861  32.593  63.630  1.00  0.00     0.025 A 
HETATM   23  C   UNL     1       6.693  33.310  63.365  1.00  0.00     0.074 A 
HETATM   24  C   UNL     1       6.203  33.417  62.061  1.00  0.00     0.025 A 
HETATM   25  C   UNL     1       6.902  32.817  61.013  1.00  0.00     0.009 A 
BRANCH  23  26
HETATM   26  S   UNL     1       5.779  34.024  64.702  1.00  0.00     0.239 S 
HETATM   27  O   UNL     1       5.488  35.403  64.390  1.00  0.00    -0.206 OA
HETATM   28  O   UNL     1       4.758  33.091  65.122  1.00  0.00    -0.206 OA
BRANCH  26  29
HETATM   29  N   UNL     1       6.921  34.051  65.931  1.00  0.00    -0.225 NA
HETATM   30  H   UNL     1       7.619  34.769  65.739  1.00  0.00     0.136 HD
HETATM   31  H   UNL     1       6.458  34.167  66.834  1.00  0.00     0.136 HD
ENDBRANCH  26  29
ENDBRANCH  23  26
ENDBRANCH  19  20
ENDBRANCH  18  19
ENDBRANCH  15  18
ENDBRANCH  13  14
ENDBRANCH  12  13
ENDBRANCH   9  12
BRANCH  10  32
HETATM   32  C   UNL     1       6.033  26.749  53.776  1.00  0.00     0.043 A 
HETATM   33  C   UNL     1       4.652  26.778  53.972  1.00  0.00     0.031 A 
HETATM   34  C   UNL     1       3.906  27.770  53.334  1.00  0.00     0.021 A 
HETATM   35  C   UNL     1       4.548  28.715  52.530  1.00  0.00     0.011 A 
HETATM   36 BR   UNL     1       3.530  30.055  51.671  1.00  0.00    -0.051 Br
HETATM   37  C   UNL     1       5.936  28.687  52.359  1.00  0.00     0.021 A 
HETATM   38  C   UNL     1       6.692  27.698  52.988  1.00  0.00     0.031 A 
ENDBRANCH  10  32
BRANCH  11  39
HETATM   39  N   UNL     1       6.491  24.260  52.573  1.00  0.00    -0.384 N 
HETATM   40  H   UNL     1       6.228  23.312  52.327  1.00  0.00     0.157 HD
HETATM   41  H   UNL     1       5.923  24.969  52.119  1.00  0.00     0.157 HD
ENDBRANCH  11  39
TORSDOF 10
ENDMDL
MODEL 6
REMARK VINA RESULT:      -9.1      6.690     10.800
REMARK  10 active torsions:
REMARK  status: ('A' for Active; 'I' for Inactive)
REMARK    1  A    between atoms: C_9  and  S_10 
REMARK    2  A    between atoms: S_10  and  C_11 
REMARK    3  A    between atoms: C_11  and  C_12 
REMARK       I    between atoms: C_12  and  N_13 
REMARK    4  A    between atoms: N_13  and  C_14 
REMARK    5  A    between atoms: C_14  and  C_15 
REMARK    6  A    between atoms: C_15  and  C_16 
REMARK    7  A    between atoms: C_19  and  S_20 
REMARK    8  A    between atoms: S_20  and  N_21 
REMARK    9  A    between atoms: N_27  and  C_28 
REMARK   10  A    between atoms: C_35  and  N_36 
ROOT
HETATM    1  C   UNL     1       8.762  20.305  56.536  1.00  0.00     0.073 C 
HETATM    2  C   UNL     1       8.470  20.857  55.187  1.00  0.00     0.068 A 
HETATM    3  N   UNL     1       8.720  20.105  54.109  1.00  0.00    -0.177 NA
HETATM    4  N   UNL     1       8.389  20.890  53.073  1.00  0.00    -0.260 N 
HETATM    5  H   UNL     1       8.503  20.533  52.130  1.00  0.00     0.191 HD
HETATM    6  C   UNL     1       7.945  22.122  53.457  1.00  0.00     0.162 A 
HETATM    7  C   UNL     1       7.954  22.142  54.836  1.00  0.00     0.081 A 
HETATM    8  N   UNL     1       7.589  23.117  52.645  1.00  0.00    -0.204 NA
HETATM    9  C   UNL     1       7.218  24.222  53.330  1.00  0.00     0.177 A 
HETATM   10  N   UNL     1       7.184  24.326  54.689  1.00  0.00    -0.276 N 
HETATM   11  C   UNL     1       7.520  23.293  55.513  1.00  0.00     0.124 A 
ENDROOT
BRANCH   9  12
HETATM   12  S   UNL     1       6.933  25.643  52.259  1.00  0.00    -0.082 SA
BRANCH  12  13
HETATM   13  C   UNL     1       5.184  25.351  51.835  1.00  0.00     0.185 C 
BRANCH  13  14
HETATM   14  C   UNL     1       4.748  26.261  50.695  1.00  0.00     0.227 C 
HETATM   15  N   UNL     1       4.485  27.558  51.080  1.00  0.00    -0.360 N 
HETATM   16  H   UNL     1       4.812  27.865  51.990  1.00  0.00     0.162 HD
HETATM   17  O   UNL     1       4.633  25.857  49.537  1.00  0.00    -0.273 OA
BRANCH  15  18
HETATM   18  C   UNL     1       4.170  28.602  50.116  1.00  0.00     0.127 C 
BRANCH  18  19
HETATM   19  C   UNL     1       2.766  29.168  50.342  1.00  0.00     0.058 C 
BRANCH  19  20
HETATM   20  C   UNL     1       1.858  28.930  49.162  1.00  0.00    -0.057 A 
HETATM   21  C   UNL     1       1.616  27.628  48.701  1.00  0.00     0.009 A 
HETATM   22  C   UNL     1       0.789  27.412  47.595  1.00  0.00     0.025 A 
HETATM   23  C   UNL     1       0.197  28.502  46.953  1.00  0.00     0.074 A 
HETATM   24  C   UNL     1       0.439  29.805  47.394  1.00  0.00     0.025 A 
HETATM   25  C   UNL     1       1.265  30.015  48.499  1.00  0.00     0.009 A 
BRANCH  23  26
HETATM   26  S   UNL     1      -0.805  28.237  45.519  1.00  0.00     0.239 S 
HETATM   27  O   UNL     1      -0.426  26.986  44.905  1.00  0.00    -0.206 OA
HETATM   28  O   UNL     1      -2.176  28.561  45.838  1.00  0.00    -0.206 OA
BRANCH  26  29
HETATM   29  N   UNL     1      -0.267  29.447  44.488  1.00  0.00    -0.225 NA
HETATM   30  H   UNL     1      -0.344  29.137  43.519  1.00  0.00     0.136 HD
HETATM   31  H   UNL     1      -0.772  30.314  44.677  1.00  0.00     0.136 HD
ENDBRANCH  26  29
ENDBRANCH  23  26
ENDBRANCH  19  20
ENDBRANCH  18  19
ENDBRANCH  15  18
ENDBRANCH  13  14
ENDBRANCH  12  13
ENDBRANCH   9  12
BRANCH  10  32
HETATM   32  C   UNL     1       6.827  25.581  55.288  1.00  0.00     0.043 A 
HETATM   33  C   UNL     1       5.487  25.838  55.583  1.00  0.00     0.031 A 
HETATM   34  C   UNL     1       5.156  27.049  56.192  1.00  0.00     0.021 A 
HETATM   35  C   UNL     1       6.162  27.967  56.507  1.00  0.00     0.011 A 
HETATM   36 BR   UNL     1       5.705  29.603  57.334  1.00  0.00    -0.051 Br
HETATM   37  C   UNL     1       7.502  27.687  56.225  1.00  0.00     0.021 A 
HETATM   38  C   UNL     1       7.845  26.482  55.612  1.00  0.00     0.031 A 
ENDBRANCH  10  32
BRANCH  11  39
HETATM   39  N   UNL     1       7.473  23.383  56.901  1.00  0.00    -0.384 N 
HETATM   40  H   UNL     1       7.042  24.183  57.350  1.00  0.00     0.157 HD
HETATM   41  H   UNL     1       7.367  22.519  57.424  1.00  0.00     0.157 HD
ENDBRANCH  11  39
TORSDOF 10
ENDMDL
MODEL 7
REMARK VINA RESULT:      -8.9      6.307     11.606
REMARK  10 active torsions:
REMARK  status: ('A' for Active; 'I' for Inactive)
REMARK    1  A    between atoms: C_9  and  S_10 
REMARK    2  A    between atoms: S_10  and  C_11 
REMARK    3  A    between atoms: C_11  and  C_12 
REMARK       I    between atoms: C_12  and  N_13 
REMARK    4  A    between atoms: N_13  and  C_14 
REMARK    5  A    between atoms: C_14  and  C_15 
REMARK    6  A    between atoms: C_15  and  C_16 
REMARK    7  A    between atoms: C_19  and  S_20 
REMARK    8  A    between atoms: S_20  and  N_21 
REMARK    9  A    between atoms: N_27  and  C_28 
REMARK   10  A    between atoms: C_35  and  N_36 
ROOT
HETATM    1  C   UNL     1       7.790  29.660  57.861  1.00  0.00     0.073 C 
HETATM    2  C   UNL     1       6.915  29.439  56.680  1.00  0.00     0.068 A 
HETATM    3  N   UNL     1       6.102  30.424  56.279  1.00  0.00    -0.177 NA
HETATM    4  N   UNL     1       5.438  29.902  55.238  1.00  0.00    -0.260 N 
HETATM    5  H   UNL     1       4.744  30.469  54.763  1.00  0.00     0.191 HD
HETATM    6  C   UNL     1       5.795  28.612  54.967  1.00  0.00     0.162 A 
HETATM    7  C   UNL     1       6.781  28.270  55.869  1.00  0.00     0.081 A 
HETATM    8  N   UNL     1       5.272  27.834  54.020  1.00  0.00    -0.204 NA
HETATM    9  C   UNL     1       5.820  26.598  54.021  1.00  0.00     0.177 A 
HETATM   10  N   UNL     1       6.806  26.178  54.865  1.00  0.00    -0.276 N 
HETATM   11  C   UNL     1       7.357  26.991  55.810  1.00  0.00     0.124 A 
ENDROOT
BRANCH   9  12
HETATM   12  S   UNL     1       4.988  25.466  52.892  1.00  0.00    -0.082 SA
BRANCH  12  13
HETATM   13  C   UNL     1       5.955  25.788  51.380  1.00  0.00     0.185 C 
BRANCH  13  14
HETATM   14  C   UNL     1       5.134  26.584  50.374  1.00  0.00     0.227 C 
HETATM   15  N   UNL     1       5.115  27.941  50.612  1.00  0.00    -0.360 N 
HETATM   16  H   UNL     1       5.801  28.326  51.253  1.00  0.00     0.162 HD
HETATM   17  O   UNL     1       4.535  26.047  49.442  1.00  0.00    -0.273 OA
BRANCH  15  18
HETATM   18  C   UNL     1       4.483  28.878  49.696  1.00  0.00     0.127 C 
BRANCH  18  19
HETATM   19  C   UNL     1       3.013  29.108  50.054  1.00  0.00     0.058 C 
BRANCH  19  20
HETATM   20  C   UNL     1       2.100  28.916  48.869  1.00  0.00    -0.057 A 
HETATM   21  C   UNL     1       1.817  29.985  48.007  1.00  0.00     0.009 A 
HETATM   22  C   UNL     1       0.955  29.810  46.921  1.00  0.00     0.025 A 
HETATM   23  C   UNL     1       0.378  28.558  46.694  1.00  0.00     0.074 A 
HETATM   24  C   UNL     1       0.640  27.487  47.552  1.00  0.00     0.025 A 
HETATM   25  C   UNL     1       1.503  27.668  48.635  1.00  0.00     0.009 A 
BRANCH  23  26
HETATM   26  S   UNL     1      -0.758  28.345  45.354  1.00  0.00     0.239 S 
HETATM   27  O   UNL     1      -0.706  29.512  44.504  1.00  0.00    -0.206 OA
HETATM   28  O   UNL     1      -0.628  27.002  44.838  1.00  0.00    -0.206 OA
BRANCH  26  29
HETATM   29  N   UNL     1      -2.239  28.403  46.140  1.00  0.00    -0.225 NA
HETATM   30  H   UNL     1      -2.466  29.368  46.383  1.00  0.00     0.136 HD
HETATM   31  H   UNL     1      -2.954  27.952  45.567  1.00  0.00     0.136 HD
ENDBRANCH  26  29
ENDBRANCH  23  26
ENDBRANCH  19  20
ENDBRANCH  18  19
ENDBRANCH  15  18
ENDBRANCH  13  14
ENDBRANCH  12  13
ENDBRANCH   9  12
BRANCH  10  32
HETATM   32  C   UNL     1       7.256  24.817  54.796  1.00  0.00     0.043 A 
HETATM   33  C   UNL     1       6.869  23.920  55.792  1.00  0.00     0.031 A 
HETATM   34  C   UNL     1       7.288  22.592  55.697  1.00  0.00     0.021 A 
HETATM   35  C   UNL     1       8.067  22.184  54.611  1.00  0.00     0.011 A 
HETATM   36 BR   UNL     1       8.628  20.384  54.490  1.00  0.00    -0.051 Br
HETATM   37  C   UNL     1       8.429  23.089  53.609  1.00  0.00     0.021 A 
HETATM   38  C   UNL     1       8.020  24.420  53.694  1.00  0.00     0.031 A 
ENDBRANCH  10  32
BRANCH  11  39
HETATM   39  N   UNL     1       8.375  26.579  56.666  1.00  0.00    -0.384 N 
HETATM   40  H   UNL     1       9.318  26.929  56.548  1.00  0.00     0.157 HD
HETATM   41  H   UNL     1       8.129  26.394  57.634  1.00  0.00     0.157 HD
ENDBRANCH  11  39
TORSDOF 10
ENDMDL
MODEL 8
REMARK VINA RESULT:      -8.8      4.087     10.380
REMARK  10 active torsions:
REMARK  status: ('A' for Active; 'I' for Inactive)
REMARK    1  A    between atoms: C_9  and  S_10 
REMARK    2  A    between atoms: S_10  and  C_11 
REMARK    3  A    between atoms: C_11  and  C_12 
REMARK       I    between atoms: C_12  and  N_13 
REMARK    4  A    between atoms: N_13  and  C_14 
REMARK    5  A    between atoms: C_14  and  C_15 
REMARK    6  A    between atoms: C_15  and  C_16 
REMARK    7  A    between atoms: C_19  and  S_20 
REMARK    8  A    between atoms: S_20  and  N_21 
REMARK    9  A    between atoms: N_27  and  C_28 
REMARK   10  A    between atoms: C_35  and  N_36 
ROOT
HETATM    1  C   UNL     1       7.227  33.325  61.966  1.00  0.00     0.073 C 
HETATM    2  C   UNL     1       7.578  32.142  61.138  1.00  0.00     0.068 A 
HETATM    3  N   UNL     1       8.586  31.351  61.527  1.00  0.00    -0.177 NA
HETATM    4  N   UNL     1       8.666  30.420  60.566  1.00  0.00    -0.260 N 
HETATM    5  H   UNL     1       9.377  29.699  60.637  1.00  0.00     0.191 HD
HETATM    6  C   UNL     1       7.747  30.596  59.571  1.00  0.00     0.162 A 
HETATM    7  C   UNL     1       6.992  31.698  59.913  1.00  0.00     0.081 A 
HETATM    8  N   UNL     1       7.624  29.851  58.474  1.00  0.00    -0.204 NA
HETATM    9  C   UNL     1       6.635  30.297  57.667  1.00  0.00     0.177 A 
HETATM   10  N   UNL     1       5.832  31.367  57.930  1.00  0.00    -0.276 N 
HETATM   11  C   UNL     1       5.944  32.105  59.071  1.00  0.00     0.124 A 
ENDROOT
BRANCH   9  12
HETATM   12  S   UNL     1       6.585  29.436  56.085  1.00  0.00    -0.082 SA
BRANCH  12  13
HETATM   13  C   UNL     1       5.443  28.082  56.518  1.00  0.00     0.185 C 
BRANCH  13  14
HETATM   14  C   UNL     1       5.523  26.960  55.491  1.00  0.00     0.227 C 
HETATM   15  N   UNL     1       5.964  27.366  54.250  1.00  0.00    -0.360 N 
HETATM   16  H   UNL     1       6.410  28.273  54.170  1.00  0.00     0.162 HD
HETATM   17  O   UNL     1       5.209  25.800  55.757  1.00  0.00    -0.273 OA
BRANCH  15  18
HETATM   18  C   UNL     1       6.219  26.420  53.173  1.00  0.00     0.127 C 
BRANCH  18  19
HETATM   19  C   UNL     1       7.683  25.973  53.154  1.00  0.00     0.058 C 
BRANCH  19  20
HETATM   20  C   UNL     1       7.869  24.600  53.747  1.00  0.00    -0.057 A 
HETATM   21  C   UNL     1       8.212  24.447  55.098  1.00  0.00     0.009 A 
HETATM   22  C   UNL     1       8.403  23.173  55.640  1.00  0.00     0.025 A 
HETATM   23  C   UNL     1       8.244  22.048  54.829  1.00  0.00     0.074 A 
HETATM   24  C   UNL     1       7.915  22.185  53.478  1.00  0.00     0.025 A 
HETATM   25  C   UNL     1       7.725  23.459  52.942  1.00  0.00     0.009 A 
BRANCH  23  26
HETATM   26  S   UNL     1       8.539  20.436  55.496  1.00  0.00     0.239 S 
HETATM   27  O   UNL     1       9.741  20.471  56.296  1.00  0.00    -0.206 OA
HETATM   28  O   UNL     1       7.294  19.898  55.991  1.00  0.00    -0.206 OA
BRANCH  26  29
HETATM   29  N   UNL     1       8.917  19.552  54.121  1.00  0.00    -0.225 NA
HETATM   30  H   UNL     1       8.444  19.953  53.310  1.00  0.00     0.136 HD
HETATM   31  H   UNL     1       9.930  19.494  54.011  1.00  0.00     0.136 HD
ENDBRANCH  26  29
ENDBRANCH  23  26
ENDBRANCH  19  20
ENDBRANCH  18  19
ENDBRANCH  15  18
ENDBRANCH  13  14
ENDBRANCH  12  13
ENDBRANCH   9  12
BRANCH  10  32
HETATM   32  C   UNL     1       4.857  31.768  56.957  1.00  0.00     0.043 A 
HETATM   33  C   UNL     1       3.604  31.153  56.952  1.00  0.00     0.031 A 
HETATM   34  C   UNL     1       2.655  31.574  56.020  1.00  0.00     0.021 A 
HETATM   35  C   UNL     1       2.966  32.603  55.127  1.00  0.00     0.011 A 
HETATM   36 BR   UNL     1       1.673  33.167  53.869  1.00  0.00    -0.051 Br
HETATM   37  C   UNL     1       4.218  33.224  55.156  1.00  0.00     0.021 A 
HETATM   38  C   UNL     1       5.177  32.810  56.080  1.00  0.00     0.031 A 
ENDBRANCH  10  32
BRANCH  11  39
HETATM   39  N   UNL     1       5.119  33.189  59.358  1.00  0.00    -0.384 N 
HETATM   40  H   UNL     1       4.753  33.321  60.294  1.00  0.00     0.157 HD
HETATM   41  H   UNL     1       5.297  34.059  58.866  1.00  0.00     0.157 HD
ENDBRANCH  11  39
TORSDOF 10
ENDMDL
MODEL 9
REMARK VINA RESULT:      -8.5      6.308     11.845
REMARK  10 active torsions:
REMARK  status: ('A' for Active; 'I' for Inactive)
REMARK    1  A    between atoms: C_9  and  S_10 
REMARK    2  A    between atoms: S_10  and  C_11 
REMARK    3  A    between atoms: C_11  and  C_12 
REMARK       I    between atoms: C_12  and  N_13 
REMARK    4  A    between atoms: N_13  and  C_14 
REMARK    5  A    between atoms: C_14  and  C_15 
REMARK    6  A    between atoms: C_15  and  C_16 
REMARK    7  A    between atoms: C_19  and  S_20 
REMARK    8  A    between atoms: S_20  and  N_21 
REMARK    9  A    between atoms: N_27  and  C_28 
REMARK   10  A    between atoms: C_35  and  N_36 
ROOT
HETATM    1  C   UNL     1       8.231  29.693  58.775  1.00  0.00     0.073 C 
HETATM    2  C   UNL     1       7.209  29.816  57.703  1.00  0.00     0.068 A 
HETATM    3  N   UNL     1       6.429  30.904  57.668  1.00  0.00    -0.177 NA
HETATM    4  N   UNL     1       5.611  30.692  56.628  1.00  0.00    -0.260 N 
HETATM    5  H   UNL     1       4.909  31.391  56.404  1.00  0.00     0.191 HD
HETATM    6  C   UNL     1       5.837  29.500  56.003  1.00  0.00     0.162 A 
HETATM    7  C   UNL     1       6.894  28.899  56.654  1.00  0.00     0.081 A 
HETATM    8  N   UNL     1       5.150  29.010  54.971  1.00  0.00    -0.204 NA
HETATM    9  C   UNL     1       5.601  27.792  54.594  1.00  0.00     0.177 A 
HETATM   10  N   UNL     1       6.645  27.131  55.171  1.00  0.00    -0.276 N 
HETATM   11  C   UNL     1       7.362  27.653  56.206  1.00  0.00     0.124 A 
ENDROOT
BRANCH   9  12
HETATM   12  S   UNL     1       4.560  27.021  53.342  1.00  0.00    -0.082 SA
BRANCH  12  13
HETATM   13  C   UNL     1       3.486  28.437  52.933  1.00  0.00     0.185 C 
BRANCH  13  14
HETATM   14  C   UNL     1       3.596  28.787  51.456  1.00  0.00     0.227 C 
HETATM   15  N   UNL     1       4.223  27.823  50.695  1.00  0.00    -0.360 N 
HETATM   16  H   UNL     1       4.344  26.899  51.095  1.00  0.00     0.162 HD
HETATM   17  O   UNL     1       3.167  29.846  50.996  1.00  0.00    -0.273 OA
BRANCH  15  18
HETATM   18  C   UNL     1       4.317  27.923  49.246  1.00  0.00     0.127 C 
BRANCH  18  19
HETATM   19  C   UNL     1       3.505  26.825  48.554  1.00  0.00     0.058 C 
BRANCH  19  20
HETATM   20  C   UNL     1       2.327  27.380  47.794  1.00  0.00    -0.057 A 
HETATM   21  C   UNL     1       1.578  26.556  46.940  1.00  0.00     0.009 A 
HETATM   22  C   UNL     1       0.500  27.078  46.222  1.00  0.00     0.025 A 
HETATM   23  C   UNL     1       0.164  28.426  46.363  1.00  0.00     0.074 A 
HETATM   24  C   UNL     1       0.908  29.261  47.199  1.00  0.00     0.025 A 
HETATM   25  C   UNL     1       1.985  28.735  47.915  1.00  0.00     0.009 A 
BRANCH  23  26
HETATM   26  S   UNL     1      -1.166  29.104  45.412  1.00  0.00     0.239 S 
HETATM   27  O   UNL     1      -2.398  28.948  46.149  1.00  0.00    -0.206 OA
HETATM   28  O   UNL     1      -0.748  30.371  44.858  1.00  0.00    -0.206 OA
BRANCH  26  29
HETATM   29  N   UNL     1      -1.253  28.036  44.121  1.00  0.00    -0.225 NA
HETATM   30  H   UNL     1      -1.586  28.524  43.289  1.00  0.00     0.136 HD
HETATM   31  H   UNL     1      -0.350  27.577  43.988  1.00  0.00     0.136 HD
ENDBRANCH  26  29
ENDBRANCH  23  26
ENDBRANCH  19  20
ENDBRANCH  18  19
ENDBRANCH  15  18
ENDBRANCH  13  14
ENDBRANCH  12  13
ENDBRANCH   9  12
BRANCH  10  32
HETATM   32  C   UNL     1       6.982  25.815  54.709  1.00  0.00     0.043 A 
HETATM   33  C   UNL     1       7.638  25.668  53.486  1.00  0.00     0.031 A 
HETATM   34  C   UNL     1       7.987  24.385  53.063  1.00  0.00     0.021 A 
HETATM   35  C   UNL     1       7.690  23.282  53.868  1.00  0.00     0.011 A 
HETATM   36 BR   UNL     1       8.168  21.549  53.287  1.00  0.00    -0.051 Br
HETATM   37  C   UNL     1       7.051  23.445  55.101  1.00  0.00     0.021 A 
HETATM   38  C   UNL     1       6.693  24.722  55.533  1.00  0.00     0.031 A 
ENDBRANCH  10  32
BRANCH  11  39
HETATM   39  N   UNL     1       8.440  26.994  56.791  1.00  0.00    -0.384 N 
HETATM   40  H   UNL     1       8.313  26.088  57.227  1.00  0.00     0.157 HD
HETATM   41  H   UNL     1       9.353  27.113  56.362  1.00  0.00     0.157 HD
ENDBRANCH  11  39
TORSDOF 10
ENDMDL
MODEL 10
REMARK VINA RESULT:      -8.4      5.210     10.543
REMARK  10 active torsions:
REMARK  status: ('A' for Active; 'I' for Inactive)
REMARK    1  A    between atoms: C_9  and  S_10 
REMARK    2  A    between atoms: S_10  and  C_11 
REMARK    3  A    between atoms: C_11  and  C_12 
REMARK       I    between atoms: C_12  and  N_13 
REMARK    4  A    between atoms: N_13  and  C_14 
REMARK    5  A    between atoms: C_14  and  C_15 
REMARK    6  A    between atoms: C_15  and  C_16 
REMARK    7  A    between atoms: C_19  and  S_20 
REMARK    8  A    between atoms: S_20  and  N_21 
REMARK    9  A    between atoms: N_27  and  C_28 
REMARK   10  A    between atoms: C_35  and  N_36 
ROOT
HETATM    1  C   UNL     1       8.653  30.509  60.264  1.00  0.00     0.073 C 
HETATM    2  C   UNL     1       7.604  31.031  59.349  1.00  0.00     0.068 A 
HETATM    3  N   UNL     1       6.969  32.165  59.667  1.00  0.00    -0.177 NA
HETATM    4  N   UNL     1       6.081  32.336  58.677  1.00  0.00    -0.260 N 
HETATM    5  H   UNL     1       5.465  33.142  58.703  1.00  0.00     0.191 HD
HETATM    6  C   UNL     1       6.123  31.342  57.742  1.00  0.00     0.162 A 
HETATM    7  C   UNL     1       7.125  30.474  58.123  1.00  0.00     0.081 A 
HETATM    8  N   UNL     1       5.331  31.231  56.676  1.00  0.00    -0.204 NA
HETATM    9  C   UNL     1       5.605  30.121  55.955  1.00  0.00     0.177 A 
HETATM   10  N   UNL     1       6.582  29.217  56.250  1.00  0.00    -0.276 N 
HETATM   11  C   UNL     1       7.409  29.355  57.324  1.00  0.00     0.124 A 
ENDROOT
BRANCH   9  12
HETATM   12  S   UNL     1       4.415  29.839  54.631  1.00  0.00    -0.082 SA
BRANCH  12  13
HETATM   13  C   UNL     1       3.411  31.351  54.806  1.00  0.00     0.185 C 
BRANCH  13  14
HETATM   14  C   UNL     1       3.265  32.058  53.465  1.00  0.00     0.227 C 
HETATM   15  N   UNL     1       4.462  32.310  52.830  1.00  0.00    -0.360 N 
HETATM   16  H   UNL     1       5.291  31.824  53.155  1.00  0.00     0.162 HD
HETATM   17  O   UNL     1       2.169  32.381  53.007  1.00  0.00    -0.273 OA
BRANCH  15  18
HETATM   18  C   UNL     1       4.522  32.870  51.488  1.00  0.00     0.127 C 
BRANCH  18  19
HETATM   19  C   UNL     1       5.683  32.278  50.684  1.00  0.00     0.058 C 
BRANCH  19  20
HETATM   20  C   UNL     1       5.316  30.971  50.028  1.00  0.00    -0.057 A 
HETATM   21  C   UNL     1       5.658  29.751  50.630  1.00  0.00     0.009 A 
HETATM   22  C   UNL     1       5.333  28.542  50.010  1.00  0.00     0.025 A 
HETATM   23  C   UNL     1       4.659  28.553  48.787  1.00  0.00     0.074 A 
HETATM   24  C   UNL     1       4.323  29.760  48.170  1.00  0.00     0.025 A 
HETATM   25  C   UNL     1       4.649  30.965  48.794  1.00  0.00     0.009 A 
BRANCH  23  26
HETATM   26  S   UNL     1       4.296  27.025  47.971  1.00  0.00     0.239 S 
HETATM   27  O   UNL     1       4.215  25.973  48.957  1.00  0.00    -0.206 OA
HETATM   28  O   UNL     1       3.259  27.252  46.991  1.00  0.00    -0.206 OA
BRANCH  26  29
HETATM   29  N   UNL     1       5.706  26.748  47.104  1.00  0.00    -0.225 NA
HETATM   30  H   UNL     1       5.997  27.606  46.632  1.00  0.00     0.136 HD
HETATM   31  H   UNL     1       6.422  26.362  47.720  1.00  0.00     0.136 HD
ENDBRANCH  26  29
ENDBRANCH  23  26
ENDBRANCH  19  20
ENDBRANCH  18  19
ENDBRANCH  15  18
ENDBRANCH  13  14
ENDBRANCH  12  13
ENDBRANCH   9  12
BRANCH  10  32
HETATM   32  C   UNL     1       6.726  28.048  55.430  1.00  0.00     0.043 A 
HETATM   33  C   UNL     1       7.547  28.102  54.303  1.00  0.00     0.031 A 
HETATM   34  C   UNL     1       7.703  26.950  53.531  1.00  0.00     0.021 A 
HETATM   35  C   UNL     1       7.053  25.770  53.904  1.00  0.00     0.011 A 
HETATM   36 BR   UNL     1       7.271  24.214  52.854  1.00  0.00    -0.051 Br
HETATM   37  C   UNL     1       6.250  25.724  55.047  1.00  0.00     0.021 A 
HETATM   38  C   UNL     1       6.083  26.870  55.825  1.00  0.00     0.031 A 
ENDBRANCH  10  32
BRANCH  11  39
HETATM   39  N   UNL     1       8.422  28.447  57.625  1.00  0.00    -0.384 N 
HETATM   40  H   UNL     1       8.299  27.769  58.368  1.00  0.00     0.157 HD
HETATM   41  H   UNL     1       8.993  28.108  56.857  1.00  0.00     0.157 HD
ENDBRANCH  11  39
TORSDOF 10
ENDMDL
