MODEL 1
REMARK VINA RESULT:      -9.3      0.000      0.000
REMARK  5 active torsions:
REMARK  status: ('A' for Active; 'I' for Inactive)
REMARK    1  A    between atoms: C_7  and  C_8 
REMARK    2  A    between atoms: N_9  and  N_10 
REMARK       I    between atoms: N_10  and  C_11 
REMARK    3  A    between atoms: C_11  and  C_12 
REMARK    4  A    between atoms: C_12  and  N_13 
REMARK    5  A    between atoms: N_13  and  C_14 
ROOT
HETATM    1  N   UNL     1       6.382  26.553  56.726  1.00  0.00    -0.246 N 
HETATM    2  C   UNL     1       5.765  27.757  56.398  1.00  0.00     0.250 C 
HETATM    3  O   UNL     1       5.058  27.961  55.413  1.00  0.00    -0.270 OA
HETATM    4  H   UNL     1       7.038  26.541  57.501  1.00  0.00     0.192 HD
ENDROOT
BRANCH   1   5
HETATM    5  N   UNL     1       6.495  25.459  55.901  1.00  0.00    -0.184 NA
HETATM    6  C   UNL     1       7.612  25.255  55.278  1.00  0.00     0.153 C 
BRANCH   6   7
HETATM    7  C   UNL     1       7.788  24.062  54.462  1.00  0.00     0.018 A 
HETATM    8  C   UNL     1       7.776  23.974  53.075  1.00  0.00     0.018 A 
HETATM    9  C   UNL     1       7.595  25.012  52.026  1.00  0.00     0.069 C 
HETATM   10  N   UNL     1       7.971  22.657  52.739  1.00  0.00    -0.358 N 
HETATM   11  H   UNL     1       8.005  22.297  51.795  1.00  0.00     0.166 HD
HETATM   12  C   UNL     1       8.105  21.881  53.864  1.00  0.00     0.043 A 
HETATM   13  C   UNL     1       7.997  22.732  54.962  1.00  0.00     0.004 A 
HETATM   14  C   UNL     1       8.308  20.501  53.987  1.00  0.00     0.030 A 
HETATM   15  C   UNL     1       8.095  22.170  56.255  1.00  0.00     0.014 A 
HETATM   16  C   UNL     1       8.298  20.793  56.397  1.00  0.00     0.001 A 
HETATM   17  C   UNL     1       8.403  19.972  55.277  1.00  0.00     0.002 A 
ENDBRANCH   6   7
ENDBRANCH   1   5
BRANCH   2  18
HETATM   18  C   UNL     1       6.033  28.869  57.420  1.00  0.00     0.197 C 
BRANCH  18  19
HETATM   19  N   UNL     1       7.188  28.551  58.266  1.00  0.00    -0.282 NA
HETATM   20  H   UNL     1       7.351  27.539  58.291  1.00  0.00     0.128 HD
BRANCH  19  21
HETATM   21  C   UNL     1       8.396  29.229  58.034  1.00  0.00     0.047 A 
HETATM   22  C   UNL     1       8.677  30.415  58.733  1.00  0.00     0.137 A 
HETATM   23  F   UNL     1       7.816  30.844  59.671  1.00  0.00    -0.204 F 
HETATM   24  C   UNL     1       9.832  31.157  58.497  1.00  0.00     0.044 A 
HETATM   25  C   UNL     1      10.732  30.731  57.524  1.00  0.00     0.003 A 
HETATM   26  C   UNL     1      10.463  29.574  56.793  1.00  0.00     0.002 A 
HETATM   27  C   UNL     1       9.300  28.834  57.041  1.00  0.00     0.026 A 
ENDBRANCH  19  21
ENDBRANCH  18  19
ENDBRANCH   2  18
TORSDOF 5
ENDMDL
MODEL 2
REMARK VINA RESULT:      -9.0      2.121      2.767
REMARK  5 active torsions:
REMARK  status: ('A' for Active; 'I' for Inactive)
REMARK    1  A    between atoms: C_7  and  C_8 
REMARK    2  A    between atoms: N_9  and  N_10 
REMARK       I    between atoms: N_10  and  C_11 
REMARK    3  A    between atoms: C_11  and  C_12 
REMARK    4  A    between atoms: C_12  and  N_13 
REMARK    5  A    between atoms: N_13  and  C_14 
ROOT
HETATM    1  N   UNL     1       7.626  27.093  57.195  1.00  0.00    -0.246 N 
HETATM    2  C   UNL     1       8.385  28.240  57.409  1.00  0.00     0.250 C 
HETATM    3  O   UNL     1       9.455  28.509  56.865  1.00  0.00    -0.270 OA
HETATM    4  H   UNL     1       6.820  26.928  57.792  1.00  0.00     0.192 HD
ENDROOT
BRANCH   1   5
HETATM    5  N   UNL     1       8.043  25.969  56.523  1.00  0.00    -0.184 NA
HETATM    6  C   UNL     1       7.283  25.472  55.598  1.00  0.00     0.153 C 
BRANCH   6   7
HETATM    7  C   UNL     1       7.735  24.331  54.815  1.00  0.00     0.018 A 
HETATM    8  C   UNL     1       7.930  24.270  53.440  1.00  0.00     0.018 A 
HETATM    9  C   UNL     1       7.755  25.295  52.377  1.00  0.00     0.069 C 
HETATM   10  N   UNL     1       8.350  22.999  53.134  1.00  0.00    -0.358 N 
HETATM   11  H   UNL     1       8.565  22.667  52.205  1.00  0.00     0.166 HD
HETATM   12  C   UNL     1       8.432  22.226  54.267  1.00  0.00     0.043 A 
HETATM   13  C   UNL     1       8.054  23.032  55.339  1.00  0.00     0.004 A 
HETATM   14  C   UNL     1       8.805  20.885  54.416  1.00  0.00     0.030 A 
HETATM   15  C   UNL     1       8.048  22.464  56.632  1.00  0.00     0.014 A 
HETATM   16  C   UNL     1       8.418  21.124  56.801  1.00  0.00     0.001 A 
HETATM   17  C   UNL     1       8.791  20.348  55.706  1.00  0.00     0.002 A 
ENDBRANCH   6   7
ENDBRANCH   1   5
BRANCH   2  18
HETATM   18  C   UNL     1       7.747  29.208  58.414  1.00  0.00     0.197 C 
BRANCH  18  19
HETATM   19  N   UNL     1       8.757  29.814  59.288  1.00  0.00    -0.282 NA
HETATM   20  H   UNL     1       9.564  30.133  58.742  1.00  0.00     0.128 HD
BRANCH  19  21
HETATM   21  C   UNL     1       8.353  30.817  60.184  1.00  0.00     0.047 A 
HETATM   22  C   UNL     1       8.878  30.843  61.487  1.00  0.00     0.137 A 
HETATM   23  F   UNL     1       9.818  29.948  61.834  1.00  0.00    -0.204 F 
HETATM   24  C   UNL     1       8.465  31.780  62.432  1.00  0.00     0.044 A 
HETATM   25  C   UNL     1       7.487  32.709  62.093  1.00  0.00     0.003 A 
HETATM   26  C   UNL     1       6.927  32.687  60.816  1.00  0.00     0.002 A 
HETATM   27  C   UNL     1       7.351  31.743  59.872  1.00  0.00     0.026 A 
ENDBRANCH  19  21
ENDBRANCH  18  19
ENDBRANCH   2  18
TORSDOF 5
ENDMDL
MODEL 3
REMARK VINA RESULT:      -9.0      2.976      9.028
REMARK  5 active torsions:
REMARK  status: ('A' for Active; 'I' for Inactive)
REMARK    1  A    between atoms: C_7  and  C_8 
REMARK    2  A    between atoms: N_9  and  N_10 
REMARK       I    between atoms: N_10  and  C_11 
REMARK    3  A    between atoms: C_11  and  C_12 
REMARK    4  A    between atoms: C_12  and  N_13 
REMARK    5  A    between atoms: N_13  and  C_14 
ROOT
HETATM    1  N   UNL     1       8.182  26.988  57.406  1.00  0.00    -0.246 N 
HETATM    2  C   UNL     1       7.531  25.776  57.195  1.00  0.00     0.250 C 
HETATM    3  O   UNL     1       6.357  25.531  57.469  1.00  0.00    -0.270 OA
HETATM    4  H   UNL     1       9.185  27.032  57.248  1.00  0.00     0.192 HD
ENDROOT
BRANCH   1   5
HETATM    5  N   UNL     1       7.704  28.036  58.155  1.00  0.00    -0.184 NA
HETATM    6  C   UNL     1       8.119  29.236  57.895  1.00  0.00     0.153 C 
BRANCH   6   7
HETATM    7  C   UNL     1       7.569  30.373  58.618  1.00  0.00     0.018 A 
HETATM    8  C   UNL     1       6.503  31.183  58.242  1.00  0.00     0.018 A 
HETATM    9  C   UNL     1       5.621  31.151  57.045  1.00  0.00     0.069 C 
HETATM   10  N   UNL     1       6.338  32.136  59.217  1.00  0.00    -0.358 N 
HETATM   11  H   UNL     1       5.637  32.863  59.205  1.00  0.00     0.166 HD
HETATM   12  C   UNL     1       7.266  31.976  60.217  1.00  0.00     0.043 A 
HETATM   13  C   UNL     1       8.053  30.878  59.873  1.00  0.00     0.004 A 
HETATM   14  C   UNL     1       7.466  32.720  61.386  1.00  0.00     0.030 A 
HETATM   15  C   UNL     1       9.098  30.506  60.747  1.00  0.00     0.014 A 
HETATM   16  C   UNL     1       9.312  31.238  61.921  1.00  0.00     0.001 A 
HETATM   17  C   UNL     1       8.506  32.329  62.234  1.00  0.00     0.002 A 
ENDBRANCH   6   7
ENDBRANCH   1   5
BRANCH   2  18
HETATM   18  C   UNL     1       8.427  24.715  56.545  1.00  0.00     0.197 C 
BRANCH  18  19
HETATM   19  N   UNL     1       7.961  24.377  55.195  1.00  0.00    -0.282 NA
HETATM   20  H   UNL     1       8.411  24.978  54.496  1.00  0.00     0.128 HD
BRANCH  19  21
HETATM   21  C   UNL     1       8.015  23.035  54.784  1.00  0.00     0.047 A 
HETATM   22  C   UNL     1       8.138  22.726  53.419  1.00  0.00     0.137 A 
HETATM   23  F   UNL     1       8.277  23.724  52.531  1.00  0.00    -0.204 F 
HETATM   24  C   UNL     1       8.136  21.413  52.954  1.00  0.00     0.044 A 
HETATM   25  C   UNL     1       7.986  20.367  53.860  1.00  0.00     0.003 A 
HETATM   26  C   UNL     1       7.831  20.645  55.217  1.00  0.00     0.002 A 
HETATM   27  C   UNL     1       7.838  21.969  55.674  1.00  0.00     0.026 A 
ENDBRANCH  19  21
ENDBRANCH  18  19
ENDBRANCH   2  18
TORSDOF 5
ENDMDL
MODEL 4
REMARK VINA RESULT:      -8.9      4.937      7.666
REMARK  5 active torsions:
REMARK  status: ('A' for Active; 'I' for Inactive)
REMARK    1  A    between atoms: C_7  and  C_8 
REMARK    2  A    between atoms: N_9  and  N_10 
REMARK       I    between atoms: N_10  and  C_11 
REMARK    3  A    between atoms: C_11  and  C_12 
REMARK    4  A    between atoms: C_12  and  N_13 
REMARK    5  A    between atoms: N_13  and  C_14 
ROOT
HETATM    1  N   UNL     1       6.800  26.464  52.374  1.00  0.00    -0.246 N 
HETATM    2  C   UNL     1       5.707  26.220  51.547  1.00  0.00     0.250 C 
HETATM    3  O   UNL     1       5.042  25.185  51.517  1.00  0.00    -0.270 OA
HETATM    4  H   UNL     1       7.341  27.311  52.223  1.00  0.00     0.192 HD
ENDROOT
BRANCH   1   5
HETATM    5  N   UNL     1       7.461  25.524  53.128  1.00  0.00    -0.184 NA
HETATM    6  C   UNL     1       6.935  25.130  54.244  1.00  0.00     0.153 C 
BRANCH   6   7
HETATM    7  C   UNL     1       7.572  24.077  55.023  1.00  0.00     0.018 A 
HETATM    8  C   UNL     1       8.013  24.144  56.339  1.00  0.00     0.018 A 
HETATM    9  C   UNL     1       7.976  25.251  57.331  1.00  0.00     0.069 C 
HETATM   10  N   UNL     1       8.557  22.925  56.660  1.00  0.00    -0.358 N 
HETATM   11  H   UNL     1       8.961  22.687  57.554  1.00  0.00     0.166 HD
HETATM   12  C   UNL     1       8.489  22.064  55.592  1.00  0.00     0.043 A 
HETATM   13  C   UNL     1       7.875  22.755  54.548  1.00  0.00     0.004 A 
HETATM   14  C   UNL     1       8.926  20.740  55.474  1.00  0.00     0.030 A 
HETATM   15  C   UNL     1       7.690  22.083  53.320  1.00  0.00     0.014 A 
HETATM   16  C   UNL     1       8.121  20.758  53.184  1.00  0.00     0.001 A 
HETATM   17  C   UNL     1       8.730  20.098  54.248  1.00  0.00     0.002 A 
ENDBRANCH   6   7
ENDBRANCH   1   5
BRANCH   2  18
HETATM   18  C   UNL     1       5.361  27.406  50.639  1.00  0.00     0.197 C 
BRANCH  18  19
HETATM   19  N   UNL     1       5.258  26.992  49.235  1.00  0.00    -0.282 NA
HETATM   20  H   UNL     1       5.540  26.013  49.124  1.00  0.00     0.128 HD
BRANCH  19  21
HETATM   21  C   UNL     1       4.051  27.226  48.555  1.00  0.00     0.047 A 
HETATM   22  C   UNL     1       3.175  26.158  48.299  1.00  0.00     0.137 A 
HETATM   23  F   UNL     1       3.471  24.938  48.776  1.00  0.00    -0.204 F 
HETATM   24  C   UNL     1       1.995  26.326  47.577  1.00  0.00     0.044 A 
HETATM   25  C   UNL     1       1.676  27.582  47.070  1.00  0.00     0.003 A 
HETATM   26  C   UNL     1       2.543  28.653  47.282  1.00  0.00     0.002 A 
HETATM   27  C   UNL     1       3.725  28.475  48.012  1.00  0.00     0.026 A 
ENDBRANCH  19  21
ENDBRANCH  18  19
ENDBRANCH   2  18
TORSDOF 5
ENDMDL
MODEL 5
REMARK VINA RESULT:      -8.7      4.885      7.580
REMARK  5 active torsions:
REMARK  status: ('A' for Active; 'I' for Inactive)
REMARK    1  A    between atoms: C_7  and  C_8 
REMARK    2  A    between atoms: N_9  and  N_10 
REMARK       I    between atoms: N_10  and  C_11 
REMARK    3  A    between atoms: C_11  and  C_12 
REMARK    4  A    between atoms: C_12  and  N_13 
REMARK    5  A    between atoms: N_13  and  C_14 
ROOT
HETATM    1  N   UNL     1       5.855  26.126  51.564  1.00  0.00    -0.246 N 
HETATM    2  C   UNL     1       5.591  27.489  51.670  1.00  0.00     0.250 C 
HETATM    3  O   UNL     1       5.741  28.177  52.680  1.00  0.00    -0.270 OA
HETATM    4  H   UNL     1       5.579  25.645  50.713  1.00  0.00     0.192 HD
ENDROOT
BRANCH   1   5
HETATM    5  N   UNL     1       6.106  25.274  52.613  1.00  0.00    -0.184 NA
HETATM    6  C   UNL     1       7.334  24.985  52.906  1.00  0.00     0.153 C 
BRANCH   6   7
HETATM    7  C   UNL     1       7.634  24.150  54.061  1.00  0.00     0.018 A 
HETATM    8  C   UNL     1       7.719  24.542  55.392  1.00  0.00     0.018 A 
HETATM    9  C   UNL     1       7.538  25.868  56.038  1.00  0.00     0.069 C 
HETATM   10  N   UNL     1       8.033  23.430  56.135  1.00  0.00    -0.358 N 
HETATM   11  H   UNL     1       8.161  23.419  57.137  1.00  0.00     0.166 HD
HETATM   12  C   UNL     1       8.158  22.324  55.330  1.00  0.00     0.043 A 
HETATM   13  C   UNL     1       7.913  22.741  54.023  1.00  0.00     0.004 A 
HETATM   14  C   UNL     1       8.472  21.001  55.661  1.00  0.00     0.030 A 
HETATM   15  C   UNL     1       7.988  21.780  52.990  1.00  0.00     0.014 A 
HETATM   16  C   UNL     1       8.301  20.452  53.303  1.00  0.00     0.001 A 
HETATM   17  C   UNL     1       8.539  20.070  54.621  1.00  0.00     0.002 A 
ENDBRANCH   6   7
ENDBRANCH   1   5
BRANCH   2  18
HETATM   18  C   UNL     1       5.089  28.110  50.361  1.00  0.00     0.197 C 
BRANCH  18  19
HETATM   19  N   UNL     1       3.627  28.049  50.265  1.00  0.00    -0.282 NA
HETATM   20  H   UNL     1       3.211  28.962  50.476  1.00  0.00     0.128 HD
BRANCH  19  21
HETATM   21  C   UNL     1       3.053  27.515  49.100  1.00  0.00     0.047 A 
HETATM   22  C   UNL     1       1.778  27.940  48.690  1.00  0.00     0.137 A 
HETATM   23  F   UNL     1       1.156  28.908  49.383  1.00  0.00    -0.204 F 
HETATM   24  C   UNL     1       1.140  27.399  47.576  1.00  0.00     0.044 A 
HETATM   25  C   UNL     1       1.767  26.390  46.852  1.00  0.00     0.003 A 
HETATM   26  C   UNL     1       3.020  25.928  47.253  1.00  0.00     0.002 A 
HETATM   27  C   UNL     1       3.654  26.480  48.373  1.00  0.00     0.026 A 
ENDBRANCH  19  21
ENDBRANCH  18  19
ENDBRANCH   2  18
TORSDOF 5
ENDMDL
MODEL 6
REMARK VINA RESULT:      -8.4      2.934      4.556
REMARK  5 active torsions:
REMARK  status: ('A' for Active; 'I' for Inactive)
REMARK    1  A    between atoms: C_7  and  C_8 
REMARK    2  A    between atoms: N_9  and  N_10 
REMARK       I    between atoms: N_10  and  C_11 
REMARK    3  A    between atoms: C_11  and  C_12 
REMARK    4  A    between atoms: C_12  and  N_13 
REMARK    5  A    between atoms: N_13  and  C_14 
ROOT
HETATM    1  N   UNL     1       8.099  29.052  57.456  1.00  0.00    -0.246 N 
HETATM    2  C   UNL     1       8.990  29.971  58.002  1.00  0.00     0.250 C 
HETATM    3  O   UNL     1      10.216  29.934  57.902  1.00  0.00    -0.270 OA
HETATM    4  H   UNL     1       7.117  29.122  57.707  1.00  0.00     0.192 HD
ENDROOT
BRANCH   1   5
HETATM    5  N   UNL     1       8.434  27.834  56.913  1.00  0.00    -0.184 NA
HETATM    6  C   UNL     1       7.492  26.993  56.625  1.00  0.00     0.153 C 
BRANCH   6   7
HETATM    7  C   UNL     1       7.811  25.731  55.975  1.00  0.00     0.018 A 
HETATM    8  C   UNL     1       8.344  24.587  56.558  1.00  0.00     0.018 A 
HETATM    9  C   UNL     1       8.738  24.293  57.961  1.00  0.00     0.069 C 
HETATM   10  N   UNL     1       8.489  23.644  55.571  1.00  0.00    -0.358 N 
HETATM   11  H   UNL     1       8.858  22.713  55.706  1.00  0.00     0.166 HD
HETATM   12  C   UNL     1       8.070  24.137  54.359  1.00  0.00     0.043 A 
HETATM   13  C   UNL     1       7.637  25.444  54.578  1.00  0.00     0.004 A 
HETATM   14  C   UNL     1       8.048  23.528  53.099  1.00  0.00     0.030 A 
HETATM   15  C   UNL     1       7.158  26.182  53.473  1.00  0.00     0.014 A 
HETATM   16  C   UNL     1       7.128  25.589  52.205  1.00  0.00     0.001 A 
HETATM   17  C   UNL     1       7.567  24.281  52.023  1.00  0.00     0.002 A 
ENDBRANCH   6   7
ENDBRANCH   1   5
BRANCH   2  18
HETATM   18  C   UNL     1       8.295  31.106  58.763  1.00  0.00     0.197 C 
BRANCH  18  19
HETATM   19  N   UNL     1       7.730  30.632  60.031  1.00  0.00    -0.282 NA
HETATM   20  H   UNL     1       8.239  29.808  60.369  1.00  0.00     0.128 HD
BRANCH  19  21
HETATM   21  C   UNL     1       7.558  31.555  61.075  1.00  0.00     0.047 A 
HETATM   22  C   UNL     1       8.282  31.403  62.270  1.00  0.00     0.137 A 
HETATM   23  F   UNL     1       9.186  30.414  62.367  1.00  0.00    -0.204 F 
HETATM   24  C   UNL     1       8.105  32.256  63.357  1.00  0.00     0.044 A 
HETATM   25  C   UNL     1       7.168  33.281  63.276  1.00  0.00     0.003 A 
HETATM   26  C   UNL     1       6.413  33.438  62.114  1.00  0.00     0.002 A 
HETATM   27  C   UNL     1       6.602  32.577  61.025  1.00  0.00     0.026 A 
ENDBRANCH  19  21
ENDBRANCH  18  19
ENDBRANCH   2  18
TORSDOF 5
ENDMDL
MODEL 7
REMARK VINA RESULT:      -8.2      2.727      3.686
REMARK  5 active torsions:
REMARK  status: ('A' for Active; 'I' for Inactive)
REMARK    1  A    between atoms: C_7  and  C_8 
REMARK    2  A    between atoms: N_9  and  N_10 
REMARK       I    between atoms: N_10  and  C_11 
REMARK    3  A    between atoms: C_11  and  C_12 
REMARK    4  A    between atoms: C_12  and  N_13 
REMARK    5  A    between atoms: N_13  and  C_14 
ROOT
HETATM    1  N   UNL     1       7.572  28.511  57.984  1.00  0.00    -0.246 N 
HETATM    2  C   UNL     1       7.084  29.814  57.946  1.00  0.00     0.250 C 
HETATM    3  O   UNL     1       6.080  30.190  57.343  1.00  0.00    -0.270 OA
HETATM    4  H   UNL     1       8.477  28.345  58.417  1.00  0.00     0.192 HD
ENDROOT
BRANCH   1   5
HETATM    5  N   UNL     1       7.158  27.475  57.181  1.00  0.00    -0.184 NA
HETATM    6  C   UNL     1       7.662  27.359  55.993  1.00  0.00     0.153 C 
BRANCH   6   7
HETATM    7  C   UNL     1       7.302  26.227  55.152  1.00  0.00     0.018 A 
HETATM    8  C   UNL     1       6.516  26.237  54.006  1.00  0.00     0.018 A 
HETATM    9  C   UNL     1       5.826  27.348  53.299  1.00  0.00     0.069 C 
HETATM   10  N   UNL     1       6.434  24.947  53.544  1.00  0.00    -0.358 N 
HETATM   11  H   UNL     1       5.921  24.655  52.724  1.00  0.00     0.166 HD
HETATM   12  C   UNL     1       7.139  24.092  54.356  1.00  0.00     0.043 A 
HETATM   13  C   UNL     1       7.698  24.863  55.374  1.00  0.00     0.004 A 
HETATM   14  C   UNL     1       7.317  22.706  54.265  1.00  0.00     0.030 A 
HETATM   15  C   UNL     1       8.475  24.211  56.356  1.00  0.00     0.014 A 
HETATM   16  C   UNL     1       8.664  22.825  56.281  1.00  0.00     0.001 A 
HETATM   17  C   UNL     1       8.092  22.086  55.249  1.00  0.00     0.002 A 
ENDBRANCH   6   7
ENDBRANCH   1   5
BRANCH   2  18
HETATM   18  C   UNL     1       7.924  30.797  58.771  1.00  0.00     0.197 C 
BRANCH  18  19
HETATM   19  N   UNL     1       7.942  30.425  60.190  1.00  0.00    -0.282 NA
HETATM   20  H   UNL     1       8.800  29.912  60.419  1.00  0.00     0.128 HD
BRANCH  19  21
HETATM   21  C   UNL     1       7.706  31.425  61.147  1.00  0.00     0.047 A 
HETATM   22  C   UNL     1       8.197  31.270  62.455  1.00  0.00     0.137 A 
HETATM   23  F   UNL     1       8.949  30.197  62.750  1.00  0.00    -0.204 F 
HETATM   24  C   UNL     1       7.940  32.204  63.457  1.00  0.00     0.044 A 
HETATM   25  C   UNL     1       7.157  33.317  63.170  1.00  0.00     0.003 A 
HETATM   26  C   UNL     1       6.632  33.481  61.888  1.00  0.00     0.002 A 
HETATM   27  C   UNL     1       6.898  32.538  60.888  1.00  0.00     0.026 A 
ENDBRANCH  19  21
ENDBRANCH  18  19
ENDBRANCH   2  18
TORSDOF 5
ENDMDL
MODEL 8
REMARK VINA RESULT:      -8.1      4.985      8.563
REMARK  5 active torsions:
REMARK  status: ('A' for Active; 'I' for Inactive)
REMARK    1  A    between atoms: C_7  and  C_8 
REMARK    2  A    between atoms: N_9  and  N_10 
REMARK       I    between atoms: N_10  and  C_11 
REMARK    3  A    between atoms: C_11  and  C_12 
REMARK    4  A    between atoms: C_12  and  N_13 
REMARK    5  A    between atoms: N_13  and  C_14 
ROOT
HETATM    1  N   UNL     1       4.889  26.108  52.916  1.00  0.00    -0.246 N 
HETATM    2  C   UNL     1       6.111  26.072  53.582  1.00  0.00     0.250 C 
HETATM    3  O   UNL     1       7.047  26.852  53.414  1.00  0.00    -0.270 OA
HETATM    4  H   UNL     1       4.239  25.339  53.054  1.00  0.00     0.192 HD
ENDROOT
BRANCH   1   5
HETATM    5  N   UNL     1       4.602  26.868  51.806  1.00  0.00    -0.184 NA
HETATM    6  C   UNL     1       4.997  26.456  50.644  1.00  0.00     0.153 C 
BRANCH   6   7
HETATM    7  C   UNL     1       4.638  27.198  49.444  1.00  0.00     0.018 A 
HETATM    8  C   UNL     1       3.968  26.724  48.322  1.00  0.00     0.018 A 
HETATM    9  C   UNL     1       3.423  25.379  47.999  1.00  0.00     0.069 C 
HETATM   10  N   UNL     1       3.854  27.765  47.433  1.00  0.00    -0.358 N 
HETATM   11  H   UNL     1       3.412  27.708  46.526  1.00  0.00     0.166 HD
HETATM   12  C   UNL     1       4.433  28.903  47.938  1.00  0.00     0.043 A 
HETATM   13  C   UNL     1       4.933  28.583  49.199  1.00  0.00     0.004 A 
HETATM   14  C   UNL     1       4.553  30.179  47.373  1.00  0.00     0.030 A 
HETATM   15  C   UNL     1       5.591  29.594  49.933  1.00  0.00     0.014 A 
HETATM   16  C   UNL     1       5.720  30.876  49.384  1.00  0.00     0.001 A 
HETATM   17  C   UNL     1       5.206  31.161  48.121  1.00  0.00     0.002 A 
ENDBRANCH   6   7
ENDBRANCH   1   5
BRANCH   2  18
HETATM   18  C   UNL     1       6.203  24.938  54.611  1.00  0.00     0.197 C 
BRANCH  18  19
HETATM   19  N   UNL     1       7.575  24.430  54.724  1.00  0.00    -0.282 NA
HETATM   20  H   UNL     1       7.999  24.726  55.609  1.00  0.00     0.128 HD
BRANCH  19  21
HETATM   21  C   UNL     1       7.800  23.059  54.516  1.00  0.00     0.047 A 
HETATM   22  C   UNL     1       7.963  22.568  53.209  1.00  0.00     0.137 A 
HETATM   23  F   UNL     1       7.975  23.432  52.181  1.00  0.00    -0.204 F 
HETATM   24  C   UNL     1       8.130  21.211  52.945  1.00  0.00     0.044 A 
HETATM   25  C   UNL     1       8.113  20.301  53.998  1.00  0.00     0.003 A 
HETATM   26  C   UNL     1       7.922  20.757  55.301  1.00  0.00     0.002 A 
HETATM   27  C   UNL     1       7.759  22.124  55.557  1.00  0.00     0.026 A 
ENDBRANCH  19  21
ENDBRANCH  18  19
ENDBRANCH   2  18
TORSDOF 5
ENDMDL
MODEL 9
REMARK VINA RESULT:      -8.0      2.832      8.762
REMARK  5 active torsions:
REMARK  status: ('A' for Active; 'I' for Inactive)
REMARK    1  A    between atoms: C_7  and  C_8 
REMARK    2  A    between atoms: N_9  and  N_10 
REMARK       I    between atoms: N_10  and  C_11 
REMARK    3  A    between atoms: C_11  and  C_12 
REMARK    4  A    between atoms: C_12  and  N_13 
REMARK    5  A    between atoms: N_13  and  C_14 
ROOT
HETATM    1  N   UNL     1       6.530  28.314  56.526  1.00  0.00    -0.246 N 
HETATM    2  C   UNL     1       5.457  27.796  55.805  1.00  0.00     0.250 C 
HETATM    3  O   UNL     1       4.282  28.142  55.912  1.00  0.00    -0.270 OA
HETATM    4  H   UNL     1       7.436  27.864  56.435  1.00  0.00     0.192 HD
ENDROOT
BRANCH   1   5
HETATM    5  N   UNL     1       6.436  29.128  57.630  1.00  0.00    -0.184 NA
HETATM    6  C   UNL     1       6.902  30.335  57.563  1.00  0.00     0.153 C 
BRANCH   6   7
HETATM    7  C   UNL     1       6.743  31.244  58.688  1.00  0.00     0.018 A 
HETATM    8  C   UNL     1       5.781  32.234  58.850  1.00  0.00     0.018 A 
HETATM    9  C   UNL     1       4.657  32.663  57.977  1.00  0.00     0.069 C 
HETATM   10  N   UNL     1       6.017  32.853  60.053  1.00  0.00    -0.358 N 
HETATM   11  H   UNL     1       5.472  33.615  60.430  1.00  0.00     0.166 HD
HETATM   12  C   UNL     1       7.106  32.300  60.681  1.00  0.00     0.043 A 
HETATM   13  C   UNL     1       7.585  31.286  59.852  1.00  0.00     0.004 A 
HETATM   14  C   UNL     1       7.698  32.623  61.908  1.00  0.00     0.030 A 
HETATM   15  C   UNL     1       8.719  30.559  60.274  1.00  0.00     0.014 A 
HETATM   16  C   UNL     1       9.324  30.868  61.498  1.00  0.00     0.001 A 
HETATM   17  C   UNL     1       8.818  31.886  62.302  1.00  0.00     0.002 A 
ENDBRANCH   6   7
ENDBRANCH   1   5
BRANCH   2  18
HETATM   18  C   UNL     1       5.873  26.715  54.799  1.00  0.00     0.197 C 
BRANCH  18  19
HETATM   19  N   UNL     1       6.796  25.749  55.404  1.00  0.00    -0.282 NA
HETATM   20  H   UNL     1       6.466  25.464  56.332  1.00  0.00     0.128 HD
BRANCH  19  21
HETATM   21  C   UNL     1       7.167  24.619  54.656  1.00  0.00     0.047 A 
HETATM   22  C   UNL     1       7.465  23.413  55.313  1.00  0.00     0.137 A 
HETATM   23  F   UNL     1       7.318  23.339  56.646  1.00  0.00    -0.204 F 
HETATM   24  C   UNL     1       7.896  22.282  54.623  1.00  0.00     0.044 A 
HETATM   25  C   UNL     1       8.060  22.343  53.243  1.00  0.00     0.003 A 
HETATM   26  C   UNL     1       7.801  23.536  52.569  1.00  0.00     0.002 A 
HETATM   27  C   UNL     1       7.366  24.667  53.271  1.00  0.00     0.026 A 
ENDBRANCH  19  21
ENDBRANCH  18  19
ENDBRANCH   2  18
TORSDOF 5
ENDMDL
MODEL 10
REMARK VINA RESULT:      -8.0      1.343      1.738
REMARK  5 active torsions:
REMARK  status: ('A' for Active; 'I' for Inactive)
REMARK    1  A    between atoms: C_7  and  C_8 
REMARK    2  A    between atoms: N_9  and  N_10 
REMARK       I    between atoms: N_10  and  C_11 
REMARK    3  A    between atoms: C_11  and  C_12 
REMARK    4  A    between atoms: C_12  and  N_13 
REMARK    5  A    between atoms: N_13  and  C_14 
ROOT
HETATM    1  N   UNL     1       6.620  27.100  56.530  1.00  0.00    -0.246 N 
HETATM    2  C   UNL     1       5.773  28.117  56.096  1.00  0.00     0.250 C 
HETATM    3  O   UNL     1       5.190  28.157  55.013  1.00  0.00    -0.270 OA
HETATM    4  H   UNL     1       7.136  27.236  57.394  1.00  0.00     0.192 HD
ENDROOT
BRANCH   1   5
HETATM    5  N   UNL     1       7.128  26.091  55.747  1.00  0.00    -0.184 NA
HETATM    6  C   UNL     1       6.566  24.925  55.782  1.00  0.00     0.153 C 
BRANCH   6   7
HETATM    7  C   UNL     1       7.032  23.861  54.904  1.00  0.00     0.018 A 
HETATM    8  C   UNL     1       7.002  23.833  53.515  1.00  0.00     0.018 A 
HETATM    9  C   UNL     1       6.515  24.827  52.523  1.00  0.00     0.069 C 
HETATM   10  N   UNL     1       7.534  22.633  53.110  1.00  0.00    -0.358 N 
HETATM   11  H   UNL     1       7.635  22.338  52.149  1.00  0.00     0.166 HD
HETATM   12  C   UNL     1       7.908  21.875  54.192  1.00  0.00     0.043 A 
HETATM   13  C   UNL     1       7.608  22.616  55.334  1.00  0.00     0.004 A 
HETATM   14  C   UNL     1       8.480  20.598  54.242  1.00  0.00     0.030 A 
HETATM   15  C   UNL     1       7.894  22.047  56.594  1.00  0.00     0.014 A 
HETATM   16  C   UNL     1       8.466  20.771  56.663  1.00  0.00     0.001 A 
HETATM   17  C   UNL     1       8.754  20.059  55.502  1.00  0.00     0.002 A 
ENDBRANCH   6   7
ENDBRANCH   1   5
BRANCH   2  18
HETATM   18  C   UNL     1       5.594  29.235  57.130  1.00  0.00     0.197 C 
BRANCH  18  19
HETATM   19  N   UNL     1       6.683  30.215  57.051  1.00  0.00    -0.282 NA
HETATM   20  H   UNL     1       6.404  31.023  56.486  1.00  0.00     0.128 HD
BRANCH  19  21
HETATM   21  C   UNL     1       7.284  30.646  58.245  1.00  0.00     0.047 A 
HETATM   22  C   UNL     1       6.661  31.636  59.024  1.00  0.00     0.137 A 
HETATM   23  F   UNL     1       5.458  32.103  58.650  1.00  0.00    -0.204 F 
HETATM   24  C   UNL     1       7.243  32.140  60.184  1.00  0.00     0.044 A 
HETATM   25  C   UNL     1       8.492  31.672  60.582  1.00  0.00     0.003 A 
HETATM   26  C   UNL     1       9.147  30.712  59.812  1.00  0.00     0.002 A 
HETATM   27  C   UNL     1       8.552  30.209  58.649  1.00  0.00     0.026 A 
ENDBRANCH  19  21
ENDBRANCH  18  19
ENDBRANCH   2  18
TORSDOF 5
ENDMDL
