MODEL 1
REMARK VINA RESULT:      -9.1      0.000      0.000
REMARK  4 active torsions:
REMARK  status: ('A' for Active; 'I' for Inactive)
REMARK    1  A    between atoms: C_9  and  C_10 
REMARK    2  A    between atoms: C_22  and  C_23 
REMARK    3  A    between atoms: C_23  and  C_24 
REMARK    4  A    between atoms: C_24  and  O_25 
ROOT
HETATM    1  C   UNL     1      11.472  29.473  57.184  1.00  0.00     0.069 C 
HETATM    2  C   UNL     1       9.969  29.380  57.301  1.00  0.00     0.018 A 
HETATM    3  N   UNL     1       9.407  28.208  56.815  1.00  0.00    -0.343 N 
HETATM    4  C   UNL     1       8.089  27.935  56.946  1.00  0.00     0.146 A 
HETATM    5  N   UNL     1       7.273  28.898  57.495  1.00  0.00    -0.179 N 
HETATM    6  N   UNL     1       5.976  28.498  57.559  1.00  0.00    -0.167 NA
HETATM    7  C   UNL     1       5.989  27.255  57.057  1.00  0.00     0.066 A 
HETATM    8  C   UNL     1       4.722  26.485  56.970  1.00  0.00     0.073 C 
HETATM    9  C   UNL     1       7.296  26.846  56.662  1.00  0.00     0.047 A 
HETATM   10  C   UNL     1       7.720  30.143  57.962  1.00  0.00     0.278 A 
HETATM   11  O   UNL     1       6.948  30.969  58.435  1.00  0.00    -0.265 OA
HETATM   12  C   UNL     1       9.210  30.350  57.868  1.00  0.00     0.036 A 
HETATM   13  H   UNL     1      10.046  27.517  56.419  1.00  0.00     0.167 HD
ENDROOT
BRANCH   9  14
HETATM   14  C   UNL     1       7.763  25.615  56.038  1.00  0.00    -0.009 A 
HETATM   15  C   UNL     1       7.660  25.375  54.635  1.00  0.00    -0.015 A 
HETATM   16  C   UNL     1       8.076  24.114  54.137  1.00  0.00    -0.025 A 
HETATM   17  C   UNL     1       7.172  26.314  53.690  1.00  0.00     0.013 A 
HETATM   18  C   UNL     1       7.957  23.820  52.768  1.00  0.00     0.012 A 
HETATM   19  C   UNL     1       8.612  23.156  55.010  1.00  0.00     0.012 A 
HETATM   20  C   UNL     1       7.440  24.755  51.873  1.00  0.00     0.001 A 
HETATM   21  C   UNL     1       7.055  26.006  52.333  1.00  0.00     0.001 A 
HETATM   22  C   UNL     1       8.734  23.415  56.373  1.00  0.00     0.002 A 
HETATM   23  C   UNL     1       8.305  24.635  56.884  1.00  0.00     0.013 A 
ENDBRANCH   9  14
BRANCH  12  24
HETATM   24  C   UNL     1       9.698  31.674  58.406  1.00  0.00     0.072 C 
BRANCH  24  25
HETATM   25  C   UNL     1       9.645  31.756  59.932  1.00  0.00     0.169 C 
BRANCH  25  26
HETATM   26  O   UNL     1       8.785  32.810  60.351  1.00  0.00    -0.401 OA
HETATM   27  H   UNL     1       9.180  33.643  60.038  1.00  0.00     0.209 HD
ENDBRANCH  25  26
ENDBRANCH  24  25
ENDBRANCH  12  24
TORSDOF 4
ENDMDL
MODEL 2
REMARK VINA RESULT:      -8.6      0.749      2.252
REMARK  4 active torsions:
REMARK  status: ('A' for Active; 'I' for Inactive)
REMARK    1  A    between atoms: C_9  and  C_10 
REMARK    2  A    between atoms: C_22  and  C_23 
REMARK    3  A    between atoms: C_23  and  C_24 
REMARK    4  A    between atoms: C_24  and  O_25 
ROOT
HETATM    1  C   UNL     1      11.306  29.697  57.111  1.00  0.00     0.069 C 
HETATM    2  C   UNL     1       9.802  29.696  57.253  1.00  0.00     0.018 A 
HETATM    3  N   UNL     1       9.133  28.757  56.481  1.00  0.00    -0.343 N 
HETATM    4  C   UNL     1       7.798  28.565  56.579  1.00  0.00     0.146 A 
HETATM    5  N   UNL     1       7.077  29.397  57.404  1.00  0.00    -0.179 N 
HETATM    6  N   UNL     1       5.751  29.102  57.402  1.00  0.00    -0.167 NA
HETATM    7  C   UNL     1       5.648  28.052  56.574  1.00  0.00     0.066 A 
HETATM    8  C   UNL     1       4.318  27.442  56.323  1.00  0.00     0.073 C 
HETATM    9  C   UNL     1       6.909  27.666  56.033  1.00  0.00     0.047 A 
HETATM   10  C   UNL     1       7.637  30.421  58.182  1.00  0.00     0.278 A 
HETATM   11  O   UNL     1       6.947  31.142  58.894  1.00  0.00    -0.265 OA
HETATM   12  C   UNL     1       9.138  30.527  58.094  1.00  0.00     0.036 A 
HETATM   13  H   UNL     1       9.704  28.155  55.886  1.00  0.00     0.167 HD
ENDROOT
BRANCH   9  14
HETATM   14  C   UNL     1       7.258  26.626  55.075  1.00  0.00    -0.009 A 
HETATM   15  C   UNL     1       7.679  25.322  55.471  1.00  0.00    -0.015 A 
HETATM   16  C   UNL     1       8.068  24.405  54.460  1.00  0.00    -0.025 A 
HETATM   17  C   UNL     1       7.736  24.866  56.813  1.00  0.00     0.013 A 
HETATM   18  C   UNL     1       8.526  23.123  54.807  1.00  0.00     0.012 A 
HETATM   19  C   UNL     1       7.992  24.776  53.109  1.00  0.00     0.012 A 
HETATM   20  C   UNL     1       8.601  22.720  56.139  1.00  0.00     0.001 A 
HETATM   21  C   UNL     1       8.197  23.590  57.143  1.00  0.00     0.001 A 
HETATM   22  C   UNL     1       7.551  26.042  52.736  1.00  0.00     0.002 A 
HETATM   23  C   UNL     1       7.193  26.964  53.713  1.00  0.00     0.013 A 
ENDBRANCH   9  14
BRANCH  12  24
HETATM   24  C   UNL     1       9.747  31.603  58.961  1.00  0.00     0.072 C 
BRANCH  24  25
HETATM   25  C   UNL     1       9.573  31.337  60.457  1.00  0.00     0.169 C 
BRANCH  25  26
HETATM   26  O   UNL     1       8.702  32.300  61.042  1.00  0.00    -0.401 OA
HETATM   27  H   UNL     1       9.050  33.179  60.810  1.00  0.00     0.209 HD
ENDBRANCH  25  26
ENDBRANCH  24  25
ENDBRANCH  12  24
TORSDOF 4
ENDMDL
MODEL 3
REMARK VINA RESULT:      -8.4      3.816      7.280
REMARK  4 active torsions:
REMARK  status: ('A' for Active; 'I' for Inactive)
REMARK    1  A    between atoms: C_9  and  C_10 
REMARK    2  A    between atoms: C_22  and  C_23 
REMARK    3  A    between atoms: C_23  and  C_24 
REMARK    4  A    between atoms: C_24  and  O_25 
ROOT
HETATM    1  C   UNL     1       8.432  23.169  57.065  1.00  0.00     0.069 C 
HETATM    2  C   UNL     1       8.023  23.765  55.739  1.00  0.00     0.018 A 
HETATM    3  N   UNL     1       7.406  25.006  55.810  1.00  0.00    -0.343 N 
HETATM    4  C   UNL     1       7.079  25.711  54.704  1.00  0.00     0.146 A 
HETATM    5  N   UNL     1       7.283  25.129  53.474  1.00  0.00    -0.179 N 
HETATM    6  N   UNL     1       6.905  25.940  52.451  1.00  0.00    -0.167 NA
HETATM    7  C   UNL     1       6.473  27.055  53.057  1.00  0.00     0.066 A 
HETATM    8  C   UNL     1       5.975  28.190  52.239  1.00  0.00     0.073 C 
HETATM    9  C   UNL     1       6.569  26.969  54.477  1.00  0.00     0.047 A 
HETATM   10  C   UNL     1       7.841  23.856  53.282  1.00  0.00     0.278 A 
HETATM   11  O   UNL     1       7.992  23.380  52.163  1.00  0.00    -0.265 OA
HETATM   12  C   UNL     1       8.263  23.159  54.550  1.00  0.00     0.036 A 
HETATM   13  H   UNL     1       7.276  25.406  56.741  1.00  0.00     0.167 HD
ENDROOT
BRANCH   9  14
HETATM   14  C   UNL     1       6.180  27.912  55.518  1.00  0.00    -0.009 A 
HETATM   15  C   UNL     1       7.130  28.573  56.353  1.00  0.00    -0.015 A 
HETATM   16  C   UNL     1       6.644  29.415  57.386  1.00  0.00    -0.025 A 
HETATM   17  C   UNL     1       8.537  28.453  56.225  1.00  0.00     0.013 A 
HETATM   18  C   UNL     1       7.542  30.055  58.257  1.00  0.00     0.012 A 
HETATM   19  C   UNL     1       5.264  29.614  57.539  1.00  0.00     0.012 A 
HETATM   20  C   UNL     1       8.919  29.888  58.122  1.00  0.00     0.001 A 
HETATM   21  C   UNL     1       9.418  29.092  57.100  1.00  0.00     0.001 A 
HETATM   22  C   UNL     1       4.350  28.986  56.697  1.00  0.00     0.002 A 
HETATM   23  C   UNL     1       4.806  28.135  55.697  1.00  0.00     0.013 A 
ENDBRANCH   9  14
BRANCH  12  24
HETATM   24  C   UNL     1       8.899  21.805  54.344  1.00  0.00     0.072 C 
BRANCH  24  25
HETATM   25  C   UNL     1       7.877  20.693  54.106  1.00  0.00     0.169 C 
BRANCH  25  26
HETATM   26  O   UNL     1       7.977  20.191  52.777  1.00  0.00    -0.401 OA
HETATM   27  H   UNL     1       7.071  20.123  52.427  1.00  0.00     0.209 HD
ENDBRANCH  25  26
ENDBRANCH  24  25
ENDBRANCH  12  24
TORSDOF 4
ENDMDL
MODEL 4
REMARK VINA RESULT:      -8.2      3.222      6.773
REMARK  4 active torsions:
REMARK  status: ('A' for Active; 'I' for Inactive)
REMARK    1  A    between atoms: C_9  and  C_10 
REMARK    2  A    between atoms: C_22  and  C_23 
REMARK    3  A    between atoms: C_23  and  C_24 
REMARK    4  A    between atoms: C_24  and  O_25 
ROOT
HETATM    1  C   UNL     1       8.896  24.331  57.409  1.00  0.00     0.069 C 
HETATM    2  C   UNL     1       7.864  24.980  56.518  1.00  0.00     0.018 A 
HETATM    3  N   UNL     1       7.606  26.317  56.784  1.00  0.00    -0.343 N 
HETATM    4  C   UNL     1       6.787  27.060  56.006  1.00  0.00     0.146 A 
HETATM    5  N   UNL     1       6.120  26.436  54.977  1.00  0.00    -0.179 N 
HETATM    6  N   UNL     1       5.326  27.293  54.283  1.00  0.00    -0.167 NA
HETATM    7  C   UNL     1       5.518  28.478  54.881  1.00  0.00     0.066 A 
HETATM    8  C   UNL     1       4.801  29.678  54.380  1.00  0.00     0.073 C 
HETATM    9  C   UNL     1       6.436  28.391  55.968  1.00  0.00     0.047 A 
HETATM   10  C   UNL     1       6.254  25.077  54.654  1.00  0.00     0.278 A 
HETATM   11  O   UNL     1       5.627  24.568  53.732  1.00  0.00    -0.265 OA
HETATM   12  C   UNL     1       7.247  24.326  55.504  1.00  0.00     0.036 A 
HETATM   13  H   UNL     1       8.125  26.745  57.553  1.00  0.00     0.167 HD
ENDROOT
BRANCH   9  14
HETATM   14  C   UNL     1       6.898  29.402  56.909  1.00  0.00    -0.009 A 
HETATM   15  C   UNL     1       8.273  29.758  57.046  1.00  0.00    -0.015 A 
HETATM   16  C   UNL     1       8.627  30.702  58.044  1.00  0.00    -0.025 A 
HETATM   17  C   UNL     1       9.323  29.237  56.248  1.00  0.00     0.013 A 
HETATM   18  C   UNL     1       9.973  31.052  58.240  1.00  0.00     0.012 A 
HETATM   19  C   UNL     1       7.631  31.291  58.838  1.00  0.00     0.012 A 
HETATM   20  C   UNL     1      10.984  30.495  57.459  1.00  0.00     0.001 A 
HETATM   21  C   UNL     1      10.658  29.592  56.456  1.00  0.00     0.001 A 
HETATM   22  C   UNL     1       6.290  30.956  58.673  1.00  0.00     0.002 A 
HETATM   23  C   UNL     1       5.926  30.012  57.719  1.00  0.00     0.013 A 
ENDBRANCH   9  14
BRANCH  12  24
HETATM   24  C   UNL     1       7.422  22.872  55.134  1.00  0.00     0.072 C 
BRANCH  24  25
HETATM   25  C   UNL     1       8.532  22.646  54.106  1.00  0.00     0.169 C 
BRANCH  25  26
HETATM   26  O   UNL     1       8.083  22.982  52.797  1.00  0.00    -0.401 OA
HETATM   27  H   UNL     1       7.200  22.588  52.687  1.00  0.00     0.209 HD
ENDBRANCH  25  26
ENDBRANCH  24  25
ENDBRANCH  12  24
TORSDOF 4
ENDMDL
MODEL 5
REMARK VINA RESULT:      -7.9      4.591      7.253
REMARK  4 active torsions:
REMARK  status: ('A' for Active; 'I' for Inactive)
REMARK    1  A    between atoms: C_9  and  C_10 
REMARK    2  A    between atoms: C_22  and  C_23 
REMARK    3  A    between atoms: C_23  and  C_24 
REMARK    4  A    between atoms: C_24  and  O_25 
ROOT
HETATM    1  C   UNL     1       3.133  30.023  52.782  1.00  0.00     0.069 C 
HETATM    2  C   UNL     1       3.960  28.906  52.192  1.00  0.00     0.018 A 
HETATM    3  N   UNL     1       4.761  28.221  53.094  1.00  0.00    -0.343 N 
HETATM    4  C   UNL     1       5.477  27.130  52.736  1.00  0.00     0.146 A 
HETATM    5  N   UNL     1       5.477  26.755  51.412  1.00  0.00    -0.179 N 
HETATM    6  N   UNL     1       6.240  25.653  51.189  1.00  0.00    -0.167 NA
HETATM    7  C   UNL     1       6.710  25.326  52.402  1.00  0.00     0.066 A 
HETATM    8  C   UNL     1       7.598  24.146  52.553  1.00  0.00     0.073 C 
HETATM    9  C   UNL     1       6.253  26.219  53.415  1.00  0.00     0.047 A 
HETATM   10  C   UNL     1       4.755  27.409  50.402  1.00  0.00     0.278 A 
HETATM   11  O   UNL     1       4.798  27.038  49.235  1.00  0.00    -0.265 OA
HETATM   12  C   UNL     1       3.911  28.562  50.882  1.00  0.00     0.036 A 
HETATM   13  H   UNL     1       4.730  28.527  54.068  1.00  0.00     0.167 HD
ENDROOT
BRANCH   9  14
HETATM   14  C   UNL     1       6.543  26.271  54.842  1.00  0.00    -0.009 A 
HETATM   15  C   UNL     1       7.429  27.231  55.415  1.00  0.00    -0.015 A 
HETATM   16  C   UNL     1       7.701  27.149  56.805  1.00  0.00    -0.025 A 
HETATM   17  C   UNL     1       8.063  28.274  54.693  1.00  0.00     0.013 A 
HETATM   18  C   UNL     1       8.598  28.049  57.404  1.00  0.00     0.012 A 
HETATM   19  C   UNL     1       7.072  26.169  57.587  1.00  0.00     0.012 A 
HETATM   20  C   UNL     1       9.230  29.042  56.657  1.00  0.00     0.001 A 
HETATM   21  C   UNL     1       8.956  29.159  55.301  1.00  0.00     0.001 A 
HETATM   22  C   UNL     1       6.185  25.258  57.020  1.00  0.00     0.002 A 
HETATM   23  C   UNL     1       5.928  25.304  55.654  1.00  0.00     0.013 A 
ENDBRANCH   9  14
BRANCH  12  24
HETATM   24  C   UNL     1       3.103  29.244  49.803  1.00  0.00     0.072 C 
BRANCH  24  25
HETATM   25  C   UNL     1       1.675  28.706  49.695  1.00  0.00     0.169 C 
BRANCH  25  26
HETATM   26  O   UNL     1       1.668  27.414  49.095  1.00  0.00    -0.401 OA
HETATM   27  H   UNL     1       1.824  27.539  48.143  1.00  0.00     0.209 HD
ENDBRANCH  25  26
ENDBRANCH  24  25
ENDBRANCH  12  24
TORSDOF 4
ENDMDL
MODEL 6
REMARK VINA RESULT:      -7.8      4.792      7.837
REMARK  4 active torsions:
REMARK  status: ('A' for Active; 'I' for Inactive)
REMARK    1  A    between atoms: C_9  and  C_10 
REMARK    2  A    between atoms: C_22  and  C_23 
REMARK    3  A    between atoms: C_23  and  C_24 
REMARK    4  A    between atoms: C_24  and  O_25 
ROOT
HETATM    1  C   UNL     1       5.554  30.761  49.983  1.00  0.00     0.069 C 
HETATM    2  C   UNL     1       5.455  29.335  50.469  1.00  0.00     0.018 A 
HETATM    3  N   UNL     1       5.889  29.119  51.770  1.00  0.00    -0.343 N 
HETATM    4  C   UNL     1       5.765  27.919  52.379  1.00  0.00     0.146 A 
HETATM    5  N   UNL     1       5.279  26.861  51.646  1.00  0.00    -0.179 N 
HETATM    6  N   UNL     1       5.214  25.715  52.375  1.00  0.00    -0.167 NA
HETATM    7  C   UNL     1       5.652  26.073  53.591  1.00  0.00     0.066 A 
HETATM    8  C   UNL     1       5.718  25.061  54.675  1.00  0.00     0.073 C 
HETATM    9  C   UNL     1       6.004  27.453  53.652  1.00  0.00     0.047 A 
HETATM   10  C   UNL     1       4.869  26.946  50.307  1.00  0.00     0.278 A 
HETATM   11  O   UNL     1       4.452  25.968  49.696  1.00  0.00    -0.265 OA
HETATM   12  C   UNL     1       4.951  28.329  49.713  1.00  0.00     0.036 A 
HETATM   13  H   UNL     1       6.239  29.931  52.282  1.00  0.00     0.167 HD
ENDROOT
BRANCH   9  14
HETATM   14  C   UNL     1       6.557  28.248  54.741  1.00  0.00    -0.009 A 
HETATM   15  C   UNL     1       5.742  28.996  55.642  1.00  0.00    -0.015 A 
HETATM   16  C   UNL     1       6.383  29.797  56.622  1.00  0.00    -0.025 A 
HETATM   17  C   UNL     1       4.323  28.995  55.635  1.00  0.00     0.013 A 
HETATM   18  C   UNL     1       5.620  30.579  57.504  1.00  0.00     0.012 A 
HETATM   19  C   UNL     1       7.782  29.808  56.714  1.00  0.00     0.012 A 
HETATM   20  C   UNL     1       4.227  30.580  57.447  1.00  0.00     0.001 A 
HETATM   21  C   UNL     1       3.578  29.781  56.516  1.00  0.00     0.001 A 
HETATM   22  C   UNL     1       8.565  29.050  55.847  1.00  0.00     0.002 A 
HETATM   23  C   UNL     1       7.956  28.280  54.862  1.00  0.00     0.013 A 
ENDBRANCH   9  14
BRANCH  12  24
HETATM   24  C   UNL     1       4.474  28.431  48.284  1.00  0.00     0.072 C 
BRANCH  24  25
HETATM   25  C   UNL     1       5.588  28.196  47.263  1.00  0.00     0.169 C 
BRANCH  25  26
HETATM   26  O   UNL     1       5.769  26.803  47.026  1.00  0.00    -0.401 OA
HETATM   27  H   UNL     1       5.055  26.338  47.495  1.00  0.00     0.209 HD
ENDBRANCH  25  26
ENDBRANCH  24  25
ENDBRANCH  12  24
TORSDOF 4
ENDMDL
MODEL 7
REMARK VINA RESULT:      -7.7      5.478     10.284
REMARK  4 active torsions:
REMARK  status: ('A' for Active; 'I' for Inactive)
REMARK    1  A    between atoms: C_9  and  C_10 
REMARK    2  A    between atoms: C_22  and  C_23 
REMARK    3  A    between atoms: C_23  and  C_24 
REMARK    4  A    between atoms: C_24  and  O_25 
ROOT
HETATM    1  C   UNL     1       9.455  31.132  61.811  1.00  0.00     0.069 C 
HETATM    2  C   UNL     1       8.234  31.490  60.998  1.00  0.00     0.018 A 
HETATM    3  N   UNL     1       7.300  32.285  61.648  1.00  0.00    -0.343 N 
HETATM    4  C   UNL     1       6.208  32.774  61.018  1.00  0.00     0.146 A 
HETATM    5  N   UNL     1       5.977  32.387  59.717  1.00  0.00    -0.179 N 
HETATM    6  N   UNL     1       4.846  32.942  59.209  1.00  0.00    -0.167 NA
HETATM    7  C   UNL     1       4.374  33.703  60.207  1.00  0.00     0.066 A 
HETATM    8  C   UNL     1       3.124  34.481  60.010  1.00  0.00     0.073 C 
HETATM    9  C   UNL     1       5.198  33.641  61.368  1.00  0.00     0.047 A 
HETATM   10  C   UNL     1       6.818  31.539  58.981  1.00  0.00     0.278 A 
HETATM   11  O   UNL     1       6.559  31.218  57.827  1.00  0.00    -0.265 OA
HETATM   12  C   UNL     1       8.061  31.099  59.712  1.00  0.00     0.036 A 
HETATM   13  H   UNL     1       7.510  32.554  62.611  1.00  0.00     0.167 HD
ENDROOT
BRANCH   9  14
HETATM   14  C   UNL     1       5.049  34.260  62.678  1.00  0.00    -0.009 A 
HETATM   15  C   UNL     1       5.254  35.655  62.900  1.00  0.00    -0.015 A 
HETATM   16  C   UNL     1       5.155  36.146  64.228  1.00  0.00    -0.025 A 
HETATM   17  C   UNL     1       5.548  36.598  61.883  1.00  0.00     0.013 A 
HETATM   18  C   UNL     1       5.388  37.504  64.498  1.00  0.00     0.012 A 
HETATM   19  C   UNL     1       4.822  35.274  65.276  1.00  0.00     0.012 A 
HETATM   20  C   UNL     1       5.708  38.398  63.477  1.00  0.00     0.001 A 
HETATM   21  C   UNL     1       5.781  37.946  62.167  1.00  0.00     0.001 A 
HETATM   22  C   UNL     1       4.595  33.921  65.040  1.00  0.00     0.002 A 
HETATM   23  C   UNL     1       4.715  33.416  63.750  1.00  0.00     0.013 A 
ENDBRANCH   9  14
BRANCH  12  24
HETATM   24  C   UNL     1       8.987  30.218  58.908  1.00  0.00     0.072 C 
BRANCH  24  25
HETATM   25  C   UNL     1       9.931  31.010  58.002  1.00  0.00     0.169 C 
BRANCH  25  26
HETATM   26  O   UNL     1      10.202  32.294  58.557  1.00  0.00    -0.401 OA
HETATM   27  H   UNL     1      11.166  32.356  58.677  1.00  0.00     0.209 HD
ENDBRANCH  25  26
ENDBRANCH  24  25
ENDBRANCH  12  24
TORSDOF 4
ENDMDL
MODEL 8
REMARK VINA RESULT:      -7.7      3.601      5.933
REMARK  4 active torsions:
REMARK  status: ('A' for Active; 'I' for Inactive)
REMARK    1  A    between atoms: C_9  and  C_10 
REMARK    2  A    between atoms: C_22  and  C_23 
REMARK    3  A    between atoms: C_23  and  C_24 
REMARK    4  A    between atoms: C_24  and  O_25 
ROOT
HETATM    1  C   UNL     1       8.018  31.404  63.135  1.00  0.00     0.069 C 
HETATM    2  C   UNL     1       7.191  32.024  62.034  1.00  0.00     0.018 A 
HETATM    3  N   UNL     1       7.275  31.392  60.801  1.00  0.00    -0.343 N 
HETATM    4  C   UNL     1       6.513  31.766  59.748  1.00  0.00     0.146 A 
HETATM    5  N   UNL     1       5.703  32.870  59.887  1.00  0.00    -0.179 N 
HETATM    6  N   UNL     1       5.001  33.140  58.755  1.00  0.00    -0.167 NA
HETATM    7  C   UNL     1       5.370  32.174  57.901  1.00  0.00     0.066 A 
HETATM    8  C   UNL     1       4.792  32.143  56.533  1.00  0.00     0.073 C 
HETATM    9  C   UNL     1       6.315  31.276  58.477  1.00  0.00     0.047 A 
HETATM   10  C   UNL     1       5.584  33.623  61.065  1.00  0.00     0.278 A 
HETATM   11  O   UNL     1       4.854  34.605  61.132  1.00  0.00    -0.265 OA
HETATM   12  C   UNL     1       6.393  33.103  62.226  1.00  0.00     0.036 A 
HETATM   13  H   UNL     1       7.884  30.575  60.740  1.00  0.00     0.167 HD
ENDROOT
BRANCH   9  14
HETATM   14  C   UNL     1       7.008  30.127  57.910  1.00  0.00    -0.009 A 
HETATM   15  C   UNL     1       8.421  30.099  57.711  1.00  0.00    -0.015 A 
HETATM   16  C   UNL     1       8.989  28.961  57.083  1.00  0.00    -0.025 A 
HETATM   17  C   UNL     1       9.310  31.132  58.102  1.00  0.00     0.013 A 
HETATM   18  C   UNL     1      10.370  28.908  56.832  1.00  0.00     0.012 A 
HETATM   19  C   UNL     1       8.172  27.882  56.712  1.00  0.00     0.012 A 
HETATM   20  C   UNL     1      11.210  29.957  57.200  1.00  0.00     0.001 A 
HETATM   21  C   UNL     1      10.681  31.068  57.843  1.00  0.00     0.001 A 
HETATM   22  C   UNL     1       6.799  27.910  56.940  1.00  0.00     0.002 A 
HETATM   23  C   UNL     1       6.219  29.029  57.529  1.00  0.00     0.013 A 
ENDBRANCH   9  14
BRANCH  12  24
HETATM   24  C   UNL     1       6.237  33.889  63.506  1.00  0.00     0.072 C 
BRANCH  24  25
HETATM   25  C   UNL     1       5.203  33.285  64.457  1.00  0.00     0.169 C 
BRANCH  25  26
HETATM   26  O   UNL     1       3.881  33.591  64.025  1.00  0.00    -0.401 OA
HETATM   27  H   UNL     1       3.277  33.005  64.515  1.00  0.00     0.209 HD
ENDBRANCH  25  26
ENDBRANCH  24  25
ENDBRANCH  12  24
TORSDOF 4
ENDMDL
MODEL 9
REMARK VINA RESULT:      -7.7      4.156      7.491
REMARK  4 active torsions:
REMARK  status: ('A' for Active; 'I' for Inactive)
REMARK    1  A    between atoms: C_9  and  C_10 
REMARK    2  A    between atoms: C_22  and  C_23 
REMARK    3  A    between atoms: C_23  and  C_24 
REMARK    4  A    between atoms: C_24  and  O_25 
ROOT
HETATM    1  C   UNL     1       5.419  30.250  50.821  1.00  0.00     0.069 C 
HETATM    2  C   UNL     1       5.446  28.939  51.568  1.00  0.00     0.018 A 
HETATM    3  N   UNL     1       5.619  29.041  52.941  1.00  0.00    -0.343 N 
HETATM    4  C   UNL     1       5.559  27.963  53.756  1.00  0.00     0.146 A 
HETATM    5  N   UNL     1       5.415  26.720  53.185  1.00  0.00    -0.179 N 
HETATM    6  N   UNL     1       5.378  25.727  54.113  1.00  0.00    -0.167 NA
HETATM    7  C   UNL     1       5.483  26.369  55.285  1.00  0.00     0.066 A 
HETATM    8  C   UNL     1       5.475  25.593  56.551  1.00  0.00     0.073 C 
HETATM    9  C   UNL     1       5.591  27.781  55.120  1.00  0.00     0.047 A 
HETATM   10  C   UNL     1       5.293  26.490  51.806  1.00  0.00     0.278 A 
HETATM   11  O   UNL     1       5.177  25.359  51.348  1.00  0.00    -0.265 OA
HETATM   12  C   UNL     1       5.281  27.738  50.961  1.00  0.00     0.036 A 
HETATM   13  H   UNL     1       5.718  29.981  53.327  1.00  0.00     0.167 HD
ENDROOT
BRANCH   9  14
HETATM   14  C   UNL     1       5.765  28.845  56.099  1.00  0.00    -0.009 A 
HETATM   15  C   UNL     1       7.037  29.193  56.643  1.00  0.00    -0.015 A 
HETATM   16  C   UNL     1       7.089  30.195  57.645  1.00  0.00    -0.025 A 
HETATM   17  C   UNL     1       8.269  28.609  56.249  1.00  0.00     0.013 A 
HETATM   18  C   UNL     1       8.316  30.542  58.236  1.00  0.00     0.012 A 
HETATM   19  C   UNL     1       5.913  30.846  58.048  1.00  0.00     0.012 A 
HETATM   20  C   UNL     1       9.502  29.922  57.849  1.00  0.00     0.001 A 
HETATM   21  C   UNL     1       9.480  28.960  56.848  1.00  0.00     0.001 A 
HETATM   22  C   UNL     1       4.682  30.518  57.487  1.00  0.00     0.002 A 
HETATM   23  C   UNL     1       4.608  29.519  56.524  1.00  0.00     0.013 A 
ENDBRANCH   9  14
BRANCH  12  24
HETATM   24  C   UNL     1       5.111  27.495  49.480  1.00  0.00     0.072 C 
BRANCH  24  25
HETATM   25  C   UNL     1       3.647  27.352  49.061  1.00  0.00     0.169 C 
BRANCH  25  26
HETATM   26  O   UNL     1       3.301  25.980  48.902  1.00  0.00    -0.401 OA
HETATM   27  H   UNL     1       2.446  25.846  49.347  1.00  0.00     0.209 HD
ENDBRANCH  25  26
ENDBRANCH  24  25
ENDBRANCH  12  24
TORSDOF 4
ENDMDL
MODEL 10
REMARK VINA RESULT:      -7.7      2.876      7.837
REMARK  4 active torsions:
REMARK  status: ('A' for Active; 'I' for Inactive)
REMARK    1  A    between atoms: C_9  and  C_10 
REMARK    2  A    between atoms: C_22  and  C_23 
REMARK    3  A    between atoms: C_23  and  C_24 
REMARK    4  A    between atoms: C_24  and  O_25 
ROOT
HETATM    1  C   UNL     1       7.876  26.254  57.261  1.00  0.00     0.069 C 
HETATM    2  C   UNL     1       6.905  27.406  57.161  1.00  0.00     0.018 A 
HETATM    3  N   UNL     1       7.230  28.524  57.916  1.00  0.00    -0.343 N 
HETATM    4  C   UNL     1       6.516  29.671  57.849  1.00  0.00     0.146 A 
HETATM    5  N   UNL     1       5.378  29.687  57.075  1.00  0.00    -0.179 N 
HETATM    6  N   UNL     1       4.753  30.893  57.103  1.00  0.00    -0.167 NA
HETATM    7  C   UNL     1       5.528  31.648  57.895  1.00  0.00     0.066 A 
HETATM    8  C   UNL     1       5.153  33.060  58.161  1.00  0.00     0.073 C 
HETATM    9  C   UNL     1       6.658  30.930  58.386  1.00  0.00     0.047 A 
HETATM   10  C   UNL     1       4.918  28.598  56.319  1.00  0.00     0.278 A 
HETATM   11  O   UNL     1       3.891  28.663  55.653  1.00  0.00    -0.265 OA
HETATM   12  C   UNL     1       5.805  27.380  56.369  1.00  0.00     0.036 A 
HETATM   13  H   UNL     1       8.084  28.474  58.474  1.00  0.00     0.167 HD
ENDROOT
BRANCH   9  14
HETATM   14  C   UNL     1       7.721  31.332  59.297  1.00  0.00    -0.009 A 
HETATM   15  C   UNL     1       7.478  31.688  60.657  1.00  0.00    -0.015 A 
HETATM   16  C   UNL     1       8.573  32.137  61.440  1.00  0.00    -0.025 A 
HETATM   17  C   UNL     1       6.213  31.623  61.294  1.00  0.00     0.013 A 
HETATM   18  C   UNL     1       8.373  32.535  62.773  1.00  0.00     0.012 A 
HETATM   19  C   UNL     1       9.861  32.182  60.886  1.00  0.00     0.012 A 
HETATM   20  C   UNL     1       7.108  32.490  63.356  1.00  0.00     0.001 A 
HETATM   21  C   UNL     1       6.028  32.026  62.618  1.00  0.00     0.001 A 
HETATM   22  C   UNL     1      10.088  31.803  59.566  1.00  0.00     0.002 A 
HETATM   23  C   UNL     1       9.024  31.387  58.774  1.00  0.00     0.013 A 
ENDBRANCH   9  14
BRANCH  12  24
HETATM   24  C   UNL     1       5.333  26.221  55.525  1.00  0.00     0.072 C 
BRANCH  24  25
HETATM   25  C   UNL     1       5.456  26.484  54.023  1.00  0.00     0.169 C 
BRANCH  25  26
HETATM   26  O   UNL     1       4.171  26.517  53.410  1.00  0.00    -0.401 OA
HETATM   27  H   UNL     1       3.566  26.952  54.036  1.00  0.00     0.209 HD
ENDBRANCH  25  26
ENDBRANCH  24  25
ENDBRANCH  12  24
TORSDOF 4
ENDMDL
