MODEL 1
REMARK VINA RESULT:      -9.3      0.000      0.000
REMARK  4 active torsions:
REMARK  status: ('A' for Active; 'I' for Inactive)
REMARK    1  A    between atoms: C_2  and  N_3 
REMARK    2  A    between atoms: C_11  and  C_12 
REMARK    3  A    between atoms: C_12  and  N_13 
REMARK    4  A    between atoms: C_16  and  N_17 
ROOT
HETATM    1  N   UNL     1       6.400  25.892  55.072  1.00  0.00    -0.065 N 
HETATM    2  H   UNL     1       7.302  25.832  55.560  1.00  0.00     0.280 HD
HETATM    3  C   UNL     1       5.878  24.488  54.816  1.00  0.00     0.268 C 
HETATM    4  C   UNL     1       6.815  23.536  53.994  1.00  0.00     0.214 C 
HETATM    5  C   UNL     1       6.938  24.032  52.544  1.00  0.00     0.035 C 
HETATM    6  C   UNL     1       7.935  25.149  52.252  1.00  0.00     0.004 C 
HETATM    7  C   UNL     1       7.949  26.362  53.179  1.00  0.00     0.028 C 
HETATM    8  C   UNL     1       6.623  26.735  53.825  1.00  0.00     0.235 C 
ENDROOT
BRANCH   1   9
HETATM    9  C   UNL     1       5.532  26.648  56.117  1.00  0.00     0.276 C 
BRANCH   9  10
HETATM   10  C   UNL     1       6.176  27.763  56.890  1.00  0.00     0.009 A 
HETATM   11  C   UNL     1       7.427  27.636  57.507  1.00  0.00     0.136 A 
HETATM   12  N   UNL     1       8.088  28.590  58.189  1.00  0.00    -0.216 NA
HETATM   13 CL   UNL     1       8.302  26.148  57.497  1.00  0.00    -0.062 Cl
HETATM   14  C   UNL     1       7.450  29.776  58.212  1.00  0.00     0.159 A 
HETATM   15  N   UNL     1       7.888  30.954  58.769  1.00  0.00    -0.248 N 
HETATM   16  C   UNL     1       6.215  30.058  57.646  1.00  0.00     0.031 A 
HETATM   17  N   UNL     1       6.988  31.958  58.645  1.00  0.00    -0.182 NA
HETATM   18  C   UNL     1       5.991  31.417  57.945  1.00  0.00     0.154 A 
HETATM   19  C   UNL     1       5.553  29.025  56.961  1.00  0.00     0.029 A 
BRANCH  15  20
HETATM   20  C   UNL     1       9.180  31.195  59.404  1.00  0.00     0.104 C 
HETATM   21  C   UNL     1       9.088  32.296  60.459  1.00  0.00     0.034 C 
HETATM   22  C   UNL     1      10.260  31.505  58.368  1.00  0.00     0.034 C 
ENDBRANCH  15  20
ENDBRANCH   9  10
ENDBRANCH   1   9
BRANCH   4  23
HETATM   23  N   UNL     1       8.200  23.287  54.626  1.00  0.00    -0.065 N 
HETATM   24  H   UNL     1       8.810  24.106  54.524  1.00  0.00     0.280 HD
HETATM   25  C   UNL     1       8.973  22.129  53.962  1.00  0.00     0.235 C 
HETATM   26  C   UNL     1       8.509  20.879  54.688  1.00  0.00     0.029 C 
HETATM   27  C   UNL     1       7.936  21.347  56.018  1.00  0.00     0.029 C 
HETATM   28  C   UNL     1       8.218  22.832  56.081  1.00  0.00     0.235 C 
ENDBRANCH   4  23
TORSDOF 4
ENDMDL
MODEL 2
REMARK VINA RESULT:      -8.8      1.681      2.221
REMARK  4 active torsions:
REMARK  status: ('A' for Active; 'I' for Inactive)
REMARK    1  A    between atoms: C_2  and  N_3 
REMARK    2  A    between atoms: C_11  and  C_12 
REMARK    3  A    between atoms: C_12  and  N_13 
REMARK    4  A    between atoms: C_16  and  N_17 
ROOT
HETATM    1  N   UNL     1       7.004  26.532  54.035  1.00  0.00    -0.065 N 
HETATM    2  H   UNL     1       7.987  26.603  54.321  1.00  0.00     0.280 HD
HETATM    3  C   UNL     1       6.309  25.489  54.896  1.00  0.00     0.268 C 
HETATM    4  C   UNL     1       6.928  24.048  54.879  1.00  0.00     0.214 C 
HETATM    5  C   UNL     1       6.740  23.404  53.496  1.00  0.00     0.035 C 
HETATM    6  C   UNL     1       7.735  23.766  52.397  1.00  0.00     0.004 C 
HETATM    7  C   UNL     1       8.083  25.240  52.199  1.00  0.00     0.028 C 
HETATM    8  C   UNL     1       6.993  26.245  52.541  1.00  0.00     0.235 C 
ENDROOT
BRANCH   1   9
HETATM    9  C   UNL     1       6.487  27.966  54.339  1.00  0.00     0.276 C 
BRANCH   9  10
HETATM   10  C   UNL     1       7.043  28.672  55.542  1.00  0.00     0.009 A 
HETATM   11  C   UNL     1       6.248  29.065  56.626  1.00  0.00     0.136 A 
HETATM   12  N   UNL     1       6.668  29.672  57.753  1.00  0.00    -0.216 NA
HETATM   13 CL   UNL     1       4.538  28.839  56.633  1.00  0.00    -0.062 Cl
HETATM   14  C   UNL     1       8.001  29.857  57.801  1.00  0.00     0.159 A 
HETATM   15  N   UNL     1       8.739  30.387  58.833  1.00  0.00    -0.248 N 
HETATM   16  C   UNL     1       8.915  29.518  56.813  1.00  0.00     0.031 A 
HETATM   17  N   UNL     1      10.060  30.463  58.547  1.00  0.00    -0.182 NA
HETATM   18  C   UNL     1      10.163  29.914  57.336  1.00  0.00     0.154 A 
HETATM   19  C   UNL     1       8.428  28.906  55.646  1.00  0.00     0.029 A 
BRANCH  15  20
HETATM   20  C   UNL     1       8.240  30.808  60.138  1.00  0.00     0.104 C 
HETATM   21  C   UNL     1       7.805  32.272  60.125  1.00  0.00     0.034 C 
HETATM   22  C   UNL     1       9.268  30.543  61.238  1.00  0.00     0.034 C 
ENDBRANCH  15  20
ENDBRANCH   9  10
ENDBRANCH   1   9
BRANCH   4  23
HETATM   23  N   UNL     1       8.396  23.968  55.346  1.00  0.00    -0.065 N 
HETATM   24  H   UNL     1       8.987  24.633  54.834  1.00  0.00     0.280 HD
HETATM   25  C   UNL     1       9.040  22.589  55.098  1.00  0.00     0.235 C 
HETATM   26  C   UNL     1       8.692  21.766  56.326  1.00  0.00     0.029 C 
HETATM   27  C   UNL     1       8.350  22.763  57.423  1.00  0.00     0.029 C 
HETATM   28  C   UNL     1       8.650  24.127  56.841  1.00  0.00     0.235 C 
ENDBRANCH   4  23
TORSDOF 4
ENDMDL
MODEL 3
REMARK VINA RESULT:      -8.5      1.790      3.848
REMARK  4 active torsions:
REMARK  status: ('A' for Active; 'I' for Inactive)
REMARK    1  A    between atoms: C_2  and  N_3 
REMARK    2  A    between atoms: C_11  and  C_12 
REMARK    3  A    between atoms: C_12  and  N_13 
REMARK    4  A    between atoms: C_16  and  N_17 
ROOT
HETATM    1  N   UNL     1       7.460  25.223  55.312  1.00  0.00    -0.065 N 
HETATM    2  H   UNL     1       6.459  24.996  55.336  1.00  0.00     0.280 HD
HETATM    3  C   UNL     1       7.690  26.348  54.316  1.00  0.00     0.268 C 
HETATM    4  C   UNL     1       7.213  26.085  52.845  1.00  0.00     0.214 C 
HETATM    5  C   UNL     1       8.072  24.988  52.196  1.00  0.00     0.035 C 
HETATM    6  C   UNL     1       7.722  23.534  52.494  1.00  0.00     0.004 C 
HETATM    7  C   UNL     1       7.457  23.141  53.945  1.00  0.00     0.028 C 
HETATM    8  C   UNL     1       8.204  23.931  55.008  1.00  0.00     0.235 C 
ENDROOT
BRANCH   1   9
HETATM    9  C   UNL     1       7.709  25.688  56.774  1.00  0.00     0.276 C 
BRANCH   9  10
HETATM   10  C   UNL     1       7.416  27.122  57.113  1.00  0.00     0.009 A 
HETATM   11  C   UNL     1       6.114  27.634  57.186  1.00  0.00     0.136 A 
HETATM   12  N   UNL     1       5.763  28.892  57.512  1.00  0.00    -0.216 NA
HETATM   13 CL   UNL     1       4.733  26.672  56.809  1.00  0.00    -0.062 Cl
HETATM   14  C   UNL     1       6.808  29.680  57.830  1.00  0.00     0.159 A 
HETATM   15  N   UNL     1       6.777  30.984  58.262  1.00  0.00    -0.248 N 
HETATM   16  C   UNL     1       8.147  29.317  57.810  1.00  0.00     0.031 A 
HETATM   17  N   UNL     1       8.013  31.499  58.465  1.00  0.00    -0.182 NA
HETATM   18  C   UNL     1       8.834  30.479  58.215  1.00  0.00     0.154 A 
HETATM   19  C   UNL     1       8.468  27.999  57.443  1.00  0.00     0.029 A 
BRANCH  15  20
HETATM   20  C   UNL     1       5.589  31.787  58.535  1.00  0.00     0.104 C 
HETATM   21  C   UNL     1       5.183  32.617  57.319  1.00  0.00     0.034 C 
HETATM   22  C   UNL     1       5.784  32.666  59.770  1.00  0.00     0.034 C 
ENDBRANCH  15  20
ENDBRANCH   9  10
ENDBRANCH   1   9
BRANCH   4  23
HETATM   23  N   UNL     1       5.707  25.786  52.696  1.00  0.00    -0.065 N 
HETATM   24  H   UNL     1       5.473  24.857  53.065  1.00  0.00     0.280 HD
HETATM   25  C   UNL     1       5.232  25.764  51.229  1.00  0.00     0.235 C 
HETATM   26  C   UNL     1       4.893  27.208  50.904  1.00  0.00     0.029 C 
HETATM   27  C   UNL     1       4.669  27.904  52.238  1.00  0.00     0.029 C 
HETATM   28  C   UNL     1       4.743  26.812  53.283  1.00  0.00     0.235 C 
ENDBRANCH   4  23
TORSDOF 4
ENDMDL
MODEL 4
REMARK VINA RESULT:      -8.3      2.184      4.259
REMARK  4 active torsions:
REMARK  status: ('A' for Active; 'I' for Inactive)
REMARK    1  A    between atoms: C_2  and  N_3 
REMARK    2  A    between atoms: C_11  and  C_12 
REMARK    3  A    between atoms: C_12  and  N_13 
REMARK    4  A    between atoms: C_16  and  N_17 
ROOT
HETATM    1  N   UNL     1       5.101  26.535  54.966  1.00  0.00    -0.065 N 
HETATM    2  H   UNL     1       4.113  26.464  54.699  1.00  0.00     0.280 HD
HETATM    3  C   UNL     1       5.713  27.751  54.291  1.00  0.00     0.268 C 
HETATM    4  C   UNL     1       5.626  27.796  52.725  1.00  0.00     0.214 C 
HETATM    5  C   UNL     1       6.504  26.694  52.112  1.00  0.00     0.035 C 
HETATM    6  C   UNL     1       5.930  25.283  52.032  1.00  0.00     0.004 C 
HETATM    7  C   UNL     1       5.241  24.715  53.271  1.00  0.00     0.028 C 
HETATM    8  C   UNL     1       5.755  25.206  54.616  1.00  0.00     0.235 C 
ENDROOT
BRANCH   1   9
HETATM    9  C   UNL     1       4.995  26.723  56.505  1.00  0.00     0.276 C 
BRANCH   9  10
HETATM   10  C   UNL     1       5.846  27.784  57.143  1.00  0.00     0.009 A 
HETATM   11  C   UNL     1       7.152  27.543  57.588  1.00  0.00     0.136 A 
HETATM   12  N   UNL     1       7.991  28.441  58.140  1.00  0.00    -0.216 NA
HETATM   13 CL   UNL     1       7.867  25.975  57.514  1.00  0.00    -0.062 Cl
HETATM   14  C   UNL     1       7.482  29.686  58.207  1.00  0.00     0.159 A 
HETATM   15  N   UNL     1       8.106  30.825  58.656  1.00  0.00    -0.248 N 
HETATM   16  C   UNL     1       6.214  30.079  57.803  1.00  0.00     0.031 A 
HETATM   17  N   UNL     1       7.300  31.913  58.619  1.00  0.00    -0.182 NA
HETATM   18  C   UNL     1       6.168  31.460  58.081  1.00  0.00     0.154 A 
HETATM   19  C   UNL     1       5.365  29.103  57.253  1.00  0.00     0.029 A 
BRANCH  15  20
HETATM   20  C   UNL     1       9.490  30.947  59.100  1.00  0.00     0.104 C 
HETATM   21  C   UNL     1       9.644  32.036  60.161  1.00  0.00     0.034 C 
HETATM   22  C   UNL     1      10.435  31.182  57.921  1.00  0.00     0.034 C 
ENDBRANCH  15  20
ENDBRANCH   9  10
ENDBRANCH   1   9
BRANCH   4  23
HETATM   23  N   UNL     1       4.193  27.760  52.156  1.00  0.00    -0.065 N 
HETATM   24  H   UNL     1       3.810  26.808  52.168  1.00  0.00     0.280 HD
HETATM   25  C   UNL     1       4.112  28.204  50.681  1.00  0.00     0.235 C 
HETATM   26  C   UNL     1       3.965  29.715  50.732  1.00  0.00     0.029 C 
HETATM   27  C   UNL     1       3.451  30.045  52.126  1.00  0.00     0.029 C 
HETATM   28  C   UNL     1       3.180  28.711  52.786  1.00  0.00     0.235 C 
ENDBRANCH   4  23
TORSDOF 4
ENDMDL
MODEL 5
REMARK VINA RESULT:      -8.3      1.424      2.342
REMARK  4 active torsions:
REMARK  status: ('A' for Active; 'I' for Inactive)
REMARK    1  A    between atoms: C_2  and  N_3 
REMARK    2  A    between atoms: C_11  and  C_12 
REMARK    3  A    between atoms: C_12  and  N_13 
REMARK    4  A    between atoms: C_16  and  N_17 
ROOT
HETATM    1  N   UNL     1       7.642  25.447  55.661  1.00  0.00    -0.065 N 
HETATM    2  H   UNL     1       8.625  25.190  55.519  1.00  0.00     0.280 HD
HETATM    3  C   UNL     1       6.776  24.206  55.517  1.00  0.00     0.268 C 
HETATM    4  C   UNL     1       6.887  23.434  54.155  1.00  0.00     0.214 C 
HETATM    5  C   UNL     1       6.308  24.284  53.014  1.00  0.00     0.035 C 
HETATM    6  C   UNL     1       7.200  25.356  52.396  1.00  0.00     0.004 C 
HETATM    7  C   UNL     1       7.974  26.277  53.336  1.00  0.00     0.028 C 
HETATM    8  C   UNL     1       7.328  26.569  54.682  1.00  0.00     0.235 C 
ENDROOT
BRANCH   1   9
HETATM    9  C   UNL     1       7.665  25.966  57.126  1.00  0.00     0.276 C 
BRANCH   9  10
HETATM   10  C   UNL     1       7.300  27.403  57.367  1.00  0.00     0.009 A 
HETATM   11  C   UNL     1       5.983  27.874  57.294  1.00  0.00     0.136 A 
HETATM   12  N   UNL     1       5.566  29.134  57.525  1.00  0.00    -0.216 NA
HETATM   13 CL   UNL     1       4.671  26.850  56.839  1.00  0.00    -0.062 Cl
HETATM   14  C   UNL     1       6.554  29.969  57.899  1.00  0.00     0.159 A 
HETATM   15  N   UNL     1       6.445  31.290  58.262  1.00  0.00    -0.248 N 
HETATM   16  C   UNL     1       7.899  29.650  58.021  1.00  0.00     0.031 A 
HETATM   17  N   UNL     1       7.640  31.854  58.554  1.00  0.00    -0.182 NA
HETATM   18  C   UNL     1       8.511  30.852  58.430  1.00  0.00     0.154 A 
HETATM   19  C   UNL     1       8.291  28.328  57.750  1.00  0.00     0.029 A 
BRANCH  15  20
HETATM   20  C   UNL     1       5.214  32.064  58.386  1.00  0.00     0.104 C 
HETATM   21  C   UNL     1       5.000  32.973  57.176  1.00  0.00     0.034 C 
HETATM   22  C   UNL     1       5.185  32.860  59.691  1.00  0.00     0.034 C 
ENDBRANCH  15  20
ENDBRANCH   9  10
ENDBRANCH   1   9
BRANCH   4  23
HETATM   23  N   UNL     1       8.301  22.919  53.817  1.00  0.00    -0.065 N 
HETATM   24  H   UNL     1       8.876  23.657  53.396  1.00  0.00     0.280 HD
HETATM   25  C   UNL     1       8.301  21.775  52.782  1.00  0.00     0.235 C 
HETATM   26  C   UNL     1       8.125  20.507  53.599  1.00  0.00     0.029 C 
HETATM   27  C   UNL     1       8.543  20.854  55.020  1.00  0.00     0.029 C 
HETATM   28  C   UNL     1       9.083  22.265  54.951  1.00  0.00     0.235 C 
ENDBRANCH   4  23
TORSDOF 4
ENDMDL
MODEL 6
REMARK VINA RESULT:      -8.1      2.171      7.786
REMARK  4 active torsions:
REMARK  status: ('A' for Active; 'I' for Inactive)
REMARK    1  A    between atoms: C_2  and  N_3 
REMARK    2  A    between atoms: C_11  and  C_12 
REMARK    3  A    between atoms: C_12  and  N_13 
REMARK    4  A    between atoms: C_16  and  N_17 
ROOT
HETATM    1  N   UNL     1       4.423  29.988  56.724  1.00  0.00    -0.065 N 
HETATM    2  H   UNL     1       4.660  29.215  57.358  1.00  0.00     0.280 HD
HETATM    3  C   UNL     1       5.678  30.795  56.433  1.00  0.00     0.268 C 
HETATM    4  C   UNL     1       6.424  31.394  57.676  1.00  0.00     0.214 C 
HETATM    5  C   UNL     1       5.566  32.484  58.337  1.00  0.00     0.035 C 
HETATM    6  C   UNL     1       4.467  32.045  59.299  1.00  0.00     0.004 C 
HETATM    7  C   UNL     1       3.548  30.904  58.869  1.00  0.00     0.028 C 
HETATM    8  C   UNL     1       3.291  30.768  57.376  1.00  0.00     0.235 C 
ENDROOT
BRANCH   1   9
HETATM    9  C   UNL     1       3.929  29.218  55.468  1.00  0.00     0.276 C 
BRANCH   9  10
HETATM   10  C   UNL     1       4.589  27.909  55.142  1.00  0.00     0.009 A 
HETATM   11  C   UNL     1       4.733  27.437  53.831  1.00  0.00     0.136 A 
HETATM   12  N   UNL     1       5.336  26.295  53.450  1.00  0.00    -0.216 NA
HETATM   13 CL   UNL     1       4.085  28.290  52.478  1.00  0.00    -0.062 Cl
HETATM   14  C   UNL     1       5.871  25.600  54.471  1.00  0.00     0.159 A 
HETATM   15  N   UNL     1       6.600  24.436  54.405  1.00  0.00    -0.248 N 
HETATM   16  C   UNL     1       5.816  25.940  55.816  1.00  0.00     0.031 A 
HETATM   17  N   UNL     1       6.967  23.978  55.625  1.00  0.00    -0.182 NA
HETATM   18  C   UNL     1       6.511  24.903  56.470  1.00  0.00     0.154 A 
HETATM   19  C   UNL     1       5.158  27.130  56.168  1.00  0.00     0.029 A 
BRANCH  15  20
HETATM   20  C   UNL     1       7.011  23.730  53.197  1.00  0.00     0.104 C 
HETATM   21  C   UNL     1       7.623  22.369  53.525  1.00  0.00     0.034 C 
HETATM   22  C   UNL     1       7.963  24.579  52.353  1.00  0.00     0.034 C 
ENDBRANCH  15  20
ENDBRANCH   9  10
ENDBRANCH   1   9
BRANCH   4  23
HETATM   23  N   UNL     1       6.907  30.352  58.705  1.00  0.00    -0.065 N 
HETATM   24  H   UNL     1       6.139  30.043  59.312  1.00  0.00     0.280 HD
HETATM   25  C   UNL     1       7.981  30.899  59.668  1.00  0.00     0.235 C 
HETATM   26  C   UNL     1       9.301  30.679  58.950  1.00  0.00     0.029 C 
HETATM   27  C   UNL     1       9.045  29.599  57.910  1.00  0.00     0.029 C 
HETATM   28  C   UNL     1       7.629  29.127  58.155  1.00  0.00     0.235 C 
ENDBRANCH   4  23
TORSDOF 4
ENDMDL
MODEL 7
REMARK VINA RESULT:      -8.0      2.043      7.756
REMARK  4 active torsions:
REMARK  status: ('A' for Active; 'I' for Inactive)
REMARK    1  A    between atoms: C_2  and  N_3 
REMARK    2  A    between atoms: C_11  and  C_12 
REMARK    3  A    between atoms: C_12  and  N_13 
REMARK    4  A    between atoms: C_16  and  N_17 
ROOT
HETATM    1  N   UNL     1       5.627  28.329  55.213  1.00  0.00    -0.065 N 
HETATM    2  H   UNL     1       5.825  27.740  56.030  1.00  0.00     0.280 HD
HETATM    3  C   UNL     1       6.567  29.524  55.222  1.00  0.00     0.268 C 
HETATM    4  C   UNL     1       6.527  30.432  56.500  1.00  0.00     0.214 C 
HETATM    5  C   UNL     1       5.180  31.165  56.590  1.00  0.00     0.035 C 
HETATM    6  C   UNL     1       3.991  30.410  57.176  1.00  0.00     0.004 C 
HETATM    7  C   UNL     1       3.733  28.986  56.690  1.00  0.00     0.028 C 
HETATM    8  C   UNL     1       4.146  28.673  55.260  1.00  0.00     0.235 C 
ENDROOT
BRANCH   1   9
HETATM    9  C   UNL     1       5.944  27.356  54.043  1.00  0.00     0.276 C 
BRANCH   9  10
HETATM   10  C   UNL     1       6.414  25.972  54.390  1.00  0.00     0.009 A 
HETATM   11  C   UNL     1       6.113  24.850  53.607  1.00  0.00     0.136 A 
HETATM   12  N   UNL     1       6.517  23.585  53.827  1.00  0.00    -0.216 NA
HETATM   13 CL   UNL     1       5.101  24.955  52.213  1.00  0.00    -0.062 Cl
HETATM   14  C   UNL     1       7.323  23.454  54.899  1.00  0.00     0.159 A 
HETATM   15  N   UNL     1       7.946  22.314  55.347  1.00  0.00    -0.248 N 
HETATM   16  C   UNL     1       7.713  24.467  55.763  1.00  0.00     0.031 A 
HETATM   17  N   UNL     1       8.665  22.519  56.476  1.00  0.00    -0.182 NA
HETATM   18  C   UNL     1       8.540  23.826  56.707  1.00  0.00     0.154 A 
HETATM   19  C   UNL     1       7.249  25.768  55.505  1.00  0.00     0.029 A 
BRANCH  15  20
HETATM   20  C   UNL     1       7.922  20.998  54.716  1.00  0.00     0.104 C 
HETATM   21  C   UNL     1       8.349  19.902  55.691  1.00  0.00     0.034 C 
HETATM   22  C   UNL     1       8.773  20.975  53.446  1.00  0.00     0.034 C 
ENDBRANCH  15  20
ENDBRANCH   9  10
ENDBRANCH   1   9
BRANCH   4  23
HETATM   23  N   UNL     1       6.866  29.708  57.819  1.00  0.00    -0.065 N 
HETATM   24  H   UNL     1       6.028  29.296  58.245  1.00  0.00     0.280 HD
HETATM   25  C   UNL     1       7.443  30.647  58.899  1.00  0.00     0.235 C 
HETATM   26  C   UNL     1       8.937  30.683  58.631  1.00  0.00     0.029 C 
HETATM   27  C   UNL     1       9.253  29.438  57.815  1.00  0.00     0.029 C 
HETATM   28  C   UNL     1       7.963  28.650  57.759  1.00  0.00     0.235 C 
ENDBRANCH   4  23
TORSDOF 4
ENDMDL
MODEL 8
REMARK VINA RESULT:      -8.0      4.517      7.760
REMARK  4 active torsions:
REMARK  status: ('A' for Active; 'I' for Inactive)
REMARK    1  A    between atoms: C_2  and  N_3 
REMARK    2  A    between atoms: C_11  and  C_12 
REMARK    3  A    between atoms: C_12  and  N_13 
REMARK    4  A    between atoms: C_16  and  N_17 
ROOT
HETATM    1  N   UNL     1       6.172  27.058  54.362  1.00  0.00    -0.065 N 
HETATM    2  H   UNL     1       5.527  26.377  53.947  1.00  0.00     0.280 HD
HETATM    3  C   UNL     1       7.567  26.455  54.413  1.00  0.00     0.268 C 
HETATM    4  C   UNL     1       7.713  25.105  55.198  1.00  0.00     0.214 C 
HETATM    5  C   UNL     1       7.477  25.334  56.699  1.00  0.00     0.035 C 
HETATM    6  C   UNL     1       6.036  25.384  57.198  1.00  0.00     0.004 C 
HETATM    7  C   UNL     1       5.035  26.234  56.418  1.00  0.00     0.028 C 
HETATM    8  C   UNL     1       5.593  27.459  55.710  1.00  0.00     0.235 C 
ENDROOT
BRANCH   1   9
HETATM    9  C   UNL     1       6.088  28.227  53.341  1.00  0.00     0.276 C 
BRANCH   9  10
HETATM   10  C   UNL     1       5.186  28.057  52.152  1.00  0.00     0.009 A 
HETATM   11  C   UNL     1       4.026  28.818  51.963  1.00  0.00     0.136 A 
HETATM   12  N   UNL     1       3.182  28.751  50.916  1.00  0.00    -0.216 NA
HETATM   13 CL   UNL     1       3.489  29.968  53.132  1.00  0.00    -0.062 Cl
HETATM   14  C   UNL     1       3.567  27.875  49.968  1.00  0.00     0.159 A 
HETATM   15  N   UNL     1       2.960  27.624  48.761  1.00  0.00    -0.248 N 
HETATM   16  C   UNL     1       4.688  27.058  50.008  1.00  0.00     0.031 A 
HETATM   17  N   UNL     1       3.587  26.657  48.050  1.00  0.00    -0.182 NA
HETATM   18  C   UNL     1       4.643  26.337  48.798  1.00  0.00     0.154 A 
HETATM   19  C   UNL     1       5.528  27.148  51.131  1.00  0.00     0.029 A 
BRANCH  15  20
HETATM   20  C   UNL     1       1.792  28.304  48.210  1.00  0.00     0.104 C 
HETATM   21  C   UNL     1       0.819  27.316  47.569  1.00  0.00     0.034 C 
HETATM   22  C   UNL     1       2.199  29.401  47.227  1.00  0.00     0.034 C 
ENDBRANCH  15  20
ENDBRANCH   9  10
ENDBRANCH   1   9
BRANCH   4  23
HETATM   23  N   UNL     1       6.849  23.947  54.659  1.00  0.00    -0.065 N 
HETATM   24  H   UNL     1       5.923  23.934  55.102  1.00  0.00     0.280 HD
HETATM   25  C   UNL     1       7.448  22.555  54.946  1.00  0.00     0.235 C 
HETATM   26  C   UNL     1       8.387  22.284  53.785  1.00  0.00     0.029 C 
HETATM   27  C   UNL     1       7.943  23.200  52.655  1.00  0.00     0.029 C 
HETATM   28  C   UNL     1       6.676  23.866  53.146  1.00  0.00     0.235 C 
ENDBRANCH   4  23
TORSDOF 4
ENDMDL
MODEL 9
REMARK VINA RESULT:      -8.0      2.054      2.577
REMARK  4 active torsions:
REMARK  status: ('A' for Active; 'I' for Inactive)
REMARK    1  A    between atoms: C_2  and  N_3 
REMARK    2  A    between atoms: C_11  and  C_12 
REMARK    3  A    between atoms: C_12  and  N_13 
REMARK    4  A    between atoms: C_16  and  N_17 
ROOT
HETATM    1  N   UNL     1       5.148  27.202  54.196  1.00  0.00    -0.065 N 
HETATM    2  H   UNL     1       6.153  27.406  54.166  1.00  0.00     0.280 HD
HETATM    3  C   UNL     1       4.949  25.727  54.506  1.00  0.00     0.268 C 
HETATM    4  C   UNL     1       5.625  24.710  53.521  1.00  0.00     0.214 C 
HETATM    5  C   UNL     1       4.948  24.776  52.143  1.00  0.00     0.035 C 
HETATM    6  C   UNL     1       5.379  25.881  51.185  1.00  0.00     0.004 C 
HETATM    7  C   UNL     1       5.495  27.302  51.732  1.00  0.00     0.028 C 
HETATM    8  C   UNL     1       4.558  27.667  52.873  1.00  0.00     0.235 C 
ENDROOT
BRANCH   1   9
HETATM    9  C   UNL     1       4.682  28.106  55.371  1.00  0.00     0.276 C 
BRANCH   9  10
HETATM   10  C   UNL     1       5.738  28.767  56.210  1.00  0.00     0.009 A 
HETATM   11  C   UNL     1       5.440  29.698  57.212  1.00  0.00     0.136 A 
HETATM   12  N   UNL     1       6.318  30.312  58.027  1.00  0.00    -0.216 NA
HETATM   13 CL   UNL     1       3.825  30.227  57.514  1.00  0.00    -0.062 Cl
HETATM   14  C   UNL     1       7.593  29.920  57.839  1.00  0.00     0.159 A 
HETATM   15  N   UNL     1       8.705  30.310  58.547  1.00  0.00    -0.248 N 
HETATM   16  C   UNL     1       8.043  29.008  56.895  1.00  0.00     0.031 A 
HETATM   17  N   UNL     1       9.846  29.751  58.081  1.00  0.00    -0.182 NA
HETATM   18  C   UNL     1       9.436  28.947  57.099  1.00  0.00     0.154 A 
HETATM   19  C   UNL     1       7.092  28.408  56.052  1.00  0.00     0.029 A 
BRANCH  15  20
HETATM   20  C   UNL     1       8.736  31.192  59.709  1.00  0.00     0.104 C 
HETATM   21  C   UNL     1       9.801  32.277  59.559  1.00  0.00     0.034 C 
HETATM   22  C   UNL     1       8.927  30.401  61.003  1.00  0.00     0.034 C 
ENDBRANCH  15  20
ENDBRANCH   9  10
ENDBRANCH   1   9
BRANCH   4  23
HETATM   23  N   UNL     1       7.157  24.842  53.406  1.00  0.00    -0.065 N 
HETATM   24  H   UNL     1       7.422  25.715  52.934  1.00  0.00     0.280 HD
HETATM   25  C   UNL     1       7.804  23.722  52.566  1.00  0.00     0.235 C 
HETATM   26  C   UNL     1       8.058  22.592  53.548  1.00  0.00     0.029 C 
HETATM   27  C   UNL     1       8.063  23.223  54.932  1.00  0.00     0.029 C 
HETATM   28  C   UNL     1       7.956  24.715  54.698  1.00  0.00     0.235 C 
ENDBRANCH   4  23
TORSDOF 4
ENDMDL
MODEL 10
REMARK VINA RESULT:      -7.8      2.422      8.553
REMARK  4 active torsions:
REMARK  status: ('A' for Active; 'I' for Inactive)
REMARK    1  A    between atoms: C_2  and  N_3 
REMARK    2  A    between atoms: C_11  and  C_12 
REMARK    3  A    between atoms: C_12  and  N_13 
REMARK    4  A    between atoms: C_16  and  N_17 
ROOT
HETATM    1  N   UNL     1       5.149  31.269  58.422  1.00  0.00    -0.065 N 
HETATM    2  H   UNL     1       5.409  30.400  58.903  1.00  0.00     0.280 HD
HETATM    3  C   UNL     1       6.108  32.373  58.835  1.00  0.00     0.268 C 
HETATM    4  C   UNL     1       6.202  32.676  60.371  1.00  0.00     0.214 C 
HETATM    5  C   UNL     1       4.883  33.281  60.876  1.00  0.00     0.035 C 
HETATM    6  C   UNL     1       3.738  32.328  61.206  1.00  0.00     0.004 C 
HETATM    7  C   UNL     1       3.409  31.224  60.204  1.00  0.00     0.028 C 
HETATM    8  C   UNL     1       3.685  31.534  58.740  1.00  0.00     0.235 C 
ENDROOT
BRANCH   1   9
HETATM    9  C   UNL     1       5.339  30.868  56.932  1.00  0.00     0.276 C 
BRANCH   9  10
HETATM   10  C   UNL     1       5.742  29.452  56.633  1.00  0.00     0.009 A 
HETATM   11  C   UNL     1       5.263  28.745  55.523  1.00  0.00     0.136 A 
HETATM   12  N   UNL     1       5.595  27.490  55.165  1.00  0.00    -0.216 NA
HETATM   13 CL   UNL     1       4.098  29.420  54.444  1.00  0.00    -0.062 Cl
HETATM   14  C   UNL     1       6.515  26.925  55.970  1.00  0.00     0.159 A 
HETATM   15  N   UNL     1       7.101  25.688  55.838  1.00  0.00    -0.248 N 
HETATM   16  C   UNL     1       7.084  27.497  57.098  1.00  0.00     0.031 A 
HETATM   17  N   UNL     1       7.967  25.409  56.840  1.00  0.00    -0.182 NA
HETATM   18  C   UNL     1       7.971  26.515  57.584  1.00  0.00     0.154 A 
HETATM   19  C   UNL     1       6.692  28.801  57.445  1.00  0.00     0.029 A 
BRANCH  15  20
HETATM   20  C   UNL     1       6.901  24.738  54.749  1.00  0.00     0.104 C 
HETATM   21  C   UNL     1       7.215  23.309  55.189  1.00  0.00     0.034 C 
HETATM   22  C   UNL     1       7.709  25.130  53.512  1.00  0.00     0.034 C 
ENDBRANCH  15  20
ENDBRANCH   9  10
ENDBRANCH   1   9
BRANCH   4  23
HETATM   23  N   UNL     1       6.645  31.481  61.240  1.00  0.00    -0.065 N 
HETATM   24  H   UNL     1       5.986  30.698  61.163  1.00  0.00     0.280 HD
HETATM   25  C   UNL     1       6.699  31.810  62.746  1.00  0.00     0.235 C 
HETATM   26  C   UNL     1       8.087  32.383  62.974  1.00  0.00     0.029 C 
HETATM   27  C   UNL     1       8.940  31.909  61.807  1.00  0.00     0.029 C 
HETATM   28  C   UNL     1       8.062  30.960  61.020  1.00  0.00     0.235 C 
ENDBRANCH   4  23
TORSDOF 4
ENDMDL
