MODEL 1
REMARK VINA RESULT:      -9.2      0.000      0.000
REMARK  6 active torsions:
REMARK  status: ('A' for Active; 'I' for Inactive)
REMARK    1  A    between atoms: C_4  and  O_5 
REMARK    2  A    between atoms: O_5  and  C_6 
REMARK    3  A    between atoms: C_6  and  C_7 
REMARK    4  A    between atoms: C_11  and  C_12 
REMARK    5  A    between atoms: C_12  and  N_13 
REMARK       I    between atoms: N_13  and  C_14 
REMARK       I    between atoms: C_14  and  N_15 
REMARK    6  A    between atoms: N_15  and  C_16 
ROOT
HETATM    1  C   UNL     1       6.887  24.715  56.493  1.00  0.00     0.165 C 
ENDROOT
BRANCH   1   2
HETATM    2  C   UNL     1       7.304  23.662  55.494  1.00  0.00    -0.007 A 
HETATM    3  C   UNL     1       7.158  23.861  54.111  1.00  0.00     0.077 A 
HETATM    4  C   UNL     1       7.545  22.856  53.217  1.00  0.00     0.044 A 
HETATM    5  C   UNL     1       8.108  21.660  53.683  1.00  0.00    -0.059 A 
HETATM    6  C   UNL     1       8.544  20.592  52.723  1.00  0.00     0.048 C 
HETATM    7  C   UNL     1       8.301  21.486  55.057  1.00  0.00     0.007 A 
HETATM    8  C   UNL     1       7.898  22.476  55.955  1.00  0.00     0.012 A 
BRANCH   3   9
HETATM    9  O   UNL     1       6.602  25.052  53.729  1.00  0.00    -0.342 OA
BRANCH   9  10
HETATM   10  C   UNL     1       6.613  25.358  52.331  1.00  0.00     0.293 C 
BRANCH  10  11
HETATM   11  C   UNL     1       5.191  25.529  51.818  1.00  0.00     0.408 C 
HETATM   12  F   UNL     1       5.172  25.931  50.529  1.00  0.00    -0.169 F 
HETATM   13  F   UNL     1       4.527  24.350  51.881  1.00  0.00    -0.169 F 
HETATM   14  F   UNL     1       4.496  26.424  52.551  1.00  0.00    -0.169 F 
ENDBRANCH  10  11
ENDBRANCH   9  10
ENDBRANCH   3   9
ENDBRANCH   1   2
BRANCH   1  15
HETATM   15  N   UNL     1       7.513  25.987  56.200  1.00  0.00    -0.339 N 
HETATM   16  C   UNL     1       7.837  26.818  57.251  1.00  0.00     0.321 C 
HETATM   17  N   UNL     1       8.371  27.998  56.787  1.00  0.00    -0.307 N 
HETATM   18  O   UNL     1       7.676  26.507  58.423  1.00  0.00    -0.247 OA
HETATM   19  H   UNL     1       8.786  27.938  55.870  1.00  0.00     0.170 HD
HETATM   20  H   UNL     1       7.145  26.471  55.395  1.00  0.00     0.164 HD
BRANCH  17  21
HETATM   21  C   UNL     1       8.618  29.162  57.550  1.00  0.00     0.059 A 
HETATM   22  C   UNL     1       9.869  29.798  57.470  1.00  0.00    -0.032 A 
HETATM   23  C   UNL     1      11.004  29.250  56.652  1.00  0.00     0.050 C 
HETATM   24  C   UNL     1      10.069  30.982  58.193  1.00  0.00     0.028 A 
HETATM   25  C   UNL     1       9.033  31.489  58.962  1.00  0.00     0.117 A 
HETATM   26  N   UNL     1       7.826  30.905  59.060  1.00  0.00    -0.271 NA
HETATM   27  C   UNL     1       7.646  29.756  58.358  1.00  0.00     0.146 A 
ENDBRANCH  17  21
ENDBRANCH   1  15
TORSDOF 6
ENDMDL
MODEL 2
REMARK VINA RESULT:      -8.7      4.222      7.770
REMARK  6 active torsions:
REMARK  status: ('A' for Active; 'I' for Inactive)
REMARK    1  A    between atoms: C_4  and  O_5 
REMARK    2  A    between atoms: O_5  and  C_6 
REMARK    3  A    between atoms: C_6  and  C_7 
REMARK    4  A    between atoms: C_11  and  C_12 
REMARK    5  A    between atoms: C_12  and  N_13 
REMARK       I    between atoms: N_13  and  C_14 
REMARK       I    between atoms: C_14  and  N_15 
REMARK    6  A    between atoms: N_15  and  C_16 
ROOT
HETATM    1  C   UNL     1       6.584  25.874  52.780  1.00  0.00     0.165 C 
ENDROOT
BRANCH   1   2
HETATM    2  C   UNL     1       7.019  24.542  53.340  1.00  0.00    -0.007 A 
HETATM    3  C   UNL     1       6.800  24.202  54.686  1.00  0.00     0.077 A 
HETATM    4  C   UNL     1       7.230  22.962  55.171  1.00  0.00     0.044 A 
HETATM    5  C   UNL     1       7.850  22.035  54.321  1.00  0.00    -0.059 A 
HETATM    6  C   UNL     1       8.290  20.696  54.836  1.00  0.00     0.048 C 
HETATM    7  C   UNL     1       8.018  22.355  52.970  1.00  0.00     0.007 A 
HETATM    8  C   UNL     1       7.611  23.598  52.485  1.00  0.00     0.012 A 
BRANCH   3   9
HETATM    9  O   UNL     1       6.190  25.155  55.456  1.00  0.00    -0.342 OA
BRANCH   9  10
HETATM   10  C   UNL     1       6.572  25.223  56.834  1.00  0.00     0.293 C 
BRANCH  10  11
HETATM   11  C   UNL     1       7.747  26.172  57.008  1.00  0.00     0.408 C 
HETATM   12  F   UNL     1       7.588  26.968  58.088  1.00  0.00    -0.169 F 
HETATM   13  F   UNL     1       8.891  25.470  57.190  1.00  0.00    -0.169 F 
HETATM   14  F   UNL     1       7.924  26.959  55.925  1.00  0.00    -0.169 F 
ENDBRANCH  10  11
ENDBRANCH   9  10
ENDBRANCH   3   9
ENDBRANCH   1   2
BRANCH   1  15
HETATM   15  N   UNL     1       6.296  25.775  51.365  1.00  0.00    -0.339 N 
HETATM   16  C   UNL     1       5.387  26.654  50.815  1.00  0.00     0.321 C 
HETATM   17  N   UNL     1       5.197  26.381  49.479  1.00  0.00    -0.307 N 
HETATM   18  O   UNL     1       4.857  27.553  51.453  1.00  0.00    -0.247 OA
HETATM   19  H   UNL     1       5.964  25.897  49.038  1.00  0.00     0.170 HD
HETATM   20  H   UNL     1       6.222  24.835  51.007  1.00  0.00     0.164 HD
BRANCH  17  21
HETATM   21  C   UNL     1       4.192  26.926  48.648  1.00  0.00     0.059 A 
HETATM   22  C   UNL     1       3.205  26.086  48.104  1.00  0.00    -0.032 A 
HETATM   23  C   UNL     1       3.206  24.598  48.309  1.00  0.00     0.050 C 
HETATM   24  C   UNL     1       2.187  26.661  47.329  1.00  0.00     0.028 A 
HETATM   25  C   UNL     1       2.184  28.031  47.123  1.00  0.00     0.117 A 
HETATM   26  N   UNL     1       3.115  28.861  47.628  1.00  0.00    -0.271 NA
HETATM   27  C   UNL     1       4.097  28.292  48.373  1.00  0.00     0.146 A 
ENDBRANCH  17  21
ENDBRANCH   1  15
TORSDOF 6
ENDMDL
MODEL 3
REMARK VINA RESULT:      -8.6      3.553      8.101
REMARK  6 active torsions:
REMARK  status: ('A' for Active; 'I' for Inactive)
REMARK    1  A    between atoms: C_4  and  O_5 
REMARK    2  A    between atoms: O_5  and  C_6 
REMARK    3  A    between atoms: C_6  and  C_7 
REMARK    4  A    between atoms: C_11  and  C_12 
REMARK    5  A    between atoms: C_12  and  N_13 
REMARK       I    between atoms: N_13  and  C_14 
REMARK       I    between atoms: C_14  and  N_15 
REMARK    6  A    between atoms: N_15  and  C_16 
ROOT
HETATM    1  C   UNL     1       7.722  26.717  57.674  1.00  0.00     0.165 C 
ENDROOT
BRANCH   1   2
HETATM    2  C   UNL     1       6.945  28.008  57.579  1.00  0.00    -0.007 A 
HETATM    3  C   UNL     1       7.505  29.235  57.976  1.00  0.00     0.077 A 
HETATM    4  C   UNL     1       6.748  30.408  57.886  1.00  0.00     0.044 A 
HETATM    5  C   UNL     1       5.443  30.382  57.373  1.00  0.00    -0.059 A 
HETATM    6  C   UNL     1       4.640  31.645  57.255  1.00  0.00     0.048 C 
HETATM    7  C   UNL     1       4.908  29.169  56.930  1.00  0.00     0.007 A 
HETATM    8  C   UNL     1       5.650  27.992  57.037  1.00  0.00     0.012 A 
BRANCH   3   9
HETATM    9  O   UNL     1       8.781  29.184  58.466  1.00  0.00    -0.342 OA
BRANCH   9  10
HETATM   10  C   UNL     1       9.677  30.226  58.063  1.00  0.00     0.293 C 
BRANCH  10  11
HETATM   11  C   UNL     1      10.641  29.710  57.005  1.00  0.00     0.408 C 
HETATM   12  F   UNL     1      10.431  30.303  55.810  1.00  0.00    -0.169 F 
HETATM   13  F   UNL     1      11.918  29.978  57.368  1.00  0.00    -0.169 F 
HETATM   14  F   UNL     1      10.539  28.374  56.840  1.00  0.00    -0.169 F 
ENDBRANCH  10  11
ENDBRANCH   9  10
ENDBRANCH   3   9
ENDBRANCH   1   2
BRANCH   1  15
HETATM   15  N   UNL     1       7.067  25.660  56.933  1.00  0.00    -0.339 N 
HETATM   16  C   UNL     1       7.806  24.555  56.570  1.00  0.00     0.321 C 
HETATM   17  N   UNL     1       7.040  23.682  55.831  1.00  0.00    -0.307 N 
HETATM   18  O   UNL     1       8.975  24.396  56.894  1.00  0.00    -0.247 OA
HETATM   19  H   UNL     1       6.047  23.762  55.986  1.00  0.00     0.170 HD
HETATM   20  H   UNL     1       6.421  25.971  56.223  1.00  0.00     0.164 HD
BRANCH  17  21
HETATM   21  C   UNL     1       7.509  22.560  55.112  1.00  0.00     0.059 A 
HETATM   22  C   UNL     1       7.722  22.657  53.726  1.00  0.00    -0.032 A 
HETATM   23  C   UNL     1       7.402  23.899  52.944  1.00  0.00     0.050 C 
HETATM   24  C   UNL     1       8.242  21.547  53.046  1.00  0.00     0.028 A 
HETATM   25  C   UNL     1       8.528  20.391  53.755  1.00  0.00     0.117 A 
HETATM   26  N   UNL     1       8.333  20.265  55.080  1.00  0.00    -0.271 NA
HETATM   27  C   UNL     1       7.827  21.347  55.727  1.00  0.00     0.146 A 
ENDBRANCH  17  21
ENDBRANCH   1  15
TORSDOF 6
ENDMDL
MODEL 4
REMARK VINA RESULT:      -8.6      3.037      3.763
REMARK  6 active torsions:
REMARK  status: ('A' for Active; 'I' for Inactive)
REMARK    1  A    between atoms: C_4  and  O_5 
REMARK    2  A    between atoms: O_5  and  C_6 
REMARK    3  A    between atoms: C_6  and  C_7 
REMARK    4  A    between atoms: C_11  and  C_12 
REMARK    5  A    between atoms: C_12  and  N_13 
REMARK       I    between atoms: N_13  and  C_14 
REMARK       I    between atoms: C_14  and  N_15 
REMARK    6  A    between atoms: N_15  and  C_16 
ROOT
HETATM    1  C   UNL     1       7.279  25.658  55.857  1.00  0.00     0.165 C 
ENDROOT
BRANCH   1   2
HETATM    2  C   UNL     1       7.450  24.359  55.109  1.00  0.00    -0.007 A 
HETATM    3  C   UNL     1       7.413  24.307  53.705  1.00  0.00     0.077 A 
HETATM    4  C   UNL     1       7.562  23.081  53.047  1.00  0.00     0.044 A 
HETATM    5  C   UNL     1       7.780  21.901  53.772  1.00  0.00    -0.059 A 
HETATM    6  C   UNL     1       7.964  20.589  53.065  1.00  0.00     0.048 C 
HETATM    7  C   UNL     1       7.870  21.963  55.166  1.00  0.00     0.007 A 
HETATM    8  C   UNL     1       7.700  23.179  55.828  1.00  0.00     0.012 A 
BRANCH   3   9
HETATM    9  O   UNL     1       7.196  25.497  53.065  1.00  0.00    -0.342 OA
BRANCH   9  10
HETATM   10  C   UNL     1       6.705  25.435  51.721  1.00  0.00     0.293 C 
BRANCH  10  11
HETATM   11  C   UNL     1       5.186  25.527  51.712  1.00  0.00     0.408 C 
HETATM   12  F   UNL     1       4.733  26.361  52.674  1.00  0.00    -0.169 F 
HETATM   13  F   UNL     1       4.755  26.011  50.523  1.00  0.00    -0.169 F 
HETATM   14  F   UNL     1       4.608  24.321  51.891  1.00  0.00    -0.169 F 
ENDBRANCH  10  11
ENDBRANCH   9  10
ENDBRANCH   3   9
ENDBRANCH   1   2
BRANCH   1  15
HETATM   15  N   UNL     1       5.951  26.202  55.659  1.00  0.00    -0.339 N 
HETATM   16  C   UNL     1       5.809  27.569  55.559  1.00  0.00     0.321 C 
HETATM   17  N   UNL     1       4.481  27.908  55.428  1.00  0.00    -0.307 N 
HETATM   18  O   UNL     1       6.756  28.343  55.569  1.00  0.00    -0.247 OA
HETATM   19  H   UNL     1       3.897  27.177  55.054  1.00  0.00     0.170 HD
HETATM   20  H   UNL     1       5.221  25.753  56.191  1.00  0.00     0.164 HD
BRANCH  17  21
HETATM   21  C   UNL     1       3.938  29.210  55.515  1.00  0.00     0.059 A 
HETATM   22  C   UNL     1       3.731  29.960  54.344  1.00  0.00    -0.032 A 
HETATM   23  C   UNL     1       4.132  29.464  52.984  1.00  0.00     0.050 C 
HETATM   24  C   UNL     1       3.138  31.226  54.453  1.00  0.00     0.028 A 
HETATM   25  C   UNL     1       2.777  31.699  55.704  1.00  0.00     0.117 A 
HETATM   26  N   UNL     1       2.963  31.008  56.843  1.00  0.00    -0.271 NA
HETATM   27  C   UNL     1       3.541  29.785  56.725  1.00  0.00     0.146 A 
ENDBRANCH  17  21
ENDBRANCH   1  15
TORSDOF 6
ENDMDL
MODEL 5
REMARK VINA RESULT:      -8.4      6.601     10.977
REMARK  6 active torsions:
REMARK  status: ('A' for Active; 'I' for Inactive)
REMARK    1  A    between atoms: C_4  and  O_5 
REMARK    2  A    between atoms: O_5  and  C_6 
REMARK    3  A    between atoms: C_6  and  C_7 
REMARK    4  A    between atoms: C_11  and  C_12 
REMARK    5  A    between atoms: C_12  and  N_13 
REMARK       I    between atoms: N_13  and  C_14 
REMARK       I    between atoms: C_14  and  N_15 
REMARK    6  A    between atoms: N_15  and  C_16 
ROOT
HETATM    1  C   UNL     1       5.828  32.393  61.396  1.00  0.00     0.165 C 
ENDROOT
BRANCH   1   2
HETATM    2  C   UNL     1       6.026  32.861  62.818  1.00  0.00    -0.007 A 
HETATM    3  C   UNL     1       4.937  33.083  63.678  1.00  0.00     0.077 A 
HETATM    4  C   UNL     1       5.160  33.530  64.985  1.00  0.00     0.044 A 
HETATM    5  C   UNL     1       6.464  33.729  65.462  1.00  0.00    -0.059 A 
HETATM    6  C   UNL     1       6.704  34.185  66.871  1.00  0.00     0.048 C 
HETATM    7  C   UNL     1       7.547  33.456  64.621  1.00  0.00     0.007 A 
HETATM    8  C   UNL     1       7.330  33.032  63.309  1.00  0.00     0.012 A 
BRANCH   3   9
HETATM    9  O   UNL     1       3.695  32.868  63.145  1.00  0.00    -0.342 OA
BRANCH   9  10
HETATM   10  C   UNL     1       2.818  33.997  63.057  1.00  0.00     0.293 C 
BRANCH  10  11
HETATM   11  C   UNL     1       2.697  34.457  61.612  1.00  0.00     0.408 C 
HETATM   12  F   UNL     1       3.778  35.170  61.226  1.00  0.00    -0.169 F 
HETATM   13  F   UNL     1       2.606  33.387  60.787  1.00  0.00    -0.169 F 
HETATM   14  F   UNL     1       1.598  35.214  61.415  1.00  0.00    -0.169 F 
ENDBRANCH  10  11
ENDBRANCH   9  10
ENDBRANCH   3   9
ENDBRANCH   1   2
BRANCH   1  15
HETATM   15  N   UNL     1       6.820  31.404  61.031  1.00  0.00    -0.339 N 
HETATM   16  C   UNL     1       7.474  31.543  59.825  1.00  0.00     0.321 C 
HETATM   17  N   UNL     1       8.337  30.490  59.620  1.00  0.00    -0.307 N 
HETATM   18  O   UNL     1       7.300  32.493  59.076  1.00  0.00    -0.247 OA
HETATM   19  H   UNL     1       8.644  30.030  60.463  1.00  0.00     0.170 HD
HETATM   20  H   UNL     1       6.579  30.451  61.258  1.00  0.00     0.164 HD
BRANCH  17  21
HETATM   21  C   UNL     1       9.009  30.182  58.415  1.00  0.00     0.059 A 
HETATM   22  C   UNL     1       8.428  29.283  57.503  1.00  0.00    -0.032 A 
HETATM   23  C   UNL     1       7.138  28.567  57.783  1.00  0.00     0.050 C 
HETATM   24  C   UNL     1       9.088  29.038  56.290  1.00  0.00     0.028 A 
HETATM   25  C   UNL     1      10.286  29.683  56.028  1.00  0.00     0.117 A 
HETATM   26  N   UNL     1      10.868  30.546  56.880  1.00  0.00    -0.271 NA
HETATM   27  C   UNL     1      10.221  30.773  58.053  1.00  0.00     0.146 A 
ENDBRANCH  17  21
ENDBRANCH   1  15
TORSDOF 6
ENDMDL
MODEL 6
REMARK VINA RESULT:      -8.4      4.129      7.371
REMARK  6 active torsions:
REMARK  status: ('A' for Active; 'I' for Inactive)
REMARK    1  A    between atoms: C_4  and  O_5 
REMARK    2  A    between atoms: O_5  and  C_6 
REMARK    3  A    between atoms: C_6  and  C_7 
REMARK    4  A    between atoms: C_11  and  C_12 
REMARK    5  A    between atoms: C_12  and  N_13 
REMARK       I    between atoms: N_13  and  C_14 
REMARK       I    between atoms: C_14  and  N_15 
REMARK    6  A    between atoms: N_15  and  C_16 
ROOT
HETATM    1  C   UNL     1       6.945  25.912  53.038  1.00  0.00     0.165 C 
ENDROOT
BRANCH   1   2
HETATM    2  C   UNL     1       7.378  24.547  53.514  1.00  0.00    -0.007 A 
HETATM    3  C   UNL     1       7.624  24.285  54.873  1.00  0.00     0.077 A 
HETATM    4  C   UNL     1       8.037  23.010  55.274  1.00  0.00     0.044 A 
HETATM    5  C   UNL     1       8.178  21.975  54.339  1.00  0.00    -0.059 A 
HETATM    6  C   UNL     1       8.598  20.600  54.773  1.00  0.00     0.048 C 
HETATM    7  C   UNL     1       7.881  22.223  52.996  1.00  0.00     0.007 A 
HETATM    8  C   UNL     1       7.490  23.499  52.586  1.00  0.00     0.012 A 
BRANCH   3   9
HETATM    9  O   UNL     1       7.466  25.342  55.728  1.00  0.00    -0.342 OA
BRANCH   9  10
HETATM   10  C   UNL     1       6.759  25.094  56.948  1.00  0.00     0.293 C 
BRANCH  10  11
HETATM   11  C   UNL     1       5.368  25.705  56.882  1.00  0.00     0.408 C 
HETATM   12  F   UNL     1       5.378  27.005  57.250  1.00  0.00    -0.169 F 
HETATM   13  F   UNL     1       4.892  25.650  55.615  1.00  0.00    -0.169 F 
HETATM   14  F   UNL     1       4.492  25.049  57.671  1.00  0.00    -0.169 F 
ENDBRANCH  10  11
ENDBRANCH   9  10
ENDBRANCH   3   9
ENDBRANCH   1   2
BRANCH   1  15
HETATM   15  N   UNL     1       6.733  25.920  51.605  1.00  0.00    -0.339 N 
HETATM   16  C   UNL     1       5.595  26.521  51.112  1.00  0.00     0.321 C 
HETATM   17  N   UNL     1       5.532  26.388  49.744  1.00  0.00    -0.307 N 
HETATM   18  O   UNL     1       4.785  27.102  51.821  1.00  0.00    -0.247 OA
HETATM   19  H   UNL     1       6.423  26.246  49.296  1.00  0.00     0.170 HD
HETATM   20  H   UNL     1       6.982  25.065  51.130  1.00  0.00     0.164 HD
BRANCH  17  21
HETATM   21  C   UNL     1       4.419  26.684  48.925  1.00  0.00     0.059 A 
HETATM   22  C   UNL     1       4.287  27.966  48.363  1.00  0.00    -0.032 A 
HETATM   23  C   UNL     1       5.253  29.079  48.653  1.00  0.00     0.050 C 
HETATM   24  C   UNL     1       3.204  28.218  47.508  1.00  0.00     0.028 A 
HETATM   25  C   UNL     1       2.300  27.202  47.245  1.00  0.00     0.117 A 
HETATM   26  N   UNL     1       2.396  25.966  47.768  1.00  0.00    -0.271 NA
HETATM   27  C   UNL     1       3.447  25.736  48.597  1.00  0.00     0.146 A 
ENDBRANCH  17  21
ENDBRANCH   1  15
TORSDOF 6
ENDMDL
MODEL 7
REMARK VINA RESULT:      -8.3      4.463      7.123
REMARK  6 active torsions:
REMARK  status: ('A' for Active; 'I' for Inactive)
REMARK    1  A    between atoms: C_4  and  O_5 
REMARK    2  A    between atoms: O_5  and  C_6 
REMARK    3  A    between atoms: C_6  and  C_7 
REMARK    4  A    between atoms: C_11  and  C_12 
REMARK    5  A    between atoms: C_12  and  N_13 
REMARK       I    between atoms: N_13  and  C_14 
REMARK       I    between atoms: C_14  and  N_15 
REMARK    6  A    between atoms: N_15  and  C_16 
ROOT
HETATM    1  C   UNL     1       5.046  24.626  52.977  1.00  0.00     0.165 C 
ENDROOT
BRANCH   1   2
HETATM    2  C   UNL     1       5.967  24.705  54.170  1.00  0.00    -0.007 A 
HETATM    3  C   UNL     1       7.081  23.857  54.296  1.00  0.00     0.077 A 
HETATM    4  C   UNL     1       7.905  23.952  55.424  1.00  0.00     0.044 A 
HETATM    5  C   UNL     1       7.652  24.907  56.418  1.00  0.00    -0.059 A 
HETATM    6  C   UNL     1       8.550  25.024  57.616  1.00  0.00     0.048 C 
HETATM    7  C   UNL     1       6.575  25.784  56.264  1.00  0.00     0.007 A 
HETATM    8  C   UNL     1       5.737  25.681  55.153  1.00  0.00     0.012 A 
BRANCH   3   9
HETATM    9  O   UNL     1       7.266  22.951  53.288  1.00  0.00    -0.342 OA
BRANCH   9  10
HETATM   10  C   UNL     1       8.528  22.275  53.241  1.00  0.00     0.293 C 
BRANCH  10  11
HETATM   11  C   UNL     1       8.327  20.776  53.396  1.00  0.00     0.408 C 
HETATM   12  F   UNL     1       9.290  20.222  54.166  1.00  0.00    -0.169 F 
HETATM   13  F   UNL     1       7.139  20.523  53.995  1.00  0.00    -0.169 F 
HETATM   14  F   UNL     1       8.322  20.142  52.205  1.00  0.00    -0.169 F 
ENDBRANCH  10  11
ENDBRANCH   9  10
ENDBRANCH   3   9
ENDBRANCH   1   2
BRANCH   1  15
HETATM   15  N   UNL     1       5.623  25.291  51.828  1.00  0.00    -0.339 N 
HETATM   16  C   UNL     1       5.146  26.537  51.480  1.00  0.00     0.321 C 
HETATM   17  N   UNL     1       5.769  26.991  50.340  1.00  0.00    -0.307 N 
HETATM   18  O   UNL     1       4.300  27.134  52.131  1.00  0.00    -0.247 OA
HETATM   19  H   UNL     1       6.674  26.583  50.166  1.00  0.00     0.170 HD
HETATM   20  H   UNL     1       5.817  24.693  51.039  1.00  0.00     0.164 HD
BRANCH  17  21
HETATM   21  C   UNL     1       5.391  28.117  49.573  1.00  0.00     0.059 A 
HETATM   22  C   UNL     1       4.699  27.937  48.362  1.00  0.00    -0.032 A 
HETATM   23  C   UNL     1       4.398  26.578  47.797  1.00  0.00     0.050 C 
HETATM   24  C   UNL     1       4.287  29.071  47.649  1.00  0.00     0.028 A 
HETATM   25  C   UNL     1       4.572  30.329  48.154  1.00  0.00     0.117 A 
HETATM   26  N   UNL     1       5.234  30.535  49.307  1.00  0.00    -0.271 NA
HETATM   27  C   UNL     1       5.631  29.429  49.987  1.00  0.00     0.146 A 
ENDBRANCH  17  21
ENDBRANCH   1  15
TORSDOF 6
ENDMDL
MODEL 8
REMARK VINA RESULT:      -8.2      4.085      7.959
REMARK  6 active torsions:
REMARK  status: ('A' for Active; 'I' for Inactive)
REMARK    1  A    between atoms: C_4  and  O_5 
REMARK    2  A    between atoms: O_5  and  C_6 
REMARK    3  A    between atoms: C_6  and  C_7 
REMARK    4  A    between atoms: C_11  and  C_12 
REMARK    5  A    between atoms: C_12  and  N_13 
REMARK       I    between atoms: N_13  and  C_14 
REMARK       I    between atoms: C_14  and  N_15 
REMARK    6  A    between atoms: N_15  and  C_16 
ROOT
HETATM    1  C   UNL     1       7.089  25.017  52.399  1.00  0.00     0.165 C 
ENDROOT
BRANCH   1   2
HETATM    2  C   UNL     1       7.182  25.649  53.767  1.00  0.00    -0.007 A 
HETATM    3  C   UNL     1       7.028  24.891  54.940  1.00  0.00     0.077 A 
HETATM    4  C   UNL     1       7.108  25.516  56.190  1.00  0.00     0.044 A 
HETATM    5  C   UNL     1       7.373  26.889  56.289  1.00  0.00    -0.059 A 
HETATM    6  C   UNL     1       7.482  27.555  57.630  1.00  0.00     0.048 C 
HETATM    7  C   UNL     1       7.579  27.631  55.122  1.00  0.00     0.007 A 
HETATM    8  C   UNL     1       7.479  27.018  53.872  1.00  0.00     0.012 A 
BRANCH   3   9
HETATM    9  O   UNL     1       6.772  23.558  54.766  1.00  0.00    -0.342 OA
BRANCH   9  10
HETATM   10  C   UNL     1       7.778  22.638  55.204  1.00  0.00     0.293 C 
BRANCH  10  11
HETATM   11  C   UNL     1       8.018  21.577  54.141  1.00  0.00     0.408 C 
HETATM   12  F   UNL     1       9.335  21.427  53.877  1.00  0.00    -0.169 F 
HETATM   13  F   UNL     1       7.554  20.378  54.565  1.00  0.00    -0.169 F 
HETATM   14  F   UNL     1       7.386  21.870  52.985  1.00  0.00    -0.169 F 
ENDBRANCH  10  11
ENDBRANCH   9  10
ENDBRANCH   3   9
ENDBRANCH   1   2
BRANCH   1  15
HETATM   15  N   UNL     1       6.711  25.994  51.399  1.00  0.00    -0.339 N 
HETATM   16  C   UNL     1       5.446  25.923  50.856  1.00  0.00     0.321 C 
HETATM   17  N   UNL     1       5.281  26.890  49.890  1.00  0.00    -0.307 N 
HETATM   18  O   UNL     1       4.606  25.112  51.220  1.00  0.00    -0.247 OA
HETATM   19  H   UNL     1       5.890  27.687  49.987  1.00  0.00     0.170 HD
HETATM   20  H   UNL     1       7.431  26.223  50.731  1.00  0.00     0.164 HD
BRANCH  17  21
HETATM   21  C   UNL     1       4.206  26.985  48.977  1.00  0.00     0.059 A 
HETATM   22  C   UNL     1       3.187  27.928  49.194  1.00  0.00    -0.032 A 
HETATM   23  C   UNL     1       3.146  28.809  50.410  1.00  0.00     0.050 C 
HETATM   24  C   UNL     1       2.162  28.041  48.244  1.00  0.00     0.028 A 
HETATM   25  C   UNL     1       2.183  27.223  47.125  1.00  0.00     0.117 A 
HETATM   26  N   UNL     1       3.142  26.310  46.889  1.00  0.00    -0.271 NA
HETATM   27  C   UNL     1       4.127  26.208  47.819  1.00  0.00     0.146 A 
ENDBRANCH  17  21
ENDBRANCH   1  15
TORSDOF 6
ENDMDL
MODEL 9
REMARK VINA RESULT:      -7.9      3.853      7.557
REMARK  6 active torsions:
REMARK  status: ('A' for Active; 'I' for Inactive)
REMARK    1  A    between atoms: C_4  and  O_5 
REMARK    2  A    between atoms: O_5  and  C_6 
REMARK    3  A    between atoms: C_6  and  C_7 
REMARK    4  A    between atoms: C_11  and  C_12 
REMARK    5  A    between atoms: C_12  and  N_13 
REMARK       I    between atoms: N_13  and  C_14 
REMARK       I    between atoms: C_14  and  N_15 
REMARK    6  A    between atoms: N_15  and  C_16 
ROOT
HETATM    1  C   UNL     1       6.324  25.303  54.297  1.00  0.00     0.165 C 
ENDROOT
BRANCH   1   2
HETATM    2  C   UNL     1       7.066  26.309  55.143  1.00  0.00    -0.007 A 
HETATM    3  C   UNL     1       7.558  25.978  56.417  1.00  0.00     0.077 A 
HETATM    4  C   UNL     1       8.230  26.942  57.177  1.00  0.00     0.044 A 
HETATM    5  C   UNL     1       8.447  28.231  56.670  1.00  0.00    -0.059 A 
HETATM    6  C   UNL     1       9.188  29.258  57.477  1.00  0.00     0.048 C 
HETATM    7  C   UNL     1       8.003  28.541  55.382  1.00  0.00     0.007 A 
HETATM    8  C   UNL     1       7.313  27.591  54.627  1.00  0.00     0.012 A 
BRANCH   3   9
HETATM    9  O   UNL     1       7.310  24.703  56.846  1.00  0.00    -0.342 OA
BRANCH   9  10
HETATM   10  C   UNL     1       8.444  23.878  57.133  1.00  0.00     0.293 C 
BRANCH  10  11
HETATM   11  C   UNL     1       8.397  22.609  56.294  1.00  0.00     0.408 C 
HETATM   12  F   UNL     1       8.573  21.505  57.054  1.00  0.00    -0.169 F 
HETATM   13  F   UNL     1       7.191  22.494  55.690  1.00  0.00    -0.169 F 
HETATM   14  F   UNL     1       9.337  22.611  55.326  1.00  0.00    -0.169 F 
ENDBRANCH  10  11
ENDBRANCH   9  10
ENDBRANCH   3   9
ENDBRANCH   1   2
BRANCH   1  15
HETATM   15  N   UNL     1       5.391  25.961  53.405  1.00  0.00    -0.339 N 
HETATM   16  C   UNL     1       5.672  25.977  52.056  1.00  0.00     0.321 C 
HETATM   17  N   UNL     1       4.711  26.687  51.371  1.00  0.00    -0.307 N 
HETATM   18  O   UNL     1       6.640  25.412  51.567  1.00  0.00    -0.247 OA
HETATM   19  H   UNL     1       3.820  26.742  51.838  1.00  0.00     0.170 HD
HETATM   20  H   UNL     1       5.003  26.825  53.752  1.00  0.00     0.164 HD
BRANCH  17  21
HETATM   21  C   UNL     1       4.778  27.096  50.020  1.00  0.00     0.059 A 
HETATM   22  C   UNL     1       5.201  28.399  49.705  1.00  0.00    -0.032 A 
HETATM   23  C   UNL     1       5.525  29.421  50.757  1.00  0.00     0.050 C 
HETATM   24  C   UNL     1       5.312  28.762  48.355  1.00  0.00     0.028 A 
HETATM   25  C   UNL     1       5.003  27.831  47.376  1.00  0.00     0.117 A 
HETATM   26  N   UNL     1       4.593  26.578  47.644  1.00  0.00    -0.271 NA
HETATM   27  C   UNL     1       4.486  26.240  48.956  1.00  0.00     0.146 A 
ENDBRANCH  17  21
ENDBRANCH   1  15
TORSDOF 6
ENDMDL
MODEL 10
REMARK VINA RESULT:      -7.9      2.703      6.995
REMARK  6 active torsions:
REMARK  status: ('A' for Active; 'I' for Inactive)
REMARK    1  A    between atoms: C_4  and  O_5 
REMARK    2  A    between atoms: O_5  and  C_6 
REMARK    3  A    between atoms: C_6  and  C_7 
REMARK    4  A    between atoms: C_11  and  C_12 
REMARK    5  A    between atoms: C_12  and  N_13 
REMARK       I    between atoms: N_13  and  C_14 
REMARK       I    between atoms: C_14  and  N_15 
REMARK    6  A    between atoms: N_15  and  C_16 
ROOT
HETATM    1  C   UNL     1       7.142  27.012  56.314  1.00  0.00     0.165 C 
ENDROOT
BRANCH   1   2
HETATM    2  C   UNL     1       6.064  28.063  56.215  1.00  0.00    -0.007 A 
HETATM    3  C   UNL     1       5.398  28.324  55.005  1.00  0.00     0.077 A 
HETATM    4  C   UNL     1       4.413  29.316  54.949  1.00  0.00     0.044 A 
HETATM    5  C   UNL     1       4.056  30.037  56.098  1.00  0.00    -0.059 A 
HETATM    6  C   UNL     1       2.983  31.085  56.043  1.00  0.00     0.048 C 
HETATM    7  C   UNL     1       4.682  29.739  57.312  1.00  0.00     0.007 A 
HETATM    8  C   UNL     1       5.680  28.765  57.369  1.00  0.00     0.012 A 
BRANCH   3   9
HETATM    9  O   UNL     1       5.799  27.582  53.926  1.00  0.00    -0.342 OA
BRANCH   9  10
HETATM   10  C   UNL     1       4.771  27.028  53.098  1.00  0.00     0.293 C 
BRANCH  10  11
HETATM   11  C   UNL     1       5.291  25.802  52.364  1.00  0.00     0.408 C 
HETATM   12  F   UNL     1       6.636  25.833  52.235  1.00  0.00    -0.169 F 
HETATM   13  F   UNL     1       4.978  24.678  53.052  1.00  0.00    -0.169 F 
HETATM   14  F   UNL     1       4.751  25.685  51.132  1.00  0.00    -0.169 F 
ENDBRANCH  10  11
ENDBRANCH   9  10
ENDBRANCH   3   9
ENDBRANCH   1   2
BRANCH   1  15
HETATM   15  N   UNL     1       6.665  25.731  55.836  1.00  0.00    -0.339 N 
HETATM   16  C   UNL     1       7.501  24.639  55.934  1.00  0.00     0.321 C 
HETATM   17  N   UNL     1       6.907  23.525  55.385  1.00  0.00    -0.307 N 
HETATM   18  O   UNL     1       8.604  24.688  56.459  1.00  0.00    -0.247 OA
HETATM   19  H   UNL     1       5.900  23.557  55.361  1.00  0.00     0.170 HD
HETATM   20  H   UNL     1       6.134  25.764  54.979  1.00  0.00     0.164 HD
BRANCH  17  21
HETATM   21  C   UNL     1       7.538  22.290  55.113  1.00  0.00     0.059 A 
HETATM   22  C   UNL     1       8.039  22.031  53.825  1.00  0.00    -0.032 A 
HETATM   23  C   UNL     1       7.872  22.993  52.683  1.00  0.00     0.050 C 
HETATM   24  C   UNL     1       8.710  20.821  53.596  1.00  0.00     0.028 A 
HETATM   25  C   UNL     1       8.858  19.921  54.638  1.00  0.00     0.117 A 
HETATM   26  N   UNL     1       8.389  20.138  55.880  1.00  0.00    -0.271 NA
HETATM   27  C   UNL     1       7.737  21.311  56.089  1.00  0.00     0.146 A 
ENDBRANCH  17  21
ENDBRANCH   1  15
TORSDOF 6
ENDMDL
