MODEL 1
REMARK VINA RESULT:     -10.3      0.000      0.000
REMARK  8 active torsions:
REMARK  status: ('A' for Active; 'I' for Inactive)
REMARK    1  A    between atoms: N_9  and  N_10 
REMARK    2  A    between atoms: C_11  and  C_12 
REMARK    3  A    between atoms: C_14  and  O_15 
REMARK    4  A    between atoms: C_19  and  N_20 
REMARK    5  A    between atoms: C_21  and  C_22 
REMARK       I    between atoms: C_22  and  N_23 
REMARK    6  A    between atoms: N_23  and  C_24 
REMARK    7  A    between atoms: C_24  and  C_25 
REMARK    8  A    between atoms: C_25  and  C_26 
ROOT
HETATM    1  C   UNL     1       7.576  30.172  57.776  1.00  0.00     0.002 A 
HETATM    2  C   UNL     1       6.902  30.149  56.553  1.00  0.00     0.034 A 
HETATM    3  C   UNL     1       6.597  28.955  55.911  1.00  0.00     0.086 A 
HETATM    4  C   UNL     1       6.988  27.734  56.523  1.00  0.00     0.088 A 
HETATM    5  N   UNL     1       6.730  26.536  55.984  1.00  0.00    -0.225 NA
HETATM    6  C   UNL     1       6.049  26.614  54.817  1.00  0.00     0.183 A 
HETATM    7  C   UNL     1       5.647  27.789  54.201  1.00  0.00     0.125 A 
HETATM    8  N   UNL     1       5.938  29.007  54.737  1.00  0.00    -0.242 NA
HETATM    9  N   UNL     1       5.636  25.558  54.028  1.00  0.00    -0.197 N 
HETATM   10  C   UNL     1       4.946  26.071  52.930  1.00  0.00     0.143 A 
HETATM   11  C   UNL     1       4.981  27.460  52.992  1.00  0.00     0.110 A 
HETATM   12  C   UNL     1       7.661  27.771  57.737  1.00  0.00     0.034 A 
HETATM   13  C   UNL     1       7.958  28.978  58.369  1.00  0.00     0.002 A 
ENDROOT
BRANCH  11  14
HETATM   14  C   UNL     1       4.509  28.349  51.941  1.00  0.00     0.257 C 
HETATM   15  N   UNL     1       5.495  29.088  51.323  1.00  0.00    -0.356 N 
HETATM   16  H   UNL     1       6.450  28.988  51.664  1.00  0.00     0.162 HD
HETATM   17  O   UNL     1       3.341  28.359  51.556  1.00  0.00    -0.267 OA
BRANCH  15  18
HETATM   18  C   UNL     1       5.280  29.642  50.002  1.00  0.00     0.127 C 
BRANCH  18  19
HETATM   19  C   UNL     1       5.611  28.663  48.867  1.00  0.00     0.053 C 
BRANCH  19  20
HETATM   20  C   UNL     1       4.517  27.729  48.364  1.00  0.00    -0.082 C 
HETATM   21  C   UNL     1       3.446  28.422  47.542  1.00  0.00     0.034 C 
HETATM   22  C   UNL     1       2.194  27.571  47.308  1.00  0.00     0.005 C 
HETATM   23  C   UNL     1       2.568  26.147  46.923  1.00  0.00     0.004 C 
HETATM   24  C   UNL     1       3.403  25.493  48.022  1.00  0.00     0.027 C 
HETATM   25  C   UNL     1       4.452  26.403  48.595  1.00  0.00    -0.024 C 
ENDBRANCH  19  20
ENDBRANCH  18  19
ENDBRANCH  15  18
ENDBRANCH  11  14
BRANCH  10  26
HETATM   26  N   UNL     1       4.435  25.266  51.955  1.00  0.00    -0.383 N 
HETATM   27  H   UNL     1       4.651  25.470  50.980  1.00  0.00     0.157 HD
HETATM   28  H   UNL     1       3.470  24.940  52.078  1.00  0.00     0.157 HD
ENDBRANCH  10  26
BRANCH   9  29
HETATM   29  N   UNL     1       6.023  24.260  54.227  1.00  0.00    -0.176 NA
HETATM   30  C   UNL     1       7.175  23.951  53.729  1.00  0.00     0.150 C 
BRANCH  30  31
HETATM   31  C   UNL     1       7.735  22.599  53.932  1.00  0.00    -0.014 A 
HETATM   32  C   UNL     1       8.135  22.190  55.210  1.00  0.00     0.049 A 
HETATM   33  C   UNL     1       8.674  20.920  55.378  1.00  0.00     0.066 A 
HETATM   34  C   UNL     1       8.812  20.056  54.298  1.00  0.00     0.036 A 
HETATM   35  C   UNL     1       8.409  20.467  53.024  1.00  0.00     0.004 A 
HETATM   36  C   UNL     1       7.873  21.743  52.837  1.00  0.00     0.013 A 
BRANCH  33  37
HETATM   37  O   UNL     1       9.085  20.481  56.601  1.00  0.00    -0.361 OA
HETATM   38  H   UNL     1       9.859  21.004  56.874  1.00  0.00     0.217 HD
ENDBRANCH  33  37
ENDBRANCH  30  31
ENDBRANCH   9  29
TORSDOF 8
ENDMDL
MODEL 2
REMARK VINA RESULT:     -10.1      4.089      8.034
REMARK  8 active torsions:
REMARK  status: ('A' for Active; 'I' for Inactive)
REMARK    1  A    between atoms: N_9  and  N_10 
REMARK    2  A    between atoms: C_11  and  C_12 
REMARK    3  A    between atoms: C_14  and  O_15 
REMARK    4  A    between atoms: C_19  and  N_20 
REMARK    5  A    between atoms: C_21  and  C_22 
REMARK       I    between atoms: C_22  and  N_23 
REMARK    6  A    between atoms: N_23  and  C_24 
REMARK    7  A    between atoms: C_24  and  C_25 
REMARK    8  A    between atoms: C_25  and  C_26 
ROOT
HETATM    1  C   UNL     1      10.962  31.299  58.359  1.00  0.00     0.002 A 
HETATM    2  C   UNL     1       9.573  31.390  58.468  1.00  0.00     0.034 A 
HETATM    3  C   UNL     1       8.731  30.471  57.853  1.00  0.00     0.086 A 
HETATM    4  C   UNL     1       9.312  29.419  57.096  1.00  0.00     0.088 A 
HETATM    5  N   UNL     1       8.583  28.482  56.475  1.00  0.00    -0.225 NA
HETATM    6  C   UNL     1       7.251  28.636  56.662  1.00  0.00     0.183 A 
HETATM    7  C   UNL     1       6.657  29.647  57.402  1.00  0.00     0.125 A 
HETATM    8  N   UNL     1       7.401  30.614  58.007  1.00  0.00    -0.242 NA
HETATM    9  N   UNL     1       6.247  27.834  56.156  1.00  0.00    -0.197 N 
HETATM   10  C   UNL     1       5.021  28.324  56.607  1.00  0.00     0.143 A 
HETATM   11  C   UNL     1       5.249  29.480  57.345  1.00  0.00     0.110 A 
HETATM   12  C   UNL     1      10.694  29.341  56.992  1.00  0.00     0.034 A 
HETATM   13  C   UNL     1      11.525  30.271  57.617  1.00  0.00     0.002 A 
ENDROOT
BRANCH  11  14
HETATM   14  C   UNL     1       4.206  30.365  57.843  1.00  0.00     0.257 C 
HETATM   15  N   UNL     1       4.465  30.928  59.075  1.00  0.00    -0.356 N 
HETATM   16  H   UNL     1       5.326  30.660  59.550  1.00  0.00     0.162 HD
HETATM   17  O   UNL     1       3.225  30.676  57.171  1.00  0.00    -0.267 OA
BRANCH  15  18
HETATM   18  C   UNL     1       3.790  32.142  59.484  1.00  0.00     0.127 C 
BRANCH  18  19
HETATM   19  C   UNL     1       4.747  33.243  59.961  1.00  0.00     0.053 C 
BRANCH  19  20
HETATM   20  C   UNL     1       5.607  32.982  61.192  1.00  0.00    -0.082 C 
HETATM   21  C   UNL     1       7.076  32.762  60.881  1.00  0.00     0.034 C 
HETATM   22  C   UNL     1       7.880  32.188  62.052  1.00  0.00     0.005 C 
HETATM   23  C   UNL     1       7.533  32.900  63.352  1.00  0.00     0.004 C 
HETATM   24  C   UNL     1       6.045  32.754  63.664  1.00  0.00     0.027 C 
HETATM   25  C   UNL     1       5.162  32.938  62.463  1.00  0.00    -0.024 C 
ENDBRANCH  19  20
ENDBRANCH  18  19
ENDBRANCH  15  18
ENDBRANCH  11  14
BRANCH  10  26
HETATM   26  N   UNL     1       3.836  27.751  56.250  1.00  0.00    -0.383 N 
HETATM   27  H   UNL     1       3.738  27.354  55.317  1.00  0.00     0.157 HD
HETATM   28  H   UNL     1       2.979  28.219  56.565  1.00  0.00     0.157 HD
ENDBRANCH  10  26
BRANCH   9  29
HETATM   29  N   UNL     1       6.451  26.851  55.224  1.00  0.00    -0.176 NA
HETATM   30  C   UNL     1       7.072  25.806  55.661  1.00  0.00     0.150 C 
BRANCH  30  31
HETATM   31  C   UNL     1       7.296  24.648  54.771  1.00  0.00    -0.014 A 
HETATM   32  C   UNL     1       7.360  23.354  55.305  1.00  0.00     0.049 A 
HETATM   33  C   UNL     1       7.587  22.280  54.453  1.00  0.00     0.066 A 
HETATM   34  C   UNL     1       7.742  22.475  53.085  1.00  0.00     0.036 A 
HETATM   35  C   UNL     1       7.673  23.767  52.556  1.00  0.00     0.004 A 
HETATM   36  C   UNL     1       7.454  24.858  53.399  1.00  0.00     0.013 A 
BRANCH  33  37
HETATM   37  O   UNL     1       7.667  21.005  54.927  1.00  0.00    -0.361 OA
HETATM   38  H   UNL     1       8.529  20.632  54.671  1.00  0.00     0.217 HD
ENDBRANCH  33  37
ENDBRANCH  30  31
ENDBRANCH   9  29
TORSDOF 8
ENDMDL
MODEL 3
REMARK VINA RESULT:     -10.1      2.296      6.018
REMARK  8 active torsions:
REMARK  status: ('A' for Active; 'I' for Inactive)
REMARK    1  A    between atoms: N_9  and  N_10 
REMARK    2  A    between atoms: C_11  and  C_12 
REMARK    3  A    between atoms: C_14  and  O_15 
REMARK    4  A    between atoms: C_19  and  N_20 
REMARK    5  A    between atoms: C_21  and  C_22 
REMARK       I    between atoms: C_22  and  N_23 
REMARK    6  A    between atoms: N_23  and  C_24 
REMARK    7  A    between atoms: C_24  and  C_25 
REMARK    8  A    between atoms: C_25  and  C_26 
ROOT
HETATM    1  C   UNL     1       8.368  21.409  53.610  1.00  0.00     0.002 A 
HETATM    2  C   UNL     1       7.621  22.348  52.896  1.00  0.00     0.034 A 
HETATM    3  C   UNL     1       7.476  23.656  53.342  1.00  0.00     0.086 A 
HETATM    4  C   UNL     1       8.107  24.034  54.558  1.00  0.00     0.088 A 
HETATM    5  N   UNL     1       8.030  25.272  55.062  1.00  0.00    -0.225 NA
HETATM    6  C   UNL     1       7.312  26.118  54.286  1.00  0.00     0.183 A 
HETATM    7  C   UNL     1       6.694  25.780  53.092  1.00  0.00     0.125 A 
HETATM    8  N   UNL     1       6.749  24.512  52.598  1.00  0.00    -0.242 NA
HETATM    9  N   UNL     1       7.058  27.453  54.533  1.00  0.00    -0.197 N 
HETATM   10  C   UNL     1       6.305  27.962  53.476  1.00  0.00     0.143 A 
HETATM   11  C   UNL     1       6.026  26.927  52.589  1.00  0.00     0.110 A 
HETATM   12  C   UNL     1       8.843  23.090  55.261  1.00  0.00     0.034 A 
HETATM   13  C   UNL     1       8.980  21.781  54.799  1.00  0.00     0.002 A 
ENDROOT
BRANCH  11  14
HETATM   14  C   UNL     1       5.129  27.031  51.448  1.00  0.00     0.257 C 
HETATM   15  N   UNL     1       5.443  26.206  50.389  1.00  0.00    -0.356 N 
HETATM   16  H   UNL     1       6.278  25.628  50.466  1.00  0.00     0.162 HD
HETATM   17  O   UNL     1       4.109  27.717  51.468  1.00  0.00    -0.267 OA
BRANCH  15  18
HETATM   18  C   UNL     1       4.435  25.850  49.412  1.00  0.00     0.127 C 
BRANCH  18  19
HETATM   19  C   UNL     1       4.560  26.628  48.094  1.00  0.00     0.053 C 
BRANCH  19  20
HETATM   20  C   UNL     1       3.351  27.400  47.583  1.00  0.00    -0.082 C 
HETATM   21  C   UNL     1       2.079  26.575  47.509  1.00  0.00     0.034 C 
HETATM   22  C   UNL     1       0.955  27.236  46.706  1.00  0.00     0.005 C 
HETATM   23  C   UNL     1       0.820  28.709  47.068  1.00  0.00     0.004 C 
HETATM   24  C   UNL     1       2.124  29.454  46.786  1.00  0.00     0.027 C 
HETATM   25  C   UNL     1       3.348  28.696  47.215  1.00  0.00    -0.024 C 
ENDBRANCH  19  20
ENDBRANCH  18  19
ENDBRANCH  15  18
ENDBRANCH  11  14
BRANCH  10  26
HETATM   26  N   UNL     1       5.876  29.256  53.448  1.00  0.00    -0.383 N 
HETATM   27  H   UNL     1       6.174  29.861  52.684  1.00  0.00     0.157 HD
HETATM   28  H   UNL     1       5.839  29.753  54.345  1.00  0.00     0.157 HD
ENDBRANCH  10  26
BRANCH   9  29
HETATM   29  N   UNL     1       7.351  28.079  55.715  1.00  0.00    -0.176 NA
HETATM   30  C   UNL     1       8.461  28.740  55.722  1.00  0.00     0.150 C 
BRANCH  30  31
HETATM   31  C   UNL     1       8.859  29.514  56.916  1.00  0.00    -0.014 A 
HETATM   32  C   UNL     1       7.997  29.599  58.017  1.00  0.00     0.049 A 
HETATM   33  C   UNL     1       8.383  30.346  59.123  1.00  0.00     0.066 A 
HETATM   34  C   UNL     1       9.611  30.997  59.150  1.00  0.00     0.036 A 
HETATM   35  C   UNL     1      10.470  30.908  58.052  1.00  0.00     0.004 A 
HETATM   36  C   UNL     1      10.094  30.168  56.928  1.00  0.00     0.013 A 
BRANCH  33  37
HETATM   37  O   UNL     1       7.574  30.465  60.214  1.00  0.00    -0.361 OA
HETATM   38  H   UNL     1       7.358  31.406  60.338  1.00  0.00     0.217 HD
ENDBRANCH  33  37
ENDBRANCH  30  31
ENDBRANCH   9  29
TORSDOF 8
ENDMDL
MODEL 4
REMARK VINA RESULT:     -10.0      2.786      8.121
REMARK  8 active torsions:
REMARK  status: ('A' for Active; 'I' for Inactive)
REMARK    1  A    between atoms: N_9  and  N_10 
REMARK    2  A    between atoms: C_11  and  C_12 
REMARK    3  A    between atoms: C_14  and  O_15 
REMARK    4  A    between atoms: C_19  and  N_20 
REMARK    5  A    between atoms: C_21  and  C_22 
REMARK       I    between atoms: C_22  and  N_23 
REMARK    6  A    between atoms: N_23  and  C_24 
REMARK    7  A    between atoms: C_24  and  C_25 
REMARK    8  A    between atoms: C_25  and  C_26 
ROOT
HETATM    1  C   UNL     1       4.167  29.267  50.933  1.00  0.00     0.002 A 
HETATM    2  C   UNL     1       4.512  29.560  52.254  1.00  0.00     0.034 A 
HETATM    3  C   UNL     1       5.041  28.593  53.100  1.00  0.00     0.086 A 
HETATM    4  C   UNL     1       5.228  27.278  52.597  1.00  0.00     0.088 A 
HETATM    5  N   UNL     1       5.738  26.283  53.335  1.00  0.00    -0.225 NA
HETATM    6  C   UNL     1       6.070  26.669  54.589  1.00  0.00     0.183 A 
HETATM    7  C   UNL     1       5.908  27.946  55.104  1.00  0.00     0.125 A 
HETATM    8  N   UNL     1       5.360  28.947  54.360  1.00  0.00    -0.242 NA
HETATM    9  N   UNL     1       6.618  25.879  55.580  1.00  0.00    -0.197 N 
HETATM   10  C   UNL     1       6.830  26.669  56.709  1.00  0.00     0.143 A 
HETATM   11  C   UNL     1       6.352  27.949  56.452  1.00  0.00     0.110 A 
HETATM   12  C   UNL     1       4.876  26.999  51.283  1.00  0.00     0.034 A 
HETATM   13  C   UNL     1       4.348  27.981  50.446  1.00  0.00     0.002 A 
ENDROOT
BRANCH  11  14
HETATM   14  C   UNL     1       6.250  29.011  57.442  1.00  0.00     0.257 C 
HETATM   15  N   UNL     1       7.446  29.382  58.018  1.00  0.00    -0.356 N 
HETATM   16  H   UNL     1       8.285  28.873  57.744  1.00  0.00     0.162 HD
HETATM   17  O   UNL     1       5.198  29.609  57.666  1.00  0.00    -0.267 OA
BRANCH  15  18
HETATM   18  C   UNL     1       7.590  30.681  58.642  1.00  0.00     0.127 C 
BRANCH  18  19
HETATM   19  C   UNL     1       8.369  30.641  59.963  1.00  0.00     0.053 C 
BRANCH  19  20
HETATM   20  C   UNL     1       7.928  31.554  61.101  1.00  0.00    -0.082 C 
HETATM   21  C   UNL     1       6.644  32.312  60.819  1.00  0.00     0.034 C 
HETATM   22  C   UNL     1       6.368  33.454  61.802  1.00  0.00     0.005 C 
HETATM   23  C   UNL     1       6.628  33.014  63.236  1.00  0.00     0.004 C 
HETATM   24  C   UNL     1       8.077  32.563  63.406  1.00  0.00     0.027 C 
HETATM   25  C   UNL     1       8.576  31.715  62.271  1.00  0.00    -0.024 C 
ENDBRANCH  19  20
ENDBRANCH  18  19
ENDBRANCH  15  18
ENDBRANCH  11  14
BRANCH  10  26
HETATM   26  N   UNL     1       7.342  26.159  57.865  1.00  0.00    -0.383 N 
HETATM   27  H   UNL     1       7.724  25.214  57.864  1.00  0.00     0.157 HD
HETATM   28  H   UNL     1       6.836  26.372  58.732  1.00  0.00     0.157 HD
ENDBRANCH  10  26
BRANCH   9  29
HETATM   29  N   UNL     1       6.740  24.517  55.490  1.00  0.00    -0.176 NA
HETATM   30  C   UNL     1       7.883  24.099  55.057  1.00  0.00     0.150 C 
BRANCH  30  31
HETATM   31  C   UNL     1       8.164  22.650  54.977  1.00  0.00    -0.014 A 
HETATM   32  C   UNL     1       8.045  21.979  53.754  1.00  0.00     0.049 A 
HETATM   33  C   UNL     1       8.298  20.614  53.703  1.00  0.00     0.066 A 
HETATM   34  C   UNL     1       8.672  19.915  54.845  1.00  0.00     0.036 A 
HETATM   35  C   UNL     1       8.793  20.589  56.063  1.00  0.00     0.004 A 
HETATM   36  C   UNL     1       8.534  21.960  56.134  1.00  0.00     0.013 A 
BRANCH  33  37
HETATM   37  O   UNL     1       8.186  19.916  52.537  1.00  0.00    -0.361 OA
HETATM   38  H   UNL     1       7.677  20.450  51.903  1.00  0.00     0.217 HD
ENDBRANCH  33  37
ENDBRANCH  30  31
ENDBRANCH   9  29
TORSDOF 8
ENDMDL
MODEL 5
REMARK VINA RESULT:      -9.9      2.484      9.059
REMARK  8 active torsions:
REMARK  status: ('A' for Active; 'I' for Inactive)
REMARK    1  A    between atoms: N_9  and  N_10 
REMARK    2  A    between atoms: C_11  and  C_12 
REMARK    3  A    between atoms: C_14  and  O_15 
REMARK    4  A    between atoms: C_19  and  N_20 
REMARK    5  A    between atoms: C_21  and  C_22 
REMARK       I    between atoms: C_22  and  N_23 
REMARK    6  A    between atoms: N_23  and  C_24 
REMARK    7  A    between atoms: C_24  and  C_25 
REMARK    8  A    between atoms: C_25  and  C_26 
ROOT
HETATM    1  C   UNL     1       8.597  20.931  55.178  1.00  0.00     0.002 A 
HETATM    2  C   UNL     1       8.633  22.147  55.864  1.00  0.00     0.034 A 
HETATM    3  C   UNL     1       8.163  23.322  55.288  1.00  0.00     0.086 A 
HETATM    4  C   UNL     1       7.638  23.271  53.970  1.00  0.00     0.088 A 
HETATM    5  N   UNL     1       7.156  24.348  53.337  1.00  0.00    -0.225 NA
HETATM    6  C   UNL     1       7.205  25.472  54.090  1.00  0.00     0.183 A 
HETATM    7  C   UNL     1       7.703  25.550  55.382  1.00  0.00     0.125 A 
HETATM    8  N   UNL     1       8.221  24.458  56.010  1.00  0.00    -0.242 NA
HETATM    9  N   UNL     1       6.782  26.734  53.722  1.00  0.00    -0.197 N 
HETATM   10  C   UNL     1       6.985  27.600  54.796  1.00  0.00     0.143 A 
HETATM   11  C   UNL     1       7.602  26.895  55.824  1.00  0.00     0.110 A 
HETATM   12  C   UNL     1       7.612  22.056  53.298  1.00  0.00     0.034 A 
HETATM   13  C   UNL     1       8.085  20.886  53.890  1.00  0.00     0.002 A 
ENDROOT
BRANCH  11  14
HETATM   14  C   UNL     1       8.120  27.493  57.046  1.00  0.00     0.257 C 
HETATM   15  N   UNL     1       8.990  28.544  56.850  1.00  0.00    -0.356 N 
HETATM   16  H   UNL     1       9.229  28.793  55.892  1.00  0.00     0.162 HD
HETATM   17  O   UNL     1       7.727  27.163  58.163  1.00  0.00    -0.267 OA
BRANCH  15  18
HETATM   18  C   UNL     1       9.218  29.514  57.902  1.00  0.00     0.127 C 
BRANCH  18  19
HETATM   19  C   UNL     1       7.985  30.370  58.221  1.00  0.00     0.053 C 
BRANCH  19  20
HETATM   20  C   UNL     1       7.876  31.011  59.600  1.00  0.00    -0.082 C 
HETATM   21  C   UNL     1       8.927  30.533  60.585  1.00  0.00     0.034 C 
HETATM   22  C   UNL     1       8.636  30.917  62.039  1.00  0.00     0.005 C 
HETATM   23  C   UNL     1       8.183  32.367  62.139  1.00  0.00     0.004 C 
HETATM   24  C   UNL     1       6.918  32.593  61.313  1.00  0.00     0.027 C 
HETATM   25  C   UNL     1       6.955  31.921  59.970  1.00  0.00    -0.024 C 
ENDBRANCH  19  20
ENDBRANCH  18  19
ENDBRANCH  15  18
ENDBRANCH  11  14
BRANCH  10  26
HETATM   26  N   UNL     1       6.685  28.927  54.724  1.00  0.00    -0.383 N 
HETATM   27  H   UNL     1       5.852  29.220  54.215  1.00  0.00     0.157 HD
HETATM   28  H   UNL     1       7.469  29.576  54.590  1.00  0.00     0.157 HD
ENDBRANCH  10  26
BRANCH   9  29
HETATM   29  N   UNL     1       6.409  27.072  52.448  1.00  0.00    -0.176 NA
HETATM   30  C   UNL     1       5.145  26.963  52.201  1.00  0.00     0.150 C 
BRANCH  30  31
HETATM   31  C   UNL     1       4.607  27.360  50.884  1.00  0.00    -0.014 A 
HETATM   32  C   UNL     1       4.870  26.578  49.753  1.00  0.00     0.049 A 
HETATM   33  C   UNL     1       4.368  26.977  48.521  1.00  0.00     0.066 A 
HETATM   34  C   UNL     1       3.605  28.133  48.403  1.00  0.00     0.036 A 
HETATM   35  C   UNL     1       3.342  28.910  49.534  1.00  0.00     0.004 A 
HETATM   36  C   UNL     1       3.846  28.527  50.779  1.00  0.00     0.013 A 
BRANCH  33  37
HETATM   37  O   UNL     1       4.606  26.253  47.390  1.00  0.00    -0.361 OA
HETATM   38  H   UNL     1       5.489  26.484  47.055  1.00  0.00     0.217 HD
ENDBRANCH  33  37
ENDBRANCH  30  31
ENDBRANCH   9  29
TORSDOF 8
ENDMDL
MODEL 6
REMARK VINA RESULT:      -9.4      2.524      8.216
REMARK  8 active torsions:
REMARK  status: ('A' for Active; 'I' for Inactive)
REMARK    1  A    between atoms: N_9  and  N_10 
REMARK    2  A    between atoms: C_11  and  C_12 
REMARK    3  A    between atoms: C_14  and  O_15 
REMARK    4  A    between atoms: C_19  and  N_20 
REMARK    5  A    between atoms: C_21  and  C_22 
REMARK       I    between atoms: C_22  and  N_23 
REMARK    6  A    between atoms: N_23  and  C_24 
REMARK    7  A    between atoms: C_24  and  C_25 
REMARK    8  A    between atoms: C_25  and  C_26 
ROOT
HETATM    1  C   UNL     1       3.372  31.145  56.637  1.00  0.00     0.002 A 
HETATM    2  C   UNL     1       3.959  29.928  56.284  1.00  0.00     0.034 A 
HETATM    3  C   UNL     1       4.009  29.500  54.962  1.00  0.00     0.086 A 
HETATM    4  C   UNL     1       3.444  30.329  53.957  1.00  0.00     0.088 A 
HETATM    5  N   UNL     1       3.452  30.004  52.658  1.00  0.00    -0.225 NA
HETATM    6  C   UNL     1       4.068  28.824  52.409  1.00  0.00     0.183 A 
HETATM    7  C   UNL     1       4.636  28.000  53.368  1.00  0.00     0.125 A 
HETATM    8  N   UNL     1       4.598  28.319  54.692  1.00  0.00    -0.242 NA
HETATM    9  N   UNL     1       4.240  28.225  51.177  1.00  0.00    -0.197 N 
HETATM   10  C   UNL     1       4.946  27.036  51.360  1.00  0.00     0.143 A 
HETATM   11  C   UNL     1       5.162  26.851  52.721  1.00  0.00     0.110 A 
HETATM   12  C   UNL     1       2.860  31.534  54.322  1.00  0.00     0.034 A 
HETATM   13  C   UNL     1       2.819  31.950  55.653  1.00  0.00     0.002 A 
ENDROOT
BRANCH  11  14
HETATM   14  C   UNL     1       5.723  25.647  53.317  1.00  0.00     0.257 C 
HETATM   15  N   UNL     1       6.446  25.857  54.472  1.00  0.00    -0.356 N 
HETATM   16  H   UNL     1       6.564  26.816  54.793  1.00  0.00     0.162 HD
HETATM   17  O   UNL     1       5.478  24.521  52.888  1.00  0.00    -0.267 OA
BRANCH  15  18
HETATM   18  C   UNL     1       6.662  24.774  55.409  1.00  0.00     0.127 C 
BRANCH  18  19
HETATM   19  C   UNL     1       8.052  24.134  55.294  1.00  0.00     0.053 C 
BRANCH  19  20
HETATM   20  C   UNL     1       8.152  22.672  54.875  1.00  0.00    -0.082 C 
HETATM   21  C   UNL     1       8.184  22.463  53.373  1.00  0.00     0.034 C 
HETATM   22  C   UNL     1       7.962  21.010  52.943  1.00  0.00     0.005 C 
HETATM   23  C   UNL     1       8.775  20.056  53.806  1.00  0.00     0.004 C 
HETATM   24  C   UNL     1       8.385  20.194  55.276  1.00  0.00     0.027 C 
HETATM   25  C   UNL     1       8.210  21.620  55.715  1.00  0.00    -0.024 C 
ENDBRANCH  19  20
ENDBRANCH  18  19
ENDBRANCH  15  18
ENDBRANCH  11  14
BRANCH  10  26
HETATM   26  N   UNL     1       5.248  26.206  50.321  1.00  0.00    -0.383 N 
HETATM   27  H   UNL     1       6.148  26.304  49.854  1.00  0.00     0.157 HD
HETATM   28  H   UNL     1       4.491  25.988  49.664  1.00  0.00     0.157 HD
ENDBRANCH  10  26
BRANCH   9  29
HETATM   29  N   UNL     1       3.641  28.661  50.026  1.00  0.00    -0.176 NA
HETATM   30  C   UNL     1       2.608  27.978  49.656  1.00  0.00     0.150 C 
BRANCH  30  31
HETATM   31  C   UNL     1       1.834  28.386  48.466  1.00  0.00    -0.014 A 
HETATM   32  C   UNL     1       1.375  27.420  47.561  1.00  0.00     0.049 A 
HETATM   33  C   UNL     1       0.661  27.826  46.440  1.00  0.00     0.066 A 
HETATM   34  C   UNL     1       0.395  29.171  46.214  1.00  0.00     0.036 A 
HETATM   35  C   UNL     1       0.851  30.132  47.120  1.00  0.00     0.004 A 
HETATM   36  C   UNL     1       1.577  29.742  48.248  1.00  0.00     0.013 A 
BRANCH  33  37
HETATM   37  O   UNL     1       0.203  26.923  45.528  1.00  0.00    -0.361 OA
HETATM   38  H   UNL     1      -0.745  26.773  45.689  1.00  0.00     0.217 HD
ENDBRANCH  33  37
ENDBRANCH  30  31
ENDBRANCH   9  29
TORSDOF 8
ENDMDL
MODEL 7
REMARK VINA RESULT:      -9.3      3.957      8.970
REMARK  8 active torsions:
REMARK  status: ('A' for Active; 'I' for Inactive)
REMARK    1  A    between atoms: N_9  and  N_10 
REMARK    2  A    between atoms: C_11  and  C_12 
REMARK    3  A    between atoms: C_14  and  O_15 
REMARK    4  A    between atoms: C_19  and  N_20 
REMARK    5  A    between atoms: C_21  and  C_22 
REMARK       I    between atoms: C_22  and  N_23 
REMARK    6  A    between atoms: N_23  and  C_24 
REMARK    7  A    between atoms: C_24  and  C_25 
REMARK    8  A    between atoms: C_25  and  C_26 
ROOT
HETATM    1  C   UNL     1      10.853  31.400  58.672  1.00  0.00     0.002 A 
HETATM    2  C   UNL     1       9.499  31.637  58.919  1.00  0.00     0.034 A 
HETATM    3  C   UNL     1       8.503  30.948  58.238  1.00  0.00     0.086 A 
HETATM    4  C   UNL     1       8.884  29.983  57.268  1.00  0.00     0.088 A 
HETATM    5  N   UNL     1       7.996  29.265  56.569  1.00  0.00    -0.225 NA
HETATM    6  C   UNL     1       6.712  29.543  56.897  1.00  0.00     0.183 A 
HETATM    7  C   UNL     1       6.311  30.472  57.845  1.00  0.00     0.125 A 
HETATM    8  N   UNL     1       7.217  31.221  58.532  1.00  0.00    -0.242 NA
HETATM    9  N   UNL     1       5.578  28.969  56.358  1.00  0.00    -0.197 N 
HETATM   10  C   UNL     1       4.462  29.516  56.992  1.00  0.00     0.143 A 
HETATM   11  C   UNL     1       4.892  30.488  57.888  1.00  0.00     0.110 A 
HETATM   12  C   UNL     1      10.234  29.760  57.029  1.00  0.00     0.034 A 
HETATM   13  C   UNL     1      11.222  30.458  57.722  1.00  0.00     0.002 A 
ENDROOT
BRANCH  11  14
HETATM   14  C   UNL     1       4.014  31.391  58.618  1.00  0.00     0.257 C 
HETATM   15  N   UNL     1       4.439  31.709  59.889  1.00  0.00    -0.356 N 
HETATM   16  H   UNL     1       5.293  31.271  60.230  1.00  0.00     0.162 HD
HETATM   17  O   UNL     1       3.030  31.918  58.102  1.00  0.00    -0.267 OA
BRANCH  15  18
HETATM   18  C   UNL     1       3.959  32.907  60.547  1.00  0.00     0.127 C 
BRANCH  18  19
HETATM   19  C   UNL     1       5.066  33.930  60.838  1.00  0.00     0.053 C 
BRANCH  19  20
HETATM   20  C   UNL     1       6.069  33.627  61.944  1.00  0.00    -0.082 C 
HETATM   21  C   UNL     1       5.695  34.215  63.293  1.00  0.00     0.034 C 
HETATM   22  C   UNL     1       6.834  34.194  64.317  1.00  0.00     0.005 C 
HETATM   23  C   UNL     1       7.551  32.851  64.306  1.00  0.00     0.004 C 
HETATM   24  C   UNL     1       8.134  32.563  62.924  1.00  0.00     0.027 C 
HETATM   25  C   UNL     1       7.201  32.911  61.799  1.00  0.00    -0.024 C 
ENDBRANCH  19  20
ENDBRANCH  18  19
ENDBRANCH  15  18
ENDBRANCH  11  14
BRANCH  10  26
HETATM   26  N   UNL     1       3.190  29.161  56.653  1.00  0.00    -0.383 N 
HETATM   27  H   UNL     1       2.431  29.357  57.304  1.00  0.00     0.157 HD
HETATM   28  H   UNL     1       3.069  28.262  56.175  1.00  0.00     0.157 HD
ENDBRANCH  10  26
BRANCH   9  29
HETATM   29  N   UNL     1       5.585  28.148  55.262  1.00  0.00    -0.176 NA
HETATM   30  C   UNL     1       6.097  26.978  55.459  1.00  0.00     0.150 C 
BRANCH  30  31
HETATM   31  C   UNL     1       6.104  25.977  54.373  1.00  0.00    -0.014 A 
HETATM   32  C   UNL     1       5.278  26.147  53.255  1.00  0.00     0.049 A 
HETATM   33  C   UNL     1       5.287  25.186  52.252  1.00  0.00     0.066 A 
HETATM   34  C   UNL     1       6.109  24.068  52.344  1.00  0.00     0.036 A 
HETATM   35  C   UNL     1       6.934  23.903  53.459  1.00  0.00     0.004 A 
HETATM   36  C   UNL     1       6.931  24.856  54.480  1.00  0.00     0.013 A 
BRANCH  33  37
HETATM   37  O   UNL     1       4.493  25.304  51.150  1.00  0.00    -0.361 OA
HETATM   38  H   UNL     1       4.160  24.422  50.912  1.00  0.00     0.217 HD
ENDBRANCH  33  37
ENDBRANCH  30  31
ENDBRANCH   9  29
TORSDOF 8
ENDMDL
MODEL 8
REMARK VINA RESULT:      -9.3      5.084      9.953
REMARK  8 active torsions:
REMARK  status: ('A' for Active; 'I' for Inactive)
REMARK    1  A    between atoms: N_9  and  N_10 
REMARK    2  A    between atoms: C_11  and  C_12 
REMARK    3  A    between atoms: C_14  and  O_15 
REMARK    4  A    between atoms: C_19  and  N_20 
REMARK    5  A    between atoms: C_21  and  C_22 
REMARK       I    between atoms: C_22  and  N_23 
REMARK    6  A    between atoms: N_23  and  C_24 
REMARK    7  A    between atoms: C_24  and  C_25 
REMARK    8  A    between atoms: C_25  and  C_26 
ROOT
HETATM    1  C   UNL     1       3.065  31.291  54.167  1.00  0.00     0.002 A 
HETATM    2  C   UNL     1       4.121  30.491  54.609  1.00  0.00     0.034 A 
HETATM    3  C   UNL     1       4.803  30.770  55.787  1.00  0.00     0.086 A 
HETATM    4  C   UNL     1       4.408  31.902  56.550  1.00  0.00     0.088 A 
HETATM    5  N   UNL     1       5.000  32.245  57.701  1.00  0.00    -0.225 NA
HETATM    6  C   UNL     1       5.990  31.395  58.063  1.00  0.00     0.183 A 
HETATM    7  C   UNL     1       6.391  30.280  57.343  1.00  0.00     0.125 A 
HETATM    8  N   UNL     1       5.806  29.952  56.158  1.00  0.00    -0.242 NA
HETATM    9  N   UNL     1       6.779  31.478  59.192  1.00  0.00    -0.197 N 
HETATM   10  C   UNL     1       7.657  30.394  59.199  1.00  0.00     0.143 A 
HETATM   11  C   UNL     1       7.465  29.660  58.033  1.00  0.00     0.110 A 
HETATM   12  C   UNL     1       3.359  32.691  56.097  1.00  0.00     0.034 A 
HETATM   13  C   UNL     1       2.683  32.396  54.914  1.00  0.00     0.002 A 
ENDROOT
BRANCH  11  14
HETATM   14  C   UNL     1       8.305  28.551  57.604  1.00  0.00     0.257 C 
HETATM   15  N   UNL     1       7.635  27.362  57.408  1.00  0.00    -0.356 N 
HETATM   16  H   UNL     1       6.637  27.339  57.609  1.00  0.00     0.162 HD
HETATM   17  O   UNL     1       9.495  28.689  57.329  1.00  0.00    -0.267 OA
BRANCH  15  18
HETATM   18  C   UNL     1       8.202  26.330  56.565  1.00  0.00     0.127 C 
BRANCH  18  19
HETATM   19  C   UNL     1       7.448  24.996  56.641  1.00  0.00     0.053 C 
BRANCH  19  20
HETATM   20  C   UNL     1       7.545  24.032  55.465  1.00  0.00    -0.082 C 
HETATM   21  C   UNL     1       7.614  24.717  54.112  1.00  0.00     0.034 C 
HETATM   22  C   UNL     1       7.389  23.774  52.926  1.00  0.00     0.005 C 
HETATM   23  C   UNL     1       8.171  22.480  53.103  1.00  0.00     0.004 C 
HETATM   24  C   UNL     1       7.744  21.764  54.382  1.00  0.00     0.027 C 
HETATM   25  C   UNL     1       7.571  22.688  55.554  1.00  0.00    -0.024 C 
ENDBRANCH  19  20
ENDBRANCH  18  19
ENDBRANCH  15  18
ENDBRANCH  11  14
BRANCH  10  26
HETATM   26  N   UNL     1       8.583  30.218  60.184  1.00  0.00    -0.383 N 
HETATM   27  H   UNL     1       8.665  30.918  60.919  1.00  0.00     0.157 HD
HETATM   28  H   UNL     1       9.496  29.842  59.903  1.00  0.00     0.157 HD
ENDBRANCH  10  26
BRANCH   9  29
HETATM   29  N   UNL     1       6.794  32.557  60.036  1.00  0.00    -0.176 NA
HETATM   30  C   UNL     1       6.077  32.426  61.103  1.00  0.00     0.150 C 
BRANCH  30  31
HETATM   31  C   UNL     1       6.061  33.492  62.125  1.00  0.00    -0.014 A 
HETATM   32  C   UNL     1       6.689  33.290  63.361  1.00  0.00     0.049 A 
HETATM   33  C   UNL     1       6.649  34.300  64.314  1.00  0.00     0.066 A 
HETATM   34  C   UNL     1       6.003  35.503  64.052  1.00  0.00     0.036 A 
HETATM   35  C   UNL     1       5.381  35.702  62.817  1.00  0.00     0.004 A 
HETATM   36  C   UNL     1       5.405  34.694  61.850  1.00  0.00     0.013 A 
BRANCH  33  37
HETATM   37  O   UNL     1       7.237  34.146  65.534  1.00  0.00    -0.361 OA
HETATM   38  H   UNL     1       8.144  34.495  65.488  1.00  0.00     0.217 HD
ENDBRANCH  33  37
ENDBRANCH  30  31
ENDBRANCH   9  29
TORSDOF 8
ENDMDL
MODEL 9
REMARK VINA RESULT:      -9.2      2.662      6.350
REMARK  8 active torsions:
REMARK  status: ('A' for Active; 'I' for Inactive)
REMARK    1  A    between atoms: N_9  and  N_10 
REMARK    2  A    between atoms: C_11  and  C_12 
REMARK    3  A    between atoms: C_14  and  O_15 
REMARK    4  A    between atoms: C_19  and  N_20 
REMARK    5  A    between atoms: C_21  and  C_22 
REMARK       I    between atoms: C_22  and  N_23 
REMARK    6  A    between atoms: N_23  and  C_24 
REMARK    7  A    between atoms: C_24  and  C_25 
REMARK    8  A    between atoms: C_25  and  C_26 
ROOT
HETATM    1  C   UNL     1       7.726  23.323  54.555  1.00  0.00     0.002 A 
HETATM    2  C   UNL     1       7.006  24.372  53.980  1.00  0.00     0.034 A 
HETATM    3  C   UNL     1       6.833  25.584  54.638  1.00  0.00     0.086 A 
HETATM    4  C   UNL     1       7.406  25.745  55.928  1.00  0.00     0.088 A 
HETATM    5  N   UNL     1       7.299  26.878  56.634  1.00  0.00    -0.225 NA
HETATM    6  C   UNL     1       6.611  27.846  55.984  1.00  0.00     0.183 A 
HETATM    7  C   UNL     1       6.049  27.720  54.723  1.00  0.00     0.125 A 
HETATM    8  N   UNL     1       6.135  26.556  54.020  1.00  0.00    -0.242 NA
HETATM    9  N   UNL     1       6.338  29.118  56.446  1.00  0.00    -0.197 N 
HETATM   10  C   UNL     1       5.630  29.804  55.459  1.00  0.00     0.143 A 
HETATM   11  C   UNL     1       5.398  28.938  54.395  1.00  0.00     0.110 A 
HETATM   12  C   UNL     1       8.115  24.692  56.490  1.00  0.00     0.034 A 
HETATM   13  C   UNL     1       8.281  23.483  55.816  1.00  0.00     0.002 A 
ENDROOT
BRANCH  11  14
HETATM   14  C   UNL     1       4.552  29.239  53.249  1.00  0.00     0.257 C 
HETATM   15  N   UNL     1       4.968  28.677  52.061  1.00  0.00    -0.356 N 
HETATM   16  H   UNL     1       5.834  28.140  52.065  1.00  0.00     0.162 HD
HETATM   17  O   UNL     1       3.491  29.851  53.352  1.00  0.00    -0.267 OA
BRANCH  15  18
HETATM   18  C   UNL     1       4.034  28.489  50.971  1.00  0.00     0.127 C 
BRANCH  18  19
HETATM   19  C   UNL     1       4.686  27.940  49.695  1.00  0.00     0.053 C 
BRANCH  19  20
HETATM   20  C   UNL     1       3.877  27.007  48.803  1.00  0.00    -0.082 C 
HETATM   21  C   UNL     1       3.119  27.716  47.695  1.00  0.00     0.034 C 
HETATM   22  C   UNL     1       2.066  26.845  47.005  1.00  0.00     0.005 C 
HETATM   23  C   UNL     1       2.617  25.458  46.707  1.00  0.00     0.004 C 
HETATM   24  C   UNL     1       3.056  24.764  47.995  1.00  0.00     0.027 C 
HETATM   25  C   UNL     1       3.801  25.668  48.935  1.00  0.00    -0.024 C 
ENDBRANCH  19  20
ENDBRANCH  18  19
ENDBRANCH  15  18
ENDBRANCH  11  14
BRANCH  10  26
HETATM   26  N   UNL     1       5.195  31.084  55.636  1.00  0.00    -0.383 N 
HETATM   27  H   UNL     1       4.519  31.281  56.373  1.00  0.00     0.157 HD
HETATM   28  H   UNL     1       5.018  31.636  54.789  1.00  0.00     0.157 HD
ENDBRANCH  10  26
BRANCH   9  29
HETATM   29  N   UNL     1       6.573  29.531  57.730  1.00  0.00    -0.176 NA
HETATM   30  C   UNL     1       7.641  30.241  57.888  1.00  0.00     0.150 C 
BRANCH  30  31
HETATM   31  C   UNL     1       7.972  30.802  59.214  1.00  0.00    -0.014 A 
HETATM   32  C   UNL     1       8.753  30.065  60.113  1.00  0.00     0.049 A 
HETATM   33  C   UNL     1       9.040  30.605  61.362  1.00  0.00     0.066 A 
HETATM   34  C   UNL     1       8.569  31.863  61.719  1.00  0.00     0.036 A 
HETATM   35  C   UNL     1       7.793  32.597  60.818  1.00  0.00     0.004 A 
HETATM   36  C   UNL     1       7.489  32.066  59.563  1.00  0.00     0.013 A 
BRANCH  33  37
HETATM   37  O   UNL     1       9.788  29.921  62.274  1.00  0.00    -0.361 OA
HETATM   38  H   UNL     1       9.301  29.120  62.535  1.00  0.00     0.217 HD
ENDBRANCH  33  37
ENDBRANCH  30  31
ENDBRANCH   9  29
TORSDOF 8
ENDMDL
MODEL 10
REMARK VINA RESULT:      -9.2      1.854      6.705
REMARK  8 active torsions:
REMARK  status: ('A' for Active; 'I' for Inactive)
REMARK    1  A    between atoms: N_9  and  N_10 
REMARK    2  A    between atoms: C_11  and  C_12 
REMARK    3  A    between atoms: C_14  and  O_15 
REMARK    4  A    between atoms: C_19  and  N_20 
REMARK    5  A    between atoms: C_21  and  C_22 
REMARK       I    between atoms: C_22  and  N_23 
REMARK    6  A    between atoms: N_23  and  C_24 
REMARK    7  A    between atoms: C_24  and  C_25 
REMARK    8  A    between atoms: C_25  and  C_26 
ROOT
HETATM    1  C   UNL     1       1.773  26.982  47.089  1.00  0.00     0.002 A 
HETATM    2  C   UNL     1       2.030  27.882  48.125  1.00  0.00     0.034 A 
HETATM    3  C   UNL     1       3.031  27.650  49.061  1.00  0.00     0.086 A 
HETATM    4  C   UNL     1       3.803  26.463  48.951  1.00  0.00     0.088 A 
HETATM    5  N   UNL     1       4.792  26.159  49.800  1.00  0.00    -0.225 NA
HETATM    6  C   UNL     1       4.987  27.103  50.750  1.00  0.00     0.183 A 
HETATM    7  C   UNL     1       4.255  28.275  50.876  1.00  0.00     0.125 A 
HETATM    8  N   UNL     1       3.230  28.566  50.029  1.00  0.00    -0.242 NA
HETATM    9  N   UNL     1       5.928  27.080  51.760  1.00  0.00    -0.197 N 
HETATM   10  C   UNL     1       5.809  28.254  52.503  1.00  0.00     0.143 A 
HETATM   11  C   UNL     1       4.743  28.992  52.000  1.00  0.00     0.110 A 
HETATM   12  C   UNL     1       3.534  25.574  47.919  1.00  0.00     0.034 A 
HETATM   13  C   UNL     1       2.528  25.822  46.987  1.00  0.00     0.002 A 
ENDROOT
BRANCH  11  14
HETATM   14  C   UNL     1       4.206  30.199  52.612  1.00  0.00     0.257 C 
HETATM   15  N   UNL     1       3.534  29.994  53.798  1.00  0.00    -0.356 N 
HETATM   16  H   UNL     1       3.431  29.037  54.129  1.00  0.00     0.162 HD
HETATM   17  O   UNL     1       4.431  31.323  52.168  1.00  0.00    -0.267 OA
BRANCH  15  18
HETATM   18  C   UNL     1       3.357  31.081  54.738  1.00  0.00     0.127 C 
BRANCH  18  19
HETATM   19  C   UNL     1       3.480  30.647  56.205  1.00  0.00     0.053 C 
BRANCH  19  20
HETATM   20  C   UNL     1       4.573  29.655  56.585  1.00  0.00    -0.082 C 
HETATM   21  C   UNL     1       4.247  28.215  56.235  1.00  0.00     0.034 C 
HETATM   22  C   UNL     1       5.176  27.190  56.891  1.00  0.00     0.005 C 
HETATM   23  C   UNL     1       6.630  27.629  56.789  1.00  0.00     0.004 C 
HETATM   24  C   UNL     1       6.834  28.979  57.473  1.00  0.00     0.027 C 
HETATM   25  C   UNL     1       5.742  29.967  57.179  1.00  0.00    -0.024 C 
ENDBRANCH  19  20
ENDBRANCH  18  19
ENDBRANCH  15  18
ENDBRANCH  11  14
BRANCH  10  26
HETATM   26  N   UNL     1       6.594  28.508  53.588  1.00  0.00    -0.383 N 
HETATM   27  H   UNL     1       6.513  27.909  54.409  1.00  0.00     0.157 HD
HETATM   28  H   UNL     1       6.737  29.492  53.839  1.00  0.00     0.157 HD
ENDBRANCH  10  26
BRANCH   9  29
HETATM   29  N   UNL     1       6.698  25.988  52.060  1.00  0.00    -0.176 NA
HETATM   30  C   UNL     1       6.343  25.345  53.123  1.00  0.00     0.150 C 
BRANCH  30  31
HETATM   31  C   UNL     1       7.053  24.111  53.518  1.00  0.00    -0.014 A 
HETATM   32  C   UNL     1       7.173  23.773  54.872  1.00  0.00     0.049 A 
HETATM   33  C   UNL     1       7.857  22.616  55.224  1.00  0.00     0.066 A 
HETATM   34  C   UNL     1       8.414  21.794  54.251  1.00  0.00     0.036 A 
HETATM   35  C   UNL     1       8.289  22.132  52.901  1.00  0.00     0.004 A 
HETATM   36  C   UNL     1       7.611  23.295  52.531  1.00  0.00     0.013 A 
BRANCH  33  37
HETATM   37  O   UNL     1       8.008  22.251  56.529  1.00  0.00    -0.361 OA
HETATM   38  H   UNL     1       7.876  21.290  56.599  1.00  0.00     0.217 HD
ENDBRANCH  33  37
ENDBRANCH  30  31
ENDBRANCH   9  29
TORSDOF 8
ENDMDL
