MODEL 1
REMARK VINA RESULT:     -11.2      0.000      0.000
REMARK  6 active torsions:
REMARK  status: ('A' for Active; 'I' for Inactive)
REMARK    1  A    between atoms: C_2  and  O_3 
REMARK    2  A    between atoms: O_3  and  C_4 
REMARK    3  A    between atoms: C_7  and  C_8 
REMARK       I    between atoms: C_8  and  N_9 
REMARK    4  A    between atoms: N_9  and  C_10 
REMARK    5  A    between atoms: N_11  and  C_12 
REMARK    6  A    between atoms: C_24  and  C_25 
ROOT
HETATM    1  C   UNL     1       5.877  27.069  53.031  1.00  0.00     0.152 C 
HETATM    2  N   UNL     1       5.835  25.694  52.801  1.00  0.00    -0.044 N 
HETATM    3  N   UNL     1       5.225  25.418  51.598  1.00  0.00    -0.148 NA
HETATM    4  C   UNL     1       5.190  26.605  50.980  1.00  0.00     0.115 C 
HETATM    5  C   UNL     1       5.629  27.656  51.811  1.00  0.00     0.087 C 
ENDROOT
BRANCH   1   6
HETATM    6  N   UNL     1       6.109  27.714  54.236  1.00  0.00    -0.307 N 
HETATM    7  C   UNL     1       7.350  28.256  54.516  1.00  0.00     0.257 C 
HETATM    8  O   UNL     1       8.333  28.268  53.784  1.00  0.00    -0.267 OA
HETATM    9  H   UNL     1       5.486  27.522  55.012  1.00  0.00     0.170 HD
BRANCH   7  10
HETATM   10  C   UNL     1       7.493  28.767  55.891  1.00  0.00     0.032 A 
HETATM   11  C   UNL     1       8.751  28.777  56.502  1.00  0.00     0.020 A 
HETATM   12  C   UNL     1       8.896  29.345  57.770  1.00  0.00     0.038 A 
HETATM   13  C   UNL     1       7.789  29.910  58.406  1.00  0.00     0.069 A 
HETATM   14  C   UNL     1       6.526  29.851  57.809  1.00  0.00     0.038 A 
HETATM   15  C   UNL     1       6.376  29.296  56.538  1.00  0.00     0.020 A 
BRANCH  13  16
HETATM   16  O   UNL     1       7.844  30.526  59.626  1.00  0.00    -0.347 OA
BRANCH  16  17
HETATM   17  C   UNL     1       9.164  30.830  60.110  1.00  0.00     0.120 C 
HETATM   18  C   UNL     1       9.185  30.434  61.586  1.00  0.00     0.040 C 
HETATM   19  C   UNL     1       9.483  32.321  59.977  1.00  0.00     0.040 C 
ENDBRANCH  16  17
ENDBRANCH  13  16
ENDBRANCH   7  10
ENDBRANCH   1   6
BRANCH   2  20
HETATM   20  C   UNL     1       6.453  24.626  53.490  1.00  0.00     0.732 A 
HETATM   21  N   UNL     1       6.878  23.536  52.933  1.00  0.00    -0.067 NA
HETATM   22  C   UNL     1       7.427  22.594  53.777  1.00  0.00     0.065 A 
HETATM   23  C   UNL     1       7.543  22.744  55.110  1.00  0.00     0.036 A 
HETATM   24  C   UNL     1       7.916  21.338  53.092  1.00  0.00     0.060 C 
HETATM   25  C   UNL     1       8.125  21.717  56.034  1.00  0.00     0.046 C 
HETATM   26  C   UNL     1       7.034  23.997  55.715  1.00  0.00     0.268 A 
HETATM   27  C   UNL     1       8.264  20.341  55.380  1.00  0.00     0.005 C 
HETATM   28  C   UNL     1       8.819  20.464  53.966  1.00  0.00     0.006 C 
HETATM   29  O   UNL     1       7.096  24.219  56.918  1.00  0.00    -0.267 OA
HETATM   30  N   UNL     1       6.484  24.875  54.836  1.00  0.00    -0.152 N 
HETATM   31  H   UNL     1       6.097  25.743  55.188  1.00  0.00     0.188 HD
ENDBRANCH   2  20
BRANCH   4  32
HETATM   32  C   UNL     1       4.701  26.771  49.580  1.00  0.00     0.105 A 
HETATM   33  O   UNL     1       5.018  27.830  48.771  1.00  0.00    -0.320 OA
HETATM   34  C   UNL     1       4.391  27.630  47.583  1.00  0.00     0.142 A 
HETATM   35  C   UNL     1       3.671  26.459  47.609  1.00  0.00     0.027 A 
HETATM   36  C   UNL     1       3.871  25.904  48.897  1.00  0.00     0.041 A 
ENDBRANCH   4  32
TORSDOF 6
ENDMDL
MODEL 2
REMARK VINA RESULT:     -11.0      1.706      8.017
REMARK  6 active torsions:
REMARK  status: ('A' for Active; 'I' for Inactive)
REMARK    1  A    between atoms: C_2  and  O_3 
REMARK    2  A    between atoms: O_3  and  C_4 
REMARK    3  A    between atoms: C_7  and  C_8 
REMARK       I    between atoms: C_8  and  N_9 
REMARK    4  A    between atoms: N_9  and  C_10 
REMARK    5  A    between atoms: N_11  and  C_12 
REMARK    6  A    between atoms: C_24  and  C_25 
ROOT
HETATM    1  C   UNL     1       6.825  28.482  55.157  1.00  0.00     0.152 C 
HETATM    2  N   UNL     1       7.629  27.540  55.799  1.00  0.00    -0.044 N 
HETATM    3  N   UNL     1       8.191  28.072  56.938  1.00  0.00    -0.148 NA
HETATM    4  C   UNL     1       7.491  29.195  57.143  1.00  0.00     0.115 C 
HETATM    5  C   UNL     1       6.596  29.469  56.089  1.00  0.00     0.087 C 
ENDROOT
BRANCH   1   6
HETATM    6  N   UNL     1       6.361  28.442  53.852  1.00  0.00    -0.307 N 
HETATM    7  C   UNL     1       5.062  28.052  53.579  1.00  0.00     0.257 C 
HETATM    8  O   UNL     1       4.199  27.740  54.391  1.00  0.00    -0.267 OA
HETATM    9  H   UNL     1       7.039  28.398  53.101  1.00  0.00     0.170 HD
BRANCH   7  10
HETATM   10  C   UNL     1       4.761  27.905  52.144  1.00  0.00     0.032 A 
HETATM   11  C   UNL     1       5.312  26.841  51.422  1.00  0.00     0.020 A 
HETATM   12  C   UNL     1       4.952  26.656  50.086  1.00  0.00     0.038 A 
HETATM   13  C   UNL     1       4.035  27.523  49.489  1.00  0.00     0.069 A 
HETATM   14  C   UNL     1       3.528  28.613  50.202  1.00  0.00     0.038 A 
HETATM   15  C   UNL     1       3.874  28.798  51.541  1.00  0.00     0.020 A 
BRANCH  13  16
HETATM   16  O   UNL     1       3.592  27.393  48.202  1.00  0.00    -0.347 OA
BRANCH  16  17
HETATM   17  C   UNL     1       2.465  26.519  48.017  1.00  0.00     0.120 C 
HETATM   18  C   UNL     1       2.999  25.266  47.326  1.00  0.00     0.040 C 
HETATM   19  C   UNL     1       1.388  27.166  47.142  1.00  0.00     0.040 C 
ENDBRANCH  16  17
ENDBRANCH  13  16
ENDBRANCH   7  10
ENDBRANCH   1   6
BRANCH   2  20
HETATM   20  C   UNL     1       7.791  26.156  55.566  1.00  0.00     0.732 A 
HETATM   21  N   UNL     1       7.581  25.569  54.430  1.00  0.00    -0.067 NA
HETATM   22  C   UNL     1       7.764  24.203  54.406  1.00  0.00     0.065 A 
HETATM   23  C   UNL     1       8.139  23.468  55.470  1.00  0.00     0.036 A 
HETATM   24  C   UNL     1       7.514  23.554  53.064  1.00  0.00     0.060 C 
HETATM   25  C   UNL     1       8.325  21.980  55.454  1.00  0.00     0.046 C 
HETATM   26  C   UNL     1       8.357  24.170  56.757  1.00  0.00     0.268 A 
HETATM   27  C   UNL     1       7.719  21.321  54.213  1.00  0.00     0.005 C 
HETATM   28  C   UNL     1       8.043  22.121  52.958  1.00  0.00     0.006 C 
HETATM   29  O   UNL     1       8.698  23.582  57.776  1.00  0.00    -0.267 OA
HETATM   30  N   UNL     1       8.139  25.509  56.722  1.00  0.00    -0.152 N 
HETATM   31  H   UNL     1       8.248  26.046  57.575  1.00  0.00     0.188 HD
ENDBRANCH   2  20
BRANCH   4  32
HETATM   32  C   UNL     1       7.685  30.058  58.344  1.00  0.00     0.105 A 
HETATM   33  O   UNL     1       8.527  29.762  59.382  1.00  0.00    -0.320 OA
HETATM   34  C   UNL     1       8.431  30.776  60.280  1.00  0.00     0.142 A 
HETATM   35  C   UNL     1       7.540  31.726  59.841  1.00  0.00     0.027 A 
HETATM   36  C   UNL     1       7.058  31.264  58.592  1.00  0.00     0.041 A 
ENDBRANCH   4  32
TORSDOF 6
ENDMDL
MODEL 3
REMARK VINA RESULT:     -10.7      2.102      8.118
REMARK  6 active torsions:
REMARK  status: ('A' for Active; 'I' for Inactive)
REMARK    1  A    between atoms: C_2  and  O_3 
REMARK    2  A    between atoms: O_3  and  C_4 
REMARK    3  A    between atoms: C_7  and  C_8 
REMARK       I    between atoms: C_8  and  N_9 
REMARK    4  A    between atoms: N_9  and  C_10 
REMARK    5  A    between atoms: N_11  and  C_12 
REMARK    6  A    between atoms: C_24  and  C_25 
ROOT
HETATM    1  C   UNL     1       6.758  29.233  56.117  1.00  0.00     0.152 C 
HETATM    2  N   UNL     1       7.653  28.260  56.561  1.00  0.00    -0.044 N 
HETATM    3  N   UNL     1       8.352  28.705  57.661  1.00  0.00    -0.148 NA
HETATM    4  C   UNL     1       7.669  29.786  58.055  1.00  0.00     0.115 C 
HETATM    5  C   UNL     1       6.638  30.128  57.156  1.00  0.00     0.087 C 
ENDROOT
BRANCH   1   6
HETATM    6  N   UNL     1       6.127  29.295  54.884  1.00  0.00    -0.307 N 
HETATM    7  C   UNL     1       4.840  28.811  54.728  1.00  0.00     0.257 C 
HETATM    8  O   UNL     1       4.124  28.324  55.595  1.00  0.00    -0.267 OA
HETATM    9  H   UNL     1       6.699  29.405  54.056  1.00  0.00     0.170 HD
BRANCH   7  10
HETATM   10  C   UNL     1       4.362  28.799  53.334  1.00  0.00     0.032 A 
HETATM   11  C   UNL     1       3.423  29.747  52.912  1.00  0.00     0.020 A 
HETATM   12  C   UNL     1       3.043  29.788  51.569  1.00  0.00     0.038 A 
HETATM   13  C   UNL     1       3.613  28.895  50.660  1.00  0.00     0.069 A 
HETATM   14  C   UNL     1       4.512  27.919  51.099  1.00  0.00     0.038 A 
HETATM   15  C   UNL     1       4.906  27.880  52.437  1.00  0.00     0.020 A 
BRANCH  13  16
HETATM   16  O   UNL     1       3.334  28.891  49.321  1.00  0.00    -0.347 OA
BRANCH  16  17
HETATM   17  C   UNL     1       3.079  27.599  48.742  1.00  0.00     0.120 C 
HETATM   18  C   UNL     1       3.944  27.509  47.487  1.00  0.00     0.040 C 
HETATM   19  C   UNL     1       1.606  27.435  48.361  1.00  0.00     0.040 C 
ENDBRANCH  16  17
ENDBRANCH  13  16
ENDBRANCH   7  10
ENDBRANCH   1   6
BRANCH   2  20
HETATM   20  C   UNL     1       7.803  26.906  56.185  1.00  0.00     0.732 A 
HETATM   21  N   UNL     1       7.455  26.416  55.038  1.00  0.00    -0.067 NA
HETATM   22  C   UNL     1       7.653  25.063  54.866  1.00  0.00     0.065 A 
HETATM   23  C   UNL     1       8.176  24.248  55.802  1.00  0.00     0.036 A 
HETATM   24  C   UNL     1       7.239  24.527  53.515  1.00  0.00     0.060 C 
HETATM   25  C   UNL     1       8.380  22.772  55.627  1.00  0.00     0.046 C 
HETATM   26  C   UNL     1       8.551  24.839  57.107  1.00  0.00     0.268 A 
HETATM   27  C   UNL     1       7.626  22.209  54.421  1.00  0.00     0.005 C 
HETATM   28  C   UNL     1       7.771  23.124  53.212  1.00  0.00     0.006 C 
HETATM   29  O   UNL     1       9.032  24.174  58.017  1.00  0.00    -0.267 OA
HETATM   30  N   UNL     1       8.310  26.170  57.223  1.00  0.00    -0.152 N 
HETATM   31  H   UNL     1       8.523  26.633  58.099  1.00  0.00     0.188 HD
ENDBRANCH   2  20
BRANCH   4  32
HETATM   32  C   UNL     1       8.006  30.546  59.294  1.00  0.00     0.105 A 
HETATM   33  O   UNL     1       8.765  30.053  60.322  1.00  0.00    -0.320 OA
HETATM   34  C   UNL     1       8.850  31.028  61.263  1.00  0.00     0.142 A 
HETATM   35  C   UNL     1       8.157  32.146  60.864  1.00  0.00     0.027 A 
HETATM   36  C   UNL     1       7.612  31.836  59.594  1.00  0.00     0.041 A 
ENDBRANCH   4  32
TORSDOF 6
ENDMDL
MODEL 4
REMARK VINA RESULT:     -10.3      1.873      6.058
REMARK  6 active torsions:
REMARK  status: ('A' for Active; 'I' for Inactive)
REMARK    1  A    between atoms: C_2  and  O_3 
REMARK    2  A    between atoms: O_3  and  C_4 
REMARK    3  A    between atoms: C_7  and  C_8 
REMARK       I    between atoms: C_8  and  N_9 
REMARK    4  A    between atoms: N_9  and  C_10 
REMARK    5  A    between atoms: N_11  and  C_12 
REMARK    6  A    between atoms: C_24  and  C_25 
ROOT
HETATM    1  C   UNL     1       7.391  25.866  55.070  1.00  0.00     0.152 C 
HETATM    2  N   UNL     1       6.918  25.810  53.759  1.00  0.00    -0.044 N 
HETATM    3  N   UNL     1       7.205  24.591  53.188  1.00  0.00    -0.148 NA
HETATM    4  C   UNL     1       7.555  23.826  54.229  1.00  0.00     0.115 C 
HETATM    5  C   UNL     1       7.639  24.560  55.430  1.00  0.00     0.087 C 
ENDROOT
BRANCH   1   6
HETATM    6  N   UNL     1       7.583  26.997  55.848  1.00  0.00    -0.307 N 
HETATM    7  C   UNL     1       6.597  27.427  56.719  1.00  0.00     0.257 C 
HETATM    8  O   UNL     1       5.514  26.894  56.930  1.00  0.00    -0.267 OA
HETATM    9  H   UNL     1       8.290  27.663  55.563  1.00  0.00     0.170 HD
BRANCH   7  10
HETATM   10  C   UNL     1       6.877  28.725  57.358  1.00  0.00     0.032 A 
HETATM   11  C   UNL     1       5.888  29.714  57.388  1.00  0.00     0.020 A 
HETATM   12  C   UNL     1       6.128  30.907  58.073  1.00  0.00     0.038 A 
HETATM   13  C   UNL     1       7.344  31.094  58.734  1.00  0.00     0.069 A 
HETATM   14  C   UNL     1       8.345  30.121  58.658  1.00  0.00     0.038 A 
HETATM   15  C   UNL     1       8.108  28.922  57.985  1.00  0.00     0.020 A 
BRANCH  13  16
HETATM   16  O   UNL     1       7.649  32.208  59.466  1.00  0.00    -0.347 OA
BRANCH  16  17
HETATM   17  C   UNL     1       7.688  32.026  60.892  1.00  0.00     0.120 C 
HETATM   18  C   UNL     1       6.811  33.123  61.492  1.00  0.00     0.040 C 
HETATM   19  C   UNL     1       9.113  32.155  61.436  1.00  0.00     0.040 C 
ENDBRANCH  16  17
ENDBRANCH  13  16
ENDBRANCH   7  10
ENDBRANCH   1   6
BRANCH   2  20
HETATM   20  C   UNL     1       6.080  26.696  53.045  1.00  0.00     0.732 A 
HETATM   21  N   UNL     1       5.545  27.766  53.539  1.00  0.00    -0.067 NA
HETATM   22  C   UNL     1       4.731  28.489  52.693  1.00  0.00     0.065 A 
HETATM   23  C   UNL     1       4.473  28.150  51.416  1.00  0.00     0.036 A 
HETATM   24  C   UNL     1       4.128  29.734  53.303  1.00  0.00     0.060 C 
HETATM   25  C   UNL     1       3.576  28.924  50.495  1.00  0.00     0.046 C 
HETATM   26  C   UNL     1       5.090  26.912  50.887  1.00  0.00     0.268 A 
HETATM   27  C   UNL     1       2.707  29.944  51.233  1.00  0.00     0.005 C 
HETATM   28  C   UNL     1       3.519  30.696  52.280  1.00  0.00     0.006 C 
HETATM   29  O   UNL     1       4.910  26.526  49.738  1.00  0.00    -0.267 OA
HETATM   30  N   UNL     1       5.861  26.233  51.774  1.00  0.00    -0.152 N 
HETATM   31  H   UNL     1       6.296  25.365  51.483  1.00  0.00     0.188 HD
ENDBRANCH   2  20
BRANCH   4  32
HETATM   32  C   UNL     1       7.851  22.370  54.097  1.00  0.00     0.105 A 
HETATM   33  O   UNL     1       8.071  21.527  55.153  1.00  0.00    -0.320 OA
HETATM   34  C   UNL     1       8.307  20.292  54.640  1.00  0.00     0.142 A 
HETATM   35  C   UNL     1       8.244  20.320  53.267  1.00  0.00     0.027 A 
HETATM   36  C   UNL     1       7.950  21.661  52.916  1.00  0.00     0.041 A 
ENDBRANCH   4  32
TORSDOF 6
ENDMDL
MODEL 5
REMARK VINA RESULT:     -10.1      1.995      8.610
REMARK  6 active torsions:
REMARK  status: ('A' for Active; 'I' for Inactive)
REMARK    1  A    between atoms: C_2  and  O_3 
REMARK    2  A    between atoms: O_3  and  C_4 
REMARK    3  A    between atoms: C_7  and  C_8 
REMARK       I    between atoms: C_8  and  N_9 
REMARK    4  A    between atoms: N_9  and  C_10 
REMARK    5  A    between atoms: N_11  and  C_12 
REMARK    6  A    between atoms: C_24  and  C_25 
ROOT
HETATM    1  C   UNL     1       6.903  25.200  53.510  1.00  0.00     0.152 C 
HETATM    2  N   UNL     1       6.687  25.403  54.872  1.00  0.00    -0.044 N 
HETATM    3  N   UNL     1       6.897  24.240  55.579  1.00  0.00    -0.148 NA
HETATM    4  C   UNL     1       7.530  23.448  54.706  1.00  0.00     0.115 C 
HETATM    5  C   UNL     1       7.603  24.017  53.418  1.00  0.00     0.087 C 
ENDROOT
BRANCH   1   6
HETATM    6  N   UNL     1       6.494  26.011  52.462  1.00  0.00    -0.307 N 
HETATM    7  C   UNL     1       5.345  25.715  51.751  1.00  0.00     0.257 C 
HETATM    8  O   UNL     1       4.573  24.784  51.950  1.00  0.00    -0.267 OA
HETATM    9  H   UNL     1       7.178  26.621  52.031  1.00  0.00     0.170 HD
BRANCH   7  10
HETATM   10  C   UNL     1       5.124  26.571  50.572  1.00  0.00     0.032 A 
HETATM   11  C   UNL     1       5.493  27.920  50.613  1.00  0.00     0.020 A 
HETATM   12  C   UNL     1       5.366  28.703  49.464  1.00  0.00     0.038 A 
HETATM   13  C   UNL     1       4.887  28.129  48.284  1.00  0.00     0.069 A 
HETATM   14  C   UNL     1       4.474  26.794  48.266  1.00  0.00     0.038 A 
HETATM   15  C   UNL     1       4.610  26.002  49.407  1.00  0.00     0.020 A 
BRANCH  13  16
HETATM   16  O   UNL     1       4.770  28.807  47.101  1.00  0.00    -0.347 OA
BRANCH  16  17
HETATM   17  C   UNL     1       4.107  30.081  47.177  1.00  0.00     0.120 C 
HETATM   18  C   UNL     1       2.634  29.820  46.869  1.00  0.00     0.040 C 
HETATM   19  C   UNL     1       4.675  31.071  46.157  1.00  0.00     0.040 C 
ENDBRANCH  16  17
ENDBRANCH  13  16
ENDBRANCH   7  10
ENDBRANCH   1   6
BRANCH   2  20
HETATM   20  C   UNL     1       6.478  26.594  55.604  1.00  0.00     0.732 A 
HETATM   21  N   UNL     1       5.408  27.321  55.541  1.00  0.00    -0.067 NA
HETATM   22  C   UNL     1       5.401  28.466  56.309  1.00  0.00     0.065 A 
HETATM   23  C   UNL     1       6.419  28.856  57.098  1.00  0.00     0.036 A 
HETATM   24  C   UNL     1       4.135  29.286  56.213  1.00  0.00     0.060 C 
HETATM   25  C   UNL     1       6.424  30.108  57.923  1.00  0.00     0.046 C 
HETATM   26  C   UNL     1       7.634  28.008  57.136  1.00  0.00     0.268 A 
HETATM   27  C   UNL     1       5.313  31.083  57.528  1.00  0.00     0.005 C 
HETATM   28  C   UNL     1       3.997  30.348  57.307  1.00  0.00     0.006 C 
HETATM   29  O   UNL     1       8.609  28.286  57.824  1.00  0.00    -0.267 OA
HETATM   30  N   UNL     1       7.588  26.908  56.341  1.00  0.00    -0.152 N 
HETATM   31  H   UNL     1       8.396  26.297  56.303  1.00  0.00     0.188 HD
ENDBRANCH   2  20
BRANCH   4  32
HETATM   32  C   UNL     1       8.058  22.102  55.074  1.00  0.00     0.105 A 
HETATM   33  O   UNL     1       8.532  21.770  56.315  1.00  0.00    -0.320 OA
HETATM   34  C   UNL     1       8.921  20.469  56.262  1.00  0.00     0.142 A 
HETATM   35  C   UNL     1       8.707  19.953  55.007  1.00  0.00     0.027 A 
HETATM   36  C   UNL     1       8.150  21.005  54.239  1.00  0.00     0.041 A 
ENDBRANCH   4  32
TORSDOF 6
ENDMDL
MODEL 6
REMARK VINA RESULT:     -10.0      2.066      8.065
REMARK  6 active torsions:
REMARK  status: ('A' for Active; 'I' for Inactive)
REMARK    1  A    between atoms: C_2  and  O_3 
REMARK    2  A    between atoms: O_3  and  C_4 
REMARK    3  A    between atoms: C_7  and  C_8 
REMARK       I    between atoms: C_8  and  N_9 
REMARK    4  A    between atoms: N_9  and  C_10 
REMARK    5  A    between atoms: N_11  and  C_12 
REMARK    6  A    between atoms: C_24  and  C_25 
ROOT
HETATM    1  C   UNL     1       6.465  28.694  54.834  1.00  0.00     0.152 C 
HETATM    2  N   UNL     1       7.333  27.703  55.292  1.00  0.00    -0.044 N 
HETATM    3  N   UNL     1       7.995  28.120  56.425  1.00  0.00    -0.148 NA
HETATM    4  C   UNL     1       7.309  29.200  56.815  1.00  0.00     0.115 C 
HETATM    5  C   UNL     1       6.316  29.570  55.885  1.00  0.00     0.087 C 
ENDROOT
BRANCH   1   6
HETATM    6  N   UNL     1       5.880  28.787  53.581  1.00  0.00    -0.307 N 
HETATM    7  C   UNL     1       4.583  28.352  53.376  1.00  0.00     0.257 C 
HETATM    8  O   UNL     1       3.819  27.888  54.214  1.00  0.00    -0.267 OA
HETATM    9  H   UNL     1       6.485  28.879  52.774  1.00  0.00     0.170 HD
BRANCH   7  10
HETATM   10  C   UNL     1       4.154  28.366  51.966  1.00  0.00     0.032 A 
HETATM   11  C   UNL     1       4.870  27.632  51.014  1.00  0.00     0.020 A 
HETATM   12  C   UNL     1       4.406  27.576  49.698  1.00  0.00     0.038 A 
HETATM   13  C   UNL     1       3.228  28.239  49.350  1.00  0.00     0.069 A 
HETATM   14  C   UNL     1       2.547  29.011  50.295  1.00  0.00     0.038 A 
HETATM   15  C   UNL     1       2.997  29.062  51.615  1.00  0.00     0.020 A 
BRANCH  13  16
HETATM   16  O   UNL     1       2.676  28.204  48.098  1.00  0.00    -0.347 OA
BRANCH  16  17
HETATM   17  C   UNL     1       2.272  29.476  47.561  1.00  0.00     0.120 C 
HETATM   18  C   UNL     1       1.110  29.193  46.610  1.00  0.00     0.040 C 
HETATM   19  C   UNL     1       3.411  30.148  46.791  1.00  0.00     0.040 C 
ENDBRANCH  16  17
ENDBRANCH  13  16
ENDBRANCH   7  10
ENDBRANCH   1   6
BRANCH   2  20
HETATM   20  C   UNL     1       7.484  26.355  54.895  1.00  0.00     0.732 A 
HETATM   21  N   UNL     1       7.600  25.355  55.709  1.00  0.00    -0.067 NA
HETATM   22  C   UNL     1       7.768  24.114  55.132  1.00  0.00     0.065 A 
HETATM   23  C   UNL     1       7.816  23.895  53.804  1.00  0.00     0.036 A 
HETATM   24  C   UNL     1       7.896  22.970  56.113  1.00  0.00     0.060 C 
HETATM   25  C   UNL     1       8.015  22.550  53.171  1.00  0.00     0.046 C 
HETATM   26  C   UNL     1       7.694  25.064  52.903  1.00  0.00     0.268 A 
HETATM   27  C   UNL     1       8.502  21.494  54.163  1.00  0.00     0.005 C 
HETATM   28  C   UNL     1       7.738  21.586  55.477  1.00  0.00     0.006 C 
HETATM   29  O   UNL     1       7.727  24.959  51.682  1.00  0.00    -0.267 OA
HETATM   30  N   UNL     1       7.553  26.259  53.531  1.00  0.00    -0.152 N 
HETATM   31  H   UNL     1       7.487  27.102  52.972  1.00  0.00     0.188 HD
ENDBRANCH   2  20
BRANCH   4  32
HETATM   32  C   UNL     1       7.607  29.932  58.081  1.00  0.00     0.105 A 
HETATM   33  O   UNL     1       8.548  29.543  58.996  1.00  0.00    -0.320 OA
HETATM   34  C   UNL     1       8.528  30.452  60.005  1.00  0.00     0.142 A 
HETATM   35  C   UNL     1       7.588  31.424  59.760  1.00  0.00     0.027 A 
HETATM   36  C   UNL     1       6.993  31.090  58.518  1.00  0.00     0.041 A 
ENDBRANCH   4  32
TORSDOF 6
ENDMDL
MODEL 7
REMARK VINA RESULT:     -10.0      1.494      2.210
REMARK  6 active torsions:
REMARK  status: ('A' for Active; 'I' for Inactive)
REMARK    1  A    between atoms: C_2  and  O_3 
REMARK    2  A    between atoms: O_3  and  C_4 
REMARK    3  A    between atoms: C_7  and  C_8 
REMARK       I    between atoms: C_8  and  N_9 
REMARK    4  A    between atoms: N_9  and  C_10 
REMARK    5  A    between atoms: N_11  and  C_12 
REMARK    6  A    between atoms: C_24  and  C_25 
ROOT
HETATM    1  C   UNL     1       6.494  26.522  53.414  1.00  0.00     0.152 C 
HETATM    2  N   UNL     1       6.246  25.171  53.176  1.00  0.00    -0.044 N 
HETATM    3  N   UNL     1       5.418  25.010  52.088  1.00  0.00    -0.148 NA
HETATM    4  C   UNL     1       5.430  26.212  51.499  1.00  0.00     0.115 C 
HETATM    5  C   UNL     1       6.126  27.175  52.259  1.00  0.00     0.087 C 
ENDROOT
BRANCH   1   6
HETATM    6  N   UNL     1       6.998  27.095  54.571  1.00  0.00    -0.307 N 
HETATM    7  C   UNL     1       6.264  28.040  55.265  1.00  0.00     0.257 C 
HETATM    8  O   UNL     1       5.143  28.451  54.992  1.00  0.00    -0.267 OA
HETATM    9  H   UNL     1       7.997  27.054  54.733  1.00  0.00     0.170 HD
BRANCH   7  10
HETATM   10  C   UNL     1       6.990  28.672  56.381  1.00  0.00     0.032 A 
HETATM   11  C   UNL     1       6.307  29.505  57.274  1.00  0.00     0.020 A 
HETATM   12  C   UNL     1       6.980  30.027  58.380  1.00  0.00     0.038 A 
HETATM   13  C   UNL     1       8.321  29.702  58.592  1.00  0.00     0.069 A 
HETATM   14  C   UNL     1       9.009  28.911  57.668  1.00  0.00     0.038 A 
HETATM   15  C   UNL     1       8.341  28.375  56.567  1.00  0.00     0.020 A 
BRANCH  13  16
HETATM   16  O   UNL     1       9.047  30.131  59.669  1.00  0.00    -0.347 OA
BRANCH  16  17
HETATM   17  C   UNL     1       8.551  31.311  60.324  1.00  0.00     0.120 C 
HETATM   18  C   UNL     1       9.652  32.364  60.211  1.00  0.00     0.040 C 
HETATM   19  C   UNL     1       8.244  31.048  61.800  1.00  0.00     0.040 C 
ENDBRANCH  16  17
ENDBRANCH  13  16
ENDBRANCH   7  10
ENDBRANCH   1   6
BRANCH   2  20
HETATM   20  C   UNL     1       6.830  24.014  53.740  1.00  0.00     0.732 A 
HETATM   21  N   UNL     1       7.106  23.864  54.996  1.00  0.00    -0.067 NA
HETATM   22  C   UNL     1       7.703  22.674  55.353  1.00  0.00     0.065 A 
HETATM   23  C   UNL     1       8.005  21.687  54.488  1.00  0.00     0.036 A 
HETATM   24  C   UNL     1       8.006  22.533  56.827  1.00  0.00     0.060 C 
HETATM   25  C   UNL     1       8.669  20.397  54.867  1.00  0.00     0.046 C 
HETATM   26  C   UNL     1       7.689  21.898  53.056  1.00  0.00     0.268 A 
HETATM   27  C   UNL     1       9.286  20.437  56.266  1.00  0.00     0.005 C 
HETATM   28  C   UNL     1       8.343  21.103  57.259  1.00  0.00     0.006 C 
HETATM   29  O   UNL     1       7.929  21.057  52.198  1.00  0.00    -0.267 OA
HETATM   30  N   UNL     1       7.124  23.098  52.765  1.00  0.00    -0.152 N 
HETATM   31  H   UNL     1       6.903  23.315  51.800  1.00  0.00     0.188 HD
ENDBRANCH   2  20
BRANCH   4  32
HETATM   32  C   UNL     1       4.745  26.482  50.202  1.00  0.00     0.105 A 
HETATM   33  O   UNL     1       4.424  25.520  49.282  1.00  0.00    -0.320 OA
HETATM   34  C   UNL     1       3.816  26.145  48.241  1.00  0.00     0.142 A 
HETATM   35  C   UNL     1       3.739  27.498  48.470  1.00  0.00     0.027 A 
HETATM   36  C   UNL     1       4.337  27.717  49.735  1.00  0.00     0.041 A 
ENDBRANCH   4  32
TORSDOF 6
ENDMDL
MODEL 8
REMARK VINA RESULT:      -9.9      3.185      8.164
REMARK  6 active torsions:
REMARK  status: ('A' for Active; 'I' for Inactive)
REMARK    1  A    between atoms: C_2  and  O_3 
REMARK    2  A    between atoms: O_3  and  C_4 
REMARK    3  A    between atoms: C_7  and  C_8 
REMARK       I    between atoms: C_8  and  N_9 
REMARK    4  A    between atoms: N_9  and  C_10 
REMARK    5  A    between atoms: N_11  and  C_12 
REMARK    6  A    between atoms: C_24  and  C_25 
ROOT
HETATM    1  C   UNL     1       4.923  29.026  54.565  1.00  0.00     0.152 C 
HETATM    2  N   UNL     1       3.956  29.452  53.655  1.00  0.00    -0.044 N 
HETATM    3  N   UNL     1       3.317  30.582  54.114  1.00  0.00    -0.148 NA
HETATM    4  C   UNL     1       4.097  31.003  55.116  1.00  0.00     0.115 C 
HETATM    5  C   UNL     1       5.137  30.096  55.405  1.00  0.00     0.087 C 
ENDROOT
BRANCH   1   6
HETATM    6  N   UNL     1       5.536  27.784  54.622  1.00  0.00    -0.307 N 
HETATM    7  C   UNL     1       6.784  27.590  54.059  1.00  0.00     0.257 C 
HETATM    8  O   UNL     1       7.481  28.429  53.501  1.00  0.00    -0.267 OA
HETATM    9  H   UNL     1       4.958  26.970  54.793  1.00  0.00     0.170 HD
BRANCH   7  10
HETATM   10  C   UNL     1       7.237  26.187  54.057  1.00  0.00     0.032 A 
HETATM   11  C   UNL     1       7.527  25.551  52.845  1.00  0.00     0.020 A 
HETATM   12  C   UNL     1       8.041  24.253  52.856  1.00  0.00     0.038 A 
HETATM   13  C   UNL     1       8.275  23.610  54.073  1.00  0.00     0.069 A 
HETATM   14  C   UNL     1       7.936  24.234  55.277  1.00  0.00     0.038 A 
HETATM   15  C   UNL     1       7.432  25.535  55.275  1.00  0.00     0.020 A 
BRANCH  13  16
HETATM   16  O   UNL     1       8.816  22.358  54.181  1.00  0.00    -0.347 OA
BRANCH  16  17
HETATM   17  C   UNL     1       7.885  21.267  54.083  1.00  0.00     0.120 C 
HETATM   18  C   UNL     1       8.099  20.403  55.324  1.00  0.00     0.040 C 
HETATM   19  C   UNL     1       8.133  20.428  52.827  1.00  0.00     0.040 C 
ENDBRANCH  16  17
ENDBRANCH  13  16
ENDBRANCH   7  10
ENDBRANCH   1   6
BRANCH   2  20
HETATM   20  C   UNL     1       3.684  29.028  52.334  1.00  0.00     0.732 A 
HETATM   21  N   UNL     1       4.422  28.209  51.656  1.00  0.00    -0.067 NA
HETATM   22  C   UNL     1       4.008  27.936  50.369  1.00  0.00     0.065 A 
HETATM   23  C   UNL     1       2.908  28.463  49.798  1.00  0.00     0.036 A 
HETATM   24  C   UNL     1       4.891  26.973  49.610  1.00  0.00     0.060 C 
HETATM   25  C   UNL     1       2.462  28.183  48.394  1.00  0.00     0.046 C 
HETATM   26  C   UNL     1       2.095  29.407  50.598  1.00  0.00     0.268 A 
HETATM   27  C   UNL     1       3.548  27.517  47.548  1.00  0.00     0.005 C 
HETATM   28  C   UNL     1       4.253  26.418  48.333  1.00  0.00     0.006 C 
HETATM   29  O   UNL     1       1.079  29.935  50.161  1.00  0.00    -0.267 OA
HETATM   30  N   UNL     1       2.566  29.652  51.848  1.00  0.00    -0.152 N 
HETATM   31  H   UNL     1       2.068  30.307  52.440  1.00  0.00     0.188 HD
ENDBRANCH   2  20
BRANCH   4  32
HETATM   32  C   UNL     1       3.848  32.277  55.852  1.00  0.00     0.105 A 
HETATM   33  O   UNL     1       2.605  32.763  56.159  1.00  0.00    -0.320 OA
HETATM   34  C   UNL     1       2.784  33.933  56.825  1.00  0.00     0.142 A 
HETATM   35  C   UNL     1       4.123  34.215  56.954  1.00  0.00     0.027 A 
HETATM   36  C   UNL     1       4.810  33.147  56.328  1.00  0.00     0.041 A 
ENDBRANCH   4  32
TORSDOF 6
ENDMDL
MODEL 9
REMARK VINA RESULT:      -9.8      3.350      8.294
REMARK  6 active torsions:
REMARK  status: ('A' for Active; 'I' for Inactive)
REMARK    1  A    between atoms: C_2  and  O_3 
REMARK    2  A    between atoms: O_3  and  C_4 
REMARK    3  A    between atoms: C_7  and  C_8 
REMARK       I    between atoms: C_8  and  N_9 
REMARK    4  A    between atoms: N_9  and  C_10 
REMARK    5  A    between atoms: N_11  and  C_12 
REMARK    6  A    between atoms: C_24  and  C_25 
ROOT
HETATM    1  C   UNL     1       5.084  29.366  55.641  1.00  0.00     0.152 C 
HETATM    2  N   UNL     1       5.515  30.500  56.331  1.00  0.00    -0.044 N 
HETATM    3  N   UNL     1       4.828  31.617  55.911  1.00  0.00    -0.148 NA
HETATM    4  C   UNL     1       3.797  31.115  55.221  1.00  0.00     0.115 C 
HETATM    5  C   UNL     1       3.883  29.716  55.067  1.00  0.00     0.087 C 
ENDROOT
BRANCH   1   6
HETATM    6  N   UNL     1       5.731  28.144  55.545  1.00  0.00    -0.307 N 
HETATM    7  C   UNL     1       6.461  27.822  54.415  1.00  0.00     0.257 C 
HETATM    8  O   UNL     1       6.648  28.528  53.431  1.00  0.00    -0.267 OA
HETATM    9  H   UNL     1       5.424  27.389  56.145  1.00  0.00     0.170 HD
BRANCH   7  10
HETATM   10  C   UNL     1       6.957  26.435  54.388  1.00  0.00     0.032 A 
HETATM   11  C   UNL     1       7.282  25.835  53.167  1.00  0.00     0.020 A 
HETATM   12  C   UNL     1       7.837  24.553  53.156  1.00  0.00     0.038 A 
HETATM   13  C   UNL     1       8.076  23.891  54.362  1.00  0.00     0.069 A 
HETATM   14  C   UNL     1       7.702  24.478  55.574  1.00  0.00     0.038 A 
HETATM   15  C   UNL     1       7.158  25.762  55.594  1.00  0.00     0.020 A 
BRANCH  13  16
HETATM   16  O   UNL     1       8.654  22.655  54.450  1.00  0.00    -0.347 OA
BRANCH  16  17
HETATM   17  C   UNL     1       7.762  21.537  54.295  1.00  0.00     0.120 C 
HETATM   18  C   UNL     1       7.927  20.676  55.545  1.00  0.00     0.040 C 
HETATM   19  C   UNL     1       8.108  20.710  53.055  1.00  0.00     0.040 C 
ENDBRANCH  16  17
ENDBRANCH  13  16
ENDBRANCH   7  10
ENDBRANCH   1   6
BRANCH   2  20
HETATM   20  C   UNL     1       6.366  30.629  57.452  1.00  0.00     0.732 A 
HETATM   21  N   UNL     1       6.126  31.383  58.477  1.00  0.00    -0.067 NA
HETATM   22  C   UNL     1       7.091  31.400  59.461  1.00  0.00     0.065 A 
HETATM   23  C   UNL     1       8.236  30.692  59.414  1.00  0.00     0.036 A 
HETATM   24  C   UNL     1       6.776  32.287  60.644  1.00  0.00     0.060 C 
HETATM   25  C   UNL     1       9.296  30.718  60.474  1.00  0.00     0.046 C 
HETATM   26  C   UNL     1       8.484  29.850  58.220  1.00  0.00     0.268 A 
HETATM   27  C   UNL     1       9.127  31.880  61.454  1.00  0.00     0.005 C 
HETATM   28  C   UNL     1       7.668  32.039  61.863  1.00  0.00     0.006 C 
HETATM   29  O   UNL     1       9.497  29.174  58.091  1.00  0.00    -0.267 OA
HETATM   30  N   UNL     1       7.508  29.894  57.277  1.00  0.00    -0.152 N 
HETATM   31  H   UNL     1       7.626  29.359  56.425  1.00  0.00     0.188 HD
ENDBRANCH   2  20
BRANCH   4  32
HETATM   32  C   UNL     1       2.709  31.969  54.660  1.00  0.00     0.105 A 
HETATM   33  O   UNL     1       1.641  32.434  55.380  1.00  0.00    -0.320 OA
HETATM   34  C   UNL     1       0.874  33.168  54.534  1.00  0.00     0.142 A 
HETATM   35  C   UNL     1       1.427  33.187  53.276  1.00  0.00     0.027 A 
HETATM   36  C   UNL     1       2.611  32.414  53.356  1.00  0.00     0.041 A 
ENDBRANCH   4  32
TORSDOF 6
ENDMDL
MODEL 10
REMARK VINA RESULT:      -9.8      1.836      5.710
REMARK  6 active torsions:
REMARK  status: ('A' for Active; 'I' for Inactive)
REMARK    1  A    between atoms: C_2  and  O_3 
REMARK    2  A    between atoms: O_3  and  C_4 
REMARK    3  A    between atoms: C_7  and  C_8 
REMARK       I    between atoms: C_8  and  N_9 
REMARK    4  A    between atoms: N_9  and  C_10 
REMARK    5  A    between atoms: N_11  and  C_12 
REMARK    6  A    between atoms: C_24  and  C_25 
ROOT
HETATM    1  C   UNL     1       7.017  25.814  55.239  1.00  0.00     0.152 C 
HETATM    2  N   UNL     1       6.563  25.784  53.921  1.00  0.00    -0.044 N 
HETATM    3  N   UNL     1       6.934  24.611  53.303  1.00  0.00    -0.148 NA
HETATM    4  C   UNL     1       7.320  23.827  54.317  1.00  0.00     0.115 C 
HETATM    5  C   UNL     1       7.343  24.513  55.548  1.00  0.00     0.087 C 
ENDROOT
BRANCH   1   6
HETATM    6  N   UNL     1       7.126  26.922  56.066  1.00  0.00    -0.307 N 
HETATM    7  C   UNL     1       7.871  28.020  55.675  1.00  0.00     0.257 C 
HETATM    8  O   UNL     1       8.467  28.169  54.615  1.00  0.00    -0.267 OA
HETATM    9  H   UNL     1       6.928  26.807  57.052  1.00  0.00     0.170 HD
BRANCH   7  10
HETATM   10  C   UNL     1       8.026  29.049  56.719  1.00  0.00     0.032 A 
HETATM   11  C   UNL     1       9.305  29.398  57.167  1.00  0.00     0.020 A 
HETATM   12  C   UNL     1       9.451  30.437  58.089  1.00  0.00     0.038 A 
HETATM   13  C   UNL     1       8.323  31.125  58.542  1.00  0.00     0.069 A 
HETATM   14  C   UNL     1       7.047  30.737  58.126  1.00  0.00     0.038 A 
HETATM   15  C   UNL     1       6.893  29.709  57.196  1.00  0.00     0.020 A 
BRANCH  13  16
HETATM   16  O   UNL     1       8.374  32.182  59.409  1.00  0.00    -0.347 OA
BRANCH  16  17
HETATM   17  C   UNL     1       8.259  31.849  60.803  1.00  0.00     0.120 C 
HETATM   18  C   UNL     1       7.338  32.897  61.424  1.00  0.00     0.040 C 
HETATM   19  C   UNL     1       9.620  31.885  61.503  1.00  0.00     0.040 C 
ENDBRANCH  16  17
ENDBRANCH  13  16
ENDBRANCH   7  10
ENDBRANCH   1   6
BRANCH   2  20
HETATM   20  C   UNL     1       5.678  26.644  53.231  1.00  0.00     0.732 A 
HETATM   21  N   UNL     1       5.545  26.687  51.943  1.00  0.00    -0.067 NA
HETATM   22  C   UNL     1       4.651  27.615  51.453  1.00  0.00     0.065 A 
HETATM   23  C   UNL     1       3.930  28.454  52.221  1.00  0.00     0.036 A 
HETATM   24  C   UNL     1       4.518  27.633  49.947  1.00  0.00     0.060 C 
HETATM   25  C   UNL     1       2.968  29.476  51.692  1.00  0.00     0.046 C 
HETATM   26  C   UNL     1       4.118  28.387  53.688  1.00  0.00     0.268 A 
HETATM   27  C   UNL     1       3.129  29.721  50.191  1.00  0.00     0.005 C 
HETATM   28  C   UNL     1       3.298  28.407  49.440  1.00  0.00     0.006 C 
HETATM   29  O   UNL     1       3.506  29.113  54.464  1.00  0.00    -0.267 OA
HETATM   30  N   UNL     1       5.027  27.471  54.108  1.00  0.00    -0.152 N 
HETATM   31  H   UNL     1       5.220  27.389  55.100  1.00  0.00     0.188 HD
ENDBRANCH   2  20
BRANCH   4  32
HETATM   32  C   UNL     1       7.712  22.400  54.129  1.00  0.00     0.105 A 
HETATM   33  O   UNL     1       7.945  21.521  55.152  1.00  0.00    -0.320 OA
HETATM   34  C   UNL     1       8.275  20.328  54.591  1.00  0.00     0.142 A 
HETATM   35  C   UNL     1       8.261  20.420  53.220  1.00  0.00     0.027 A 
HETATM   36  C   UNL     1       7.897  21.756  52.920  1.00  0.00     0.041 A 
ENDBRANCH   4  32
TORSDOF 6
ENDMDL
