MODEL 1
REMARK VINA RESULT:     -10.6      0.000      0.000
REMARK  8 active torsions:
REMARK  status: ('A' for Active; 'I' for Inactive)
REMARK    1  A    between atoms: C_3  and  N_4 
REMARK       I    between atoms: N_4  and  C_5 
REMARK    2  A    between atoms: C_5  and  C_6 
REMARK    3  A    between atoms: C_7  and  C_8 
REMARK    4  A    between atoms: C_11  and  C_12 
REMARK    5  A    between atoms: C_21  and  C_22 
REMARK    6  A    between atoms: C_22  and  C_23 
REMARK    7  A    between atoms: C_23  and  C_24 
REMARK    8  A    between atoms: C_24  and  O_25 
ROOT
HETATM    1  C   UNL     1       6.529  27.280  55.196  1.00  0.00     0.062 C 
HETATM    2  C   UNL     1       6.992  26.668  53.883  1.00  0.00     0.202 C 
HETATM    3  N   UNL     1       5.987  26.871  52.835  1.00  0.00    -0.083 N 
HETATM    4  C   UNL     1       4.694  27.244  53.081  1.00  0.00     0.726 A 
HETATM    5  N   UNL     1       4.325  27.543  54.344  1.00  0.00    -0.192 N 
HETATM    6  N   UNL     1       6.207  26.681  51.519  1.00  0.00    -0.140 NA
HETATM    7  C   UNL     1       4.978  26.895  51.030  1.00  0.00     0.166 A 
HETATM    8  N   UNL     1       4.024  27.251  51.958  1.00  0.00    -0.046 NA
HETATM    9  C   UNL     1       5.247  27.682  55.380  1.00  0.00     0.037 C 
HETATM   10  C   UNL     1       4.726  28.313  56.647  1.00  0.00     0.070 C 
HETATM   11  H   UNL     1       3.401  27.944  54.490  1.00  0.00     0.184 HD
ENDROOT
BRANCH   1  12
HETATM   12  C   UNL     1       7.581  27.640  56.178  1.00  0.00     0.256 C 
HETATM   13  N   UNL     1       8.068  28.920  56.029  1.00  0.00    -0.323 N 
HETATM   14  H   UNL     1       7.654  29.489  55.302  1.00  0.00     0.169 HD
HETATM   15  O   UNL     1       7.909  26.805  57.012  1.00  0.00    -0.267 OA
BRANCH  13  16
HETATM   16  C   UNL     1       9.083  29.547  56.796  1.00  0.00     0.041 A 
HETATM   17  C   UNL     1       8.712  30.354  57.895  1.00  0.00    -0.035 A 
HETATM   18  C   UNL     1       7.281  30.545  58.320  1.00  0.00     0.050 C 
HETATM   19  C   UNL     1       9.714  30.972  58.669  1.00  0.00     0.009 A 
HETATM   20  C   UNL     1      11.061  30.813  58.356  1.00  0.00     0.001 A 
HETATM   21  C   UNL     1      11.426  30.030  57.269  1.00  0.00     0.002 A 
HETATM   22  C   UNL     1      10.443  29.401  56.498  1.00  0.00     0.030 A 
ENDBRANCH  13  16
ENDBRANCH   1  12
BRANCH   2  23
HETATM   23  C   UNL     1       7.285  25.173  54.007  1.00  0.00    -0.028 A 
HETATM   24  C   UNL     1       6.868  24.436  55.129  1.00  0.00     0.010 A 
HETATM   25  C   UNL     1       7.133  23.068  55.226  1.00  0.00     0.008 A 
HETATM   26  C   UNL     1       7.814  22.397  54.203  1.00  0.00    -0.055 A 
HETATM   27  C   UNL     1       8.229  23.131  53.083  1.00  0.00     0.008 A 
HETATM   28  C   UNL     1       7.968  24.502  52.985  1.00  0.00     0.010 A 
BRANCH  26  29
HETATM   29  C   UNL     1       8.078  20.908  54.330  1.00  0.00     0.010 C 
HETATM   30  C   UNL     1       8.637  20.311  53.036  1.00  0.00     0.015 C 
HETATM   31  C   UNL     1       9.000  20.609  55.514  1.00  0.00     0.015 C 
ENDBRANCH  26  29
ENDBRANCH   2  23
BRANCH   7  32
HETATM   32  C   UNL     1       4.647  26.712  49.595  1.00  0.00     0.085 C 
BRANCH  32  33
HETATM   33  C   UNL     1       4.908  27.964  48.758  1.00  0.00     0.034 C 
BRANCH  33  34
HETATM   34  C   UNL     1       4.960  27.678  47.260  1.00  0.00     0.164 C 
BRANCH  34  35
HETATM   35  O   UNL     1       6.172  27.003  46.941  1.00  0.00    -0.401 OA
HETATM   36  H   UNL     1       6.799  27.167  47.666  1.00  0.00     0.209 HD
ENDBRANCH  34  35
ENDBRANCH  33  34
ENDBRANCH  32  33
ENDBRANCH   7  32
TORSDOF 8
ENDMDL
MODEL 2
REMARK VINA RESULT:      -9.8      2.603      7.014
REMARK  8 active torsions:
REMARK  status: ('A' for Active; 'I' for Inactive)
REMARK    1  A    between atoms: C_3  and  N_4 
REMARK       I    between atoms: N_4  and  C_5 
REMARK    2  A    between atoms: C_5  and  C_6 
REMARK    3  A    between atoms: C_7  and  C_8 
REMARK    4  A    between atoms: C_11  and  C_12 
REMARK    5  A    between atoms: C_21  and  C_22 
REMARK    6  A    between atoms: C_22  and  C_23 
REMARK    7  A    between atoms: C_23  and  C_24 
REMARK    8  A    between atoms: C_24  and  O_25 
ROOT
HETATM    1  C   UNL     1       5.394  27.096  53.501  1.00  0.00     0.062 C 
HETATM    2  C   UNL     1       5.064  27.879  54.762  1.00  0.00     0.202 C 
HETATM    3  N   UNL     1       4.311  29.093  54.436  1.00  0.00    -0.083 N 
HETATM    4  C   UNL     1       4.219  29.617  53.175  1.00  0.00     0.726 A 
HETATM    5  N   UNL     1       4.763  28.942  52.141  1.00  0.00    -0.192 N 
HETATM    6  N   UNL     1       3.653  29.850  55.337  1.00  0.00    -0.140 NA
HETATM    7  C   UNL     1       3.240  30.859  54.557  1.00  0.00     0.166 A 
HETATM    8  N   UNL     1       3.561  30.747  53.223  1.00  0.00    -0.046 NA
HETATM    9  C   UNL     1       5.241  27.639  52.267  1.00  0.00     0.037 C 
HETATM   10  C   UNL     1       5.530  26.914  50.977  1.00  0.00     0.070 C 
HETATM   11  H   UNL     1       4.572  29.277  51.199  1.00  0.00     0.184 HD
ENDROOT
BRANCH   1  12
HETATM   12  C   UNL     1       5.658  25.645  53.659  1.00  0.00     0.256 C 
HETATM   13  N   UNL     1       6.990  25.335  53.816  1.00  0.00    -0.323 N 
HETATM   14  H   UNL     1       7.644  26.107  53.838  1.00  0.00     0.169 HD
HETATM   15  O   UNL     1       4.705  24.875  53.644  1.00  0.00    -0.267 OA
BRANCH  13  16
HETATM   16  C   UNL     1       7.559  24.045  53.970  1.00  0.00     0.041 A 
HETATM   17  C   UNL     1       8.137  23.693  55.211  1.00  0.00    -0.035 A 
HETATM   18  C   UNL     1       8.137  24.615  56.400  1.00  0.00     0.050 C 
HETATM   19  C   UNL     1       8.694  22.410  55.375  1.00  0.00     0.009 A 
HETATM   20  C   UNL     1       8.700  21.491  54.329  1.00  0.00     0.001 A 
HETATM   21  C   UNL     1       8.143  21.840  53.107  1.00  0.00     0.002 A 
HETATM   22  C   UNL     1       7.576  23.106  52.931  1.00  0.00     0.030 A 
ENDBRANCH  13  16
ENDBRANCH   1  12
BRANCH   2  23
HETATM   23  C   UNL     1       6.314  28.267  55.551  1.00  0.00    -0.028 A 
HETATM   24  C   UNL     1       7.483  28.701  54.903  1.00  0.00     0.010 A 
HETATM   25  C   UNL     1       8.615  29.063  55.637  1.00  0.00     0.008 A 
HETATM   26  C   UNL     1       8.609  29.009  57.036  1.00  0.00    -0.055 A 
HETATM   27  C   UNL     1       7.443  28.577  57.683  1.00  0.00     0.008 A 
HETATM   28  C   UNL     1       6.309  28.211  56.951  1.00  0.00     0.010 A 
BRANCH  26  29
HETATM   29  C   UNL     1       9.851  29.419  57.806  1.00  0.00     0.010 C 
HETATM   30  C   UNL     1      11.046  29.666  56.880  1.00  0.00     0.015 C 
HETATM   31  C   UNL     1       9.578  30.642  58.685  1.00  0.00     0.015 C 
ENDBRANCH  26  29
ENDBRANCH   2  23
BRANCH   7  32
HETATM   32  C   UNL     1       2.530  32.045  55.097  1.00  0.00     0.085 C 
BRANCH  32  33
HETATM   33  C   UNL     1       3.480  33.144  55.572  1.00  0.00     0.034 C 
BRANCH  33  34
HETATM   34  C   UNL     1       3.652  33.168  57.088  1.00  0.00     0.164 C 
BRANCH  34  35
HETATM   35  O   UNL     1       3.062  32.004  57.657  1.00  0.00    -0.401 OA
HETATM   36  H   UNL     1       3.628  31.718  58.393  1.00  0.00     0.209 HD
ENDBRANCH  34  35
ENDBRANCH  33  34
ENDBRANCH  32  33
ENDBRANCH   7  32
TORSDOF 8
ENDMDL
MODEL 3
REMARK VINA RESULT:      -9.3      2.718      7.146
REMARK  8 active torsions:
REMARK  status: ('A' for Active; 'I' for Inactive)
REMARK    1  A    between atoms: C_3  and  N_4 
REMARK       I    between atoms: N_4  and  C_5 
REMARK    2  A    between atoms: C_5  and  C_6 
REMARK    3  A    between atoms: C_7  and  C_8 
REMARK    4  A    between atoms: C_11  and  C_12 
REMARK    5  A    between atoms: C_21  and  C_22 
REMARK    6  A    between atoms: C_22  and  C_23 
REMARK    7  A    between atoms: C_23  and  C_24 
REMARK    8  A    between atoms: C_24  and  O_25 
ROOT
HETATM    1  C   UNL     1       5.881  26.529  54.367  1.00  0.00     0.062 C 
HETATM    2  C   UNL     1       5.499  27.687  55.275  1.00  0.00     0.202 C 
HETATM    3  N   UNL     1       4.834  28.747  54.511  1.00  0.00    -0.083 N 
HETATM    4  C   UNL     1       4.863  28.834  53.146  1.00  0.00     0.726 A 
HETATM    5  N   UNL     1       5.447  27.846  52.436  1.00  0.00    -0.192 N 
HETATM    6  N   UNL     1       4.152  29.771  55.060  1.00  0.00    -0.140 NA
HETATM    7  C   UNL     1       3.849  30.481  53.963  1.00  0.00     0.166 A 
HETATM    8  N   UNL     1       4.261  29.933  52.769  1.00  0.00    -0.046 NA
HETATM    9  C   UNL     1       5.848  26.644  53.016  1.00  0.00     0.037 C 
HETATM   10  C   UNL     1       6.195  25.532  52.058  1.00  0.00     0.070 C 
HETATM   11  H   UNL     1       5.344  27.860  51.423  1.00  0.00     0.184 HD
ENDROOT
BRANCH   1  12
HETATM   12  C   UNL     1       6.059  25.202  55.006  1.00  0.00     0.256 C 
HETATM   13  N   UNL     1       7.308  24.655  54.816  1.00  0.00    -0.323 N 
HETATM   14  H   UNL     1       7.979  25.206  54.296  1.00  0.00     0.169 HD
HETATM   15  O   UNL     1       5.119  24.727  55.633  1.00  0.00    -0.267 OA
BRANCH  13  16
HETATM   16  C   UNL     1       7.776  23.400  55.283  1.00  0.00     0.041 A 
HETATM   17  C   UNL     1       8.009  22.363  54.351  1.00  0.00    -0.035 A 
HETATM   18  C   UNL     1       7.825  22.545  52.868  1.00  0.00     0.050 C 
HETATM   19  C   UNL     1       8.483  21.118  54.805  1.00  0.00     0.009 A 
HETATM   20  C   UNL     1       8.708  20.887  56.160  1.00  0.00     0.001 A 
HETATM   21  C   UNL     1       8.469  21.901  57.077  1.00  0.00     0.002 A 
HETATM   22  C   UNL     1       8.008  23.147  56.640  1.00  0.00     0.030 A 
ENDBRANCH  13  16
ENDBRANCH   1  12
BRANCH   2  23
HETATM   23  C   UNL     1       6.705  28.282  56.001  1.00  0.00    -0.028 A 
HETATM   24  C   UNL     1       7.859  28.675  55.303  1.00  0.00     0.010 A 
HETATM   25  C   UNL     1       8.951  29.226  55.978  1.00  0.00     0.008 A 
HETATM   26  C   UNL     1       8.918  29.406  57.366  1.00  0.00    -0.055 A 
HETATM   27  C   UNL     1       7.767  29.015  58.063  1.00  0.00     0.008 A 
HETATM   28  C   UNL     1       6.673  28.459  57.391  1.00  0.00     0.010 A 
BRANCH  26  29
HETATM   29  C   UNL     1      10.116  30.019  58.070  1.00  0.00     0.010 C 
HETATM   30  C   UNL     1      11.395  29.897  57.237  1.00  0.00     0.015 C 
HETATM   31  C   UNL     1       9.847  31.476  58.452  1.00  0.00     0.015 C 
ENDBRANCH  26  29
ENDBRANCH   2  23
BRANCH   7  32
HETATM   32  C   UNL     1       3.161  31.794  54.028  1.00  0.00     0.085 C 
BRANCH  32  33
HETATM   33  C   UNL     1       2.656  32.135  55.431  1.00  0.00     0.034 C 
BRANCH  33  34
HETATM   34  C   UNL     1       2.830  33.608  55.784  1.00  0.00     0.164 C 
BRANCH  34  35
HETATM   35  O   UNL     1       2.098  33.908  56.968  1.00  0.00    -0.401 OA
HETATM   36  H   UNL     1       1.740  34.807  56.871  1.00  0.00     0.209 HD
ENDBRANCH  34  35
ENDBRANCH  33  34
ENDBRANCH  32  33
ENDBRANCH   7  32
TORSDOF 8
ENDMDL
MODEL 4
REMARK VINA RESULT:      -9.3      3.585      7.356
REMARK  8 active torsions:
REMARK  status: ('A' for Active; 'I' for Inactive)
REMARK    1  A    between atoms: C_3  and  N_4 
REMARK       I    between atoms: N_4  and  C_5 
REMARK    2  A    between atoms: C_5  and  C_6 
REMARK    3  A    between atoms: C_7  and  C_8 
REMARK    4  A    between atoms: C_11  and  C_12 
REMARK    5  A    between atoms: C_21  and  C_22 
REMARK    6  A    between atoms: C_22  and  C_23 
REMARK    7  A    between atoms: C_23  and  C_24 
REMARK    8  A    between atoms: C_24  and  O_25 
ROOT
HETATM    1  C   UNL     1       7.301  30.245  58.117  1.00  0.00     0.062 C 
HETATM    2  C   UNL     1       6.088  29.385  57.799  1.00  0.00     0.202 C 
HETATM    3  N   UNL     1       6.500  28.106  57.212  1.00  0.00    -0.083 N 
HETATM    4  C   UNL     1       7.750  27.864  56.712  1.00  0.00     0.726 A 
HETATM    5  N   UNL     1       8.705  28.809  56.844  1.00  0.00    -0.192 N 
HETATM    6  N   UNL     1       5.691  27.037  57.066  1.00  0.00    -0.140 NA
HETATM    7  C   UNL     1       6.504  26.202  56.405  1.00  0.00     0.166 A 
HETATM    8  N   UNL     1       7.779  26.670  56.177  1.00  0.00    -0.046 NA
HETATM    9  C   UNL     1       8.534  29.939  57.640  1.00  0.00     0.037 C 
HETATM   10  C   UNL     1       9.781  30.735  57.932  1.00  0.00     0.070 C 
HETATM   11  H   UNL     1       9.659  28.563  56.587  1.00  0.00     0.184 HD
ENDROOT
BRANCH   1  12
HETATM   12  C   UNL     1       7.134  31.286  59.160  1.00  0.00     0.256 C 
HETATM   13  N   UNL     1       7.301  30.821  60.445  1.00  0.00    -0.323 N 
HETATM   14  H   UNL     1       7.544  29.845  60.554  1.00  0.00     0.169 HD
HETATM   15  O   UNL     1       6.878  32.430  58.803  1.00  0.00    -0.267 OA
BRANCH  13  16
HETATM   16  C   UNL     1       7.186  31.563  61.649  1.00  0.00     0.041 A 
HETATM   17  C   UNL     1       8.360  32.041  62.274  1.00  0.00    -0.035 A 
HETATM   18  C   UNL     1       9.733  31.837  61.693  1.00  0.00     0.050 C 
HETATM   19  C   UNL     1       8.255  32.788  63.463  1.00  0.00     0.009 A 
HETATM   20  C   UNL     1       7.014  33.045  64.041  1.00  0.00     0.001 A 
HETATM   21  C   UNL     1       5.862  32.565  63.434  1.00  0.00     0.002 A 
HETATM   22  C   UNL     1       5.949  31.832  62.247  1.00  0.00     0.030 A 
ENDBRANCH  13  16
ENDBRANCH   1  12
BRANCH   2  23
HETATM   23  C   UNL     1       5.117  30.079  56.844  1.00  0.00    -0.028 A 
HETATM   24  C   UNL     1       5.372  30.149  55.464  1.00  0.00     0.010 A 
HETATM   25  C   UNL     1       4.470  30.778  54.601  1.00  0.00     0.008 A 
HETATM   26  C   UNL     1       3.288  31.346  55.091  1.00  0.00    -0.055 A 
HETATM   27  C   UNL     1       3.033  31.275  56.467  1.00  0.00     0.008 A 
HETATM   28  C   UNL     1       3.935  30.650  57.334  1.00  0.00     0.010 A 
BRANCH  26  29
HETATM   29  C   UNL     1       2.322  32.012  54.127  1.00  0.00     0.010 C 
HETATM   30  C   UNL     1       1.801  33.346  54.668  1.00  0.00     0.015 C 
HETATM   31  C   UNL     1       2.955  32.191  52.745  1.00  0.00     0.015 C 
ENDBRANCH  26  29
ENDBRANCH   2  23
BRANCH   7  32
HETATM   32  C   UNL     1       6.053  24.879  55.905  1.00  0.00     0.085 C 
BRANCH  32  33
HETATM   33  C   UNL     1       6.126  24.761  54.382  1.00  0.00     0.034 C 
BRANCH  33  34
HETATM   34  C   UNL     1       5.251  25.784  53.664  1.00  0.00     0.164 C 
BRANCH  34  35
HETATM   35  O   UNL     1       4.037  25.170  53.246  1.00  0.00    -0.401 OA
HETATM   36  H   UNL     1       3.344  25.431  53.876  1.00  0.00     0.209 HD
ENDBRANCH  34  35
ENDBRANCH  33  34
ENDBRANCH  32  33
ENDBRANCH   7  32
TORSDOF 8
ENDMDL
MODEL 5
REMARK VINA RESULT:      -9.0      3.268      7.109
REMARK  8 active torsions:
REMARK  status: ('A' for Active; 'I' for Inactive)
REMARK    1  A    between atoms: C_3  and  N_4 
REMARK       I    between atoms: N_4  and  C_5 
REMARK    2  A    between atoms: C_5  and  C_6 
REMARK    3  A    between atoms: C_7  and  C_8 
REMARK    4  A    between atoms: C_11  and  C_12 
REMARK    5  A    between atoms: C_21  and  C_22 
REMARK    6  A    between atoms: C_22  and  C_23 
REMARK    7  A    between atoms: C_23  and  C_24 
REMARK    8  A    between atoms: C_24  and  O_25 
ROOT
HETATM    1  C   UNL     1       6.049  26.274  55.597  1.00  0.00     0.062 C 
HETATM    2  C   UNL     1       6.302  27.525  54.769  1.00  0.00     0.202 C 
HETATM    3  N   UNL     1       5.565  28.667  55.319  1.00  0.00    -0.083 N 
HETATM    4  C   UNL     1       4.544  28.551  56.222  1.00  0.00     0.726 A 
HETATM    5  N   UNL     1       4.244  27.335  56.724  1.00  0.00    -0.192 N 
HETATM    6  N   UNL     1       5.782  29.953  54.975  1.00  0.00    -0.140 NA
HETATM    7  C   UNL     1       4.805  30.559  55.664  1.00  0.00     0.166 A 
HETATM    8  N   UNL     1       4.029  29.733  56.447  1.00  0.00    -0.046 NA
HETATM    9  C   UNL     1       5.054  26.221  56.518  1.00  0.00     0.037 C 
HETATM   10  C   UNL     1       4.762  25.022  57.385  1.00  0.00     0.070 C 
HETATM   11  H   UNL     1       3.574  27.286  57.489  1.00  0.00     0.184 HD
ENDROOT
BRANCH   1  12
HETATM   12  C   UNL     1       7.075  25.205  55.532  1.00  0.00     0.256 C 
HETATM   13  N   UNL     1       6.624  24.033  54.969  1.00  0.00    -0.323 N 
HETATM   14  H   UNL     1       5.669  24.019  54.634  1.00  0.00     0.169 HD
HETATM   15  O   UNL     1       8.197  25.448  55.962  1.00  0.00    -0.267 OA
BRANCH  13  16
HETATM   16  C   UNL     1       7.355  22.831  54.784  1.00  0.00     0.041 A 
HETATM   17  C   UNL     1       7.950  22.576  53.529  1.00  0.00    -0.035 A 
HETATM   18  C   UNL     1       7.882  23.548  52.382  1.00  0.00     0.050 C 
HETATM   19  C   UNL     1       8.687  21.391  53.341  1.00  0.00     0.009 A 
HETATM   20  C   UNL     1       8.822  20.460  54.367  1.00  0.00     0.001 A 
HETATM   21  C   UNL     1       8.227  20.704  55.597  1.00  0.00     0.002 A 
HETATM   22  C   UNL     1       7.502  21.882  55.803  1.00  0.00     0.030 A 
ENDBRANCH  13  16
ENDBRANCH   1  12
BRANCH   2  23
HETATM   23  C   UNL     1       5.912  27.342  53.303  1.00  0.00    -0.028 A 
HETATM   24  C   UNL     1       5.438  26.111  52.819  1.00  0.00     0.010 A 
HETATM   25  C   UNL     1       5.076  25.960  51.479  1.00  0.00     0.008 A 
HETATM   26  C   UNL     1       5.170  27.035  50.587  1.00  0.00    -0.055 A 
HETATM   27  C   UNL     1       5.642  28.263  51.068  1.00  0.00     0.008 A 
HETATM   28  C   UNL     1       6.009  28.417  52.409  1.00  0.00     0.010 A 
BRANCH  26  29
HETATM   29  C   UNL     1       4.758  26.844  49.138  1.00  0.00     0.010 C 
HETATM   30  C   UNL     1       3.725  25.725  48.978  1.00  0.00     0.015 C 
HETATM   31  C   UNL     1       4.246  28.153  48.532  1.00  0.00     0.015 C 
ENDBRANCH  26  29
ENDBRANCH   2  23
BRANCH   7  32
HETATM   32  C   UNL     1       4.538  32.015  55.554  1.00  0.00     0.085 C 
BRANCH  32  33
HETATM   33  C   UNL     1       4.888  32.784  56.828  1.00  0.00     0.034 C 
BRANCH  33  34
HETATM   34  C   UNL     1       3.659  33.194  57.632  1.00  0.00     0.164 C 
BRANCH  34  35
HETATM   35  O   UNL     1       3.148  32.069  58.339  1.00  0.00    -0.401 OA
HETATM   36  H   UNL     1       2.527  31.610  57.750  1.00  0.00     0.209 HD
ENDBRANCH  34  35
ENDBRANCH  33  34
ENDBRANCH  32  33
ENDBRANCH   7  32
TORSDOF 8
ENDMDL
MODEL 6
REMARK VINA RESULT:      -8.7      9.284     13.840
REMARK  8 active torsions:
REMARK  status: ('A' for Active; 'I' for Inactive)
REMARK    1  A    between atoms: C_3  and  N_4 
REMARK       I    between atoms: N_4  and  C_5 
REMARK    2  A    between atoms: C_5  and  C_6 
REMARK    3  A    between atoms: C_7  and  C_8 
REMARK    4  A    between atoms: C_11  and  C_12 
REMARK    5  A    between atoms: C_21  and  C_22 
REMARK    6  A    between atoms: C_22  and  C_23 
REMARK    7  A    between atoms: C_23  and  C_24 
REMARK    8  A    between atoms: C_24  and  O_25 
ROOT
HETATM    1  C   UNL     1       3.804  35.122  62.681  1.00  0.00     0.062 C 
HETATM    2  C   UNL     1       4.263  33.959  63.547  1.00  0.00     0.202 C 
HETATM    3  N   UNL     1       4.389  34.374  64.947  1.00  0.00    -0.083 N 
HETATM    4  C   UNL     1       4.423  35.680  65.355  1.00  0.00     0.726 A 
HETATM    5  N   UNL     1       4.235  36.658  64.444  1.00  0.00    -0.192 N 
HETATM    6  N   UNL     1       4.519  33.526  65.987  1.00  0.00    -0.140 NA
HETATM    7  C   UNL     1       4.696  34.394  66.993  1.00  0.00     0.166 A 
HETATM    8  N   UNL     1       4.635  35.725  66.645  1.00  0.00    -0.046 NA
HETATM    9  C   UNL     1       3.809  36.397  63.144  1.00  0.00     0.037 C 
HETATM   10  C   UNL     1       3.350  37.593  62.347  1.00  0.00     0.070 C 
HETATM   11  H   UNL     1       4.132  37.612  64.783  1.00  0.00     0.184 HD
ENDROOT
BRANCH   1  12
HETATM   12  C   UNL     1       3.129  34.785  61.405  1.00  0.00     0.256 C 
HETATM   13  N   UNL     1       3.910  34.990  60.289  1.00  0.00    -0.323 N 
HETATM   14  H   UNL     1       4.856  35.315  60.442  1.00  0.00     0.169 HD
HETATM   15  O   UNL     1       1.979  34.362  61.448  1.00  0.00    -0.267 OA
BRANCH  13  16
HETATM   16  C   UNL     1       3.545  34.780  58.935  1.00  0.00     0.041 A 
HETATM   17  C   UNL     1       2.953  35.840  58.211  1.00  0.00    -0.035 A 
HETATM   18  C   UNL     1       2.733  37.206  58.803  1.00  0.00     0.050 C 
HETATM   19  C   UNL     1       2.598  35.644  56.863  1.00  0.00     0.009 A 
HETATM   20  C   UNL     1       2.803  34.416  56.239  1.00  0.00     0.001 A 
HETATM   21  C   UNL     1       3.373  33.371  56.953  1.00  0.00     0.002 A 
HETATM   22  C   UNL     1       3.742  33.554  58.289  1.00  0.00     0.030 A 
ENDBRANCH  13  16
ENDBRANCH   1  12
BRANCH   2  23
HETATM   23  C   UNL     1       5.596  33.375  63.081  1.00  0.00    -0.028 A 
HETATM   24  C   UNL     1       6.772  33.546  63.831  1.00  0.00     0.010 A 
HETATM   25  C   UNL     1       7.983  32.999  63.398  1.00  0.00     0.008 A 
HETATM   26  C   UNL     1       8.051  32.261  62.211  1.00  0.00    -0.055 A 
HETATM   27  C   UNL     1       6.878  32.090  61.463  1.00  0.00     0.008 A 
HETATM   28  C   UNL     1       5.665  32.639  61.891  1.00  0.00     0.010 A 
BRANCH  26  29
HETATM   29  C   UNL     1       9.378  31.669  61.772  1.00  0.00     0.010 C 
HETATM   30  C   UNL     1       9.444  30.160  62.024  1.00  0.00     0.015 C 
HETATM   31  C   UNL     1       9.671  31.993  60.305  1.00  0.00     0.015 C 
ENDBRANCH  26  29
ENDBRANCH   2  23
BRANCH   7  32
HETATM   32  C   UNL     1       4.989  33.958  68.381  1.00  0.00     0.085 C 
BRANCH  32  33
HETATM   33  C   UNL     1       6.252  34.601  68.954  1.00  0.00     0.034 C 
BRANCH  33  34
HETATM   34  C   UNL     1       6.347  34.477  70.471  1.00  0.00     0.164 C 
BRANCH  34  35
HETATM   35  O   UNL     1       5.091  34.797  71.059  1.00  0.00    -0.401 OA
HETATM   36  H   UNL     1       4.408  34.670  70.380  1.00  0.00     0.209 HD
ENDBRANCH  34  35
ENDBRANCH  33  34
ENDBRANCH  32  33
ENDBRANCH   7  32
TORSDOF 8
ENDMDL
MODEL 7
REMARK VINA RESULT:      -8.6      8.306     13.028
REMARK  8 active torsions:
REMARK  status: ('A' for Active; 'I' for Inactive)
REMARK    1  A    between atoms: C_3  and  N_4 
REMARK       I    between atoms: N_4  and  C_5 
REMARK    2  A    between atoms: C_5  and  C_6 
REMARK    3  A    between atoms: C_7  and  C_8 
REMARK    4  A    between atoms: C_11  and  C_12 
REMARK    5  A    between atoms: C_21  and  C_22 
REMARK    6  A    between atoms: C_22  and  C_23 
REMARK    7  A    between atoms: C_23  and  C_24 
REMARK    8  A    between atoms: C_24  and  O_25 
ROOT
HETATM    1  C   UNL     1       3.497  34.709  61.569  1.00  0.00     0.062 C 
HETATM    2  C   UNL     1       3.923  33.714  62.637  1.00  0.00     0.202 C 
HETATM    3  N   UNL     1       3.855  34.322  63.969  1.00  0.00    -0.083 N 
HETATM    4  C   UNL     1       3.758  35.669  64.187  1.00  0.00     0.726 A 
HETATM    5  N   UNL     1       3.617  36.498  63.131  1.00  0.00    -0.192 N 
HETATM    6  N   UNL     1       3.915  33.635  65.127  1.00  0.00    -0.140 NA
HETATM    7  C   UNL     1       3.916  34.642  66.011  1.00  0.00     0.166 A 
HETATM    8  N   UNL     1       3.812  35.905  65.473  1.00  0.00    -0.046 NA
HETATM    9  C   UNL     1       3.366  36.032  61.842  1.00  0.00     0.037 C 
HETATM   10  C   UNL     1       2.929  37.068  60.838  1.00  0.00     0.070 C 
HETATM   11  H   UNL     1       3.414  37.478  63.317  1.00  0.00     0.184 HD
ENDROOT
BRANCH   1  12
HETATM   12  C   UNL     1       3.001  34.151  60.288  1.00  0.00     0.256 C 
HETATM   13  N   UNL     1       3.942  34.140  59.283  1.00  0.00    -0.323 N 
HETATM   14  H   UNL     1       4.868  34.477  59.513  1.00  0.00     0.169 HD
HETATM   15  O   UNL     1       1.843  33.755  60.236  1.00  0.00    -0.267 OA
BRANCH  13  16
HETATM   16  C   UNL     1       3.769  33.689  57.949  1.00  0.00     0.041 A 
HETATM   17  C   UNL     1       4.575  32.632  57.471  1.00  0.00    -0.035 A 
HETATM   18  C   UNL     1       5.587  31.926  58.334  1.00  0.00     0.050 C 
HETATM   19  C   UNL     1       4.402  32.171  56.152  1.00  0.00     0.009 A 
HETATM   20  C   UNL     1       3.462  32.754  55.307  1.00  0.00     0.001 A 
HETATM   21  C   UNL     1       2.677  33.800  55.771  1.00  0.00     0.002 A 
HETATM   22  C   UNL     1       2.830  34.262  57.082  1.00  0.00     0.030 A 
ENDBRANCH  13  16
ENDBRANCH   1  12
BRANCH   2  23
HETATM   23  C   UNL     1       5.337  33.181  62.406  1.00  0.00    -0.028 A 
HETATM   24  C   UNL     1       5.670  31.844  62.684  1.00  0.00     0.010 A 
HETATM   25  C   UNL     1       6.964  31.368  62.459  1.00  0.00     0.008 A 
HETATM   26  C   UNL     1       7.958  32.209  61.945  1.00  0.00    -0.055 A 
HETATM   27  C   UNL     1       7.626  33.542  61.668  1.00  0.00     0.008 A 
HETATM   28  C   UNL     1       6.333  34.024  61.894  1.00  0.00     0.010 A 
BRANCH  26  29
HETATM   29  C   UNL     1       9.352  31.660  61.701  1.00  0.00     0.010 C 
HETATM   30  C   UNL     1       9.459  30.179  62.077  1.00  0.00     0.015 C 
HETATM   31  C   UNL     1       9.791  31.891  60.253  1.00  0.00     0.015 C 
ENDBRANCH  26  29
ENDBRANCH   2  23
BRANCH   7  32
HETATM   32  C   UNL     1       4.069  34.421  67.471  1.00  0.00     0.085 C 
BRANCH  32  33
HETATM   33  C   UNL     1       5.360  35.019  68.032  1.00  0.00     0.034 C 
BRANCH  33  34
HETATM   34  C   UNL     1       6.085  34.077  68.987  1.00  0.00     0.164 C 
BRANCH  34  35
HETATM   35  O   UNL     1       5.208  33.031  69.390  1.00  0.00    -0.401 OA
HETATM   36  H   UNL     1       5.736  32.377  69.879  1.00  0.00     0.209 HD
ENDBRANCH  34  35
ENDBRANCH  33  34
ENDBRANCH  32  33
ENDBRANCH   7  32
TORSDOF 8
ENDMDL
MODEL 8
REMARK VINA RESULT:      -8.5      3.472      8.200
REMARK  8 active torsions:
REMARK  status: ('A' for Active; 'I' for Inactive)
REMARK    1  A    between atoms: C_3  and  N_4 
REMARK       I    between atoms: N_4  and  C_5 
REMARK    2  A    between atoms: C_5  and  C_6 
REMARK    3  A    between atoms: C_7  and  C_8 
REMARK    4  A    between atoms: C_11  and  C_12 
REMARK    5  A    between atoms: C_21  and  C_22 
REMARK    6  A    between atoms: C_22  and  C_23 
REMARK    7  A    between atoms: C_23  and  C_24 
REMARK    8  A    between atoms: C_24  and  O_25 
ROOT
HETATM    1  C   UNL     1       3.716  29.663  52.423  1.00  0.00     0.062 C 
HETATM    2  C   UNL     1       3.774  28.874  53.721  1.00  0.00     0.202 C 
HETATM    3  N   UNL     1       4.009  29.767  54.859  1.00  0.00    -0.083 N 
HETATM    4  C   UNL     1       4.451  31.056  54.738  1.00  0.00     0.726 A 
HETATM    5  N   UNL     1       4.591  31.590  53.506  1.00  0.00    -0.192 N 
HETATM    6  N   UNL     1       3.853  29.416  56.152  1.00  0.00    -0.140 NA
HETATM    7  C   UNL     1       4.285  30.528  56.763  1.00  0.00     0.166 A 
HETATM    8  N   UNL     1       4.652  31.560  55.929  1.00  0.00    -0.046 NA
HETATM    9  C   UNL     1       4.119  30.957  52.359  1.00  0.00     0.037 C 
HETATM   10  C   UNL     1       4.070  31.802  51.110  1.00  0.00     0.070 C 
HETATM   11  H   UNL     1       4.792  32.586  53.437  1.00  0.00     0.184 HD
ENDROOT
BRANCH   1  12
HETATM   12  C   UNL     1       2.982  29.045  51.291  1.00  0.00     0.256 C 
HETATM   13  N   UNL     1       3.796  28.404  50.384  1.00  0.00    -0.323 N 
HETATM   14  H   UNL     1       4.787  28.389  50.582  1.00  0.00     0.169 HD
HETATM   15  O   UNL     1       1.762  29.146  51.265  1.00  0.00    -0.267 OA
BRANCH  13  16
HETATM   16  C   UNL     1       3.398  27.737  49.196  1.00  0.00     0.041 A 
HETATM   17  C   UNL     1       3.860  26.423  48.959  1.00  0.00    -0.035 A 
HETATM   18  C   UNL     1       4.725  25.675  49.937  1.00  0.00     0.050 C 
HETATM   19  C   UNL     1       3.462  25.751  47.787  1.00  0.00     0.009 A 
HETATM   20  C   UNL     1       2.636  26.368  46.852  1.00  0.00     0.001 A 
HETATM   21  C   UNL     1       2.191  27.664  47.078  1.00  0.00     0.002 A 
HETATM   22  C   UNL     1       2.569  28.340  48.242  1.00  0.00     0.030 A 
ENDBRANCH  13  16
ENDBRANCH   1  12
BRANCH   2  23
HETATM   23  C   UNL     1       4.859  27.798  53.702  1.00  0.00    -0.028 A 
HETATM   24  C   UNL     1       4.535  26.431  53.694  1.00  0.00     0.010 A 
HETATM   25  C   UNL     1       5.537  25.458  53.666  1.00  0.00     0.008 A 
HETATM   26  C   UNL     1       6.888  25.823  53.638  1.00  0.00    -0.055 A 
HETATM   27  C   UNL     1       7.212  27.186  53.646  1.00  0.00     0.008 A 
HETATM   28  C   UNL     1       6.212  28.163  53.677  1.00  0.00     0.010 A 
BRANCH  26  29
HETATM   29  C   UNL     1       7.955  24.743  53.597  1.00  0.00     0.010 C 
HETATM   30  C   UNL     1       7.853  23.790  54.792  1.00  0.00     0.015 C 
HETATM   31  C   UNL     1       7.909  23.971  52.276  1.00  0.00     0.015 C 
ENDBRANCH  26  29
ENDBRANCH   2  23
BRANCH   7  32
HETATM   32  C   UNL     1       4.410  30.629  58.238  1.00  0.00     0.085 C 
BRANCH  32  33
HETATM   33  C   UNL     1       3.829  31.927  58.799  1.00  0.00     0.034 C 
BRANCH  33  34
HETATM   34  C   UNL     1       3.107  31.730  60.129  1.00  0.00     0.164 C 
BRANCH  34  35
HETATM   35  O   UNL     1       2.746  30.362  60.282  1.00  0.00    -0.401 OA
HETATM   36  H   UNL     1       3.466  29.920  60.763  1.00  0.00     0.209 HD
ENDBRANCH  34  35
ENDBRANCH  33  34
ENDBRANCH  32  33
ENDBRANCH   7  32
TORSDOF 8
ENDMDL
MODEL 9
REMARK VINA RESULT:      -8.5      3.310      7.204
REMARK  8 active torsions:
REMARK  status: ('A' for Active; 'I' for Inactive)
REMARK    1  A    between atoms: C_3  and  N_4 
REMARK       I    between atoms: N_4  and  C_5 
REMARK    2  A    between atoms: C_5  and  C_6 
REMARK    3  A    between atoms: C_7  and  C_8 
REMARK    4  A    between atoms: C_11  and  C_12 
REMARK    5  A    between atoms: C_21  and  C_22 
REMARK    6  A    between atoms: C_22  and  C_23 
REMARK    7  A    between atoms: C_23  and  C_24 
REMARK    8  A    between atoms: C_24  and  O_25 
ROOT
HETATM    1  C   UNL     1       5.521  27.710  55.236  1.00  0.00     0.062 C 
HETATM    2  C   UNL     1       5.539  29.004  54.439  1.00  0.00     0.202 C 
HETATM    3  N   UNL     1       4.828  30.065  55.158  1.00  0.00    -0.083 N 
HETATM    4  C   UNL     1       3.988  29.839  56.214  1.00  0.00     0.726 A 
HETATM    5  N   UNL     1       3.866  28.586  56.701  1.00  0.00    -0.192 N 
HETATM    6  N   UNL     1       4.891  31.375  54.846  1.00  0.00    -0.140 NA
HETATM    7  C   UNL     1       4.006  31.879  55.717  1.00  0.00     0.166 A 
HETATM    8  N   UNL     1       3.437  30.968  56.579  1.00  0.00    -0.046 NA
HETATM    9  C   UNL     1       4.705  27.546  56.308  1.00  0.00     0.037 C 
HETATM   10  C   UNL     1       4.651  26.298  57.153  1.00  0.00     0.070 C 
HETATM   11  H   UNL     1       3.342  28.458  57.564  1.00  0.00     0.184 HD
ENDROOT
BRANCH   1  12
HETATM   12  C   UNL     1       6.594  26.727  54.948  1.00  0.00     0.256 C 
HETATM   13  N   UNL     1       6.128  25.479  54.599  1.00  0.00    -0.323 N 
HETATM   14  H   UNL     1       5.125  25.360  54.544  1.00  0.00     0.169 HD
HETATM   15  O   UNL     1       7.759  27.096  55.035  1.00  0.00    -0.267 OA
BRANCH  13  16
HETATM   16  C   UNL     1       6.900  24.331  54.286  1.00  0.00     0.041 A 
HETATM   17  C   UNL     1       7.366  24.157  52.963  1.00  0.00    -0.035 A 
HETATM   18  C   UNL     1       7.117  25.164  51.873  1.00  0.00     0.050 C 
HETATM   19  C   UNL     1       8.142  23.025  52.646  1.00  0.00     0.009 A 
HETATM   20  C   UNL     1       8.441  22.068  53.612  1.00  0.00     0.001 A 
HETATM   21  C   UNL     1       7.973  22.232  54.909  1.00  0.00     0.002 A 
HETATM   22  C   UNL     1       7.211  23.356  55.241  1.00  0.00     0.030 A 
ENDBRANCH  13  16
ENDBRANCH   1  12
BRANCH   2  23
HETATM   23  C   UNL     1       4.918  28.844  53.052  1.00  0.00    -0.028 A 
HETATM   24  C   UNL     1       3.530  28.949  52.854  1.00  0.00     0.010 A 
HETATM   25  C   UNL     1       2.976  28.809  51.579  1.00  0.00     0.008 A 
HETATM   26  C   UNL     1       3.791  28.569  50.467  1.00  0.00    -0.055 A 
HETATM   27  C   UNL     1       5.175  28.465  50.663  1.00  0.00     0.008 A 
HETATM   28  C   UNL     1       5.733  28.601  51.938  1.00  0.00     0.010 A 
BRANCH  26  29
HETATM   29  C   UNL     1       3.162  28.434  49.092  1.00  0.00     0.010 C 
HETATM   30  C   UNL     1       3.796  27.302  48.280  1.00  0.00     0.015 C 
HETATM   31  C   UNL     1       1.646  28.251  49.194  1.00  0.00     0.015 C 
ENDBRANCH  26  29
ENDBRANCH   2  23
BRANCH   7  32
HETATM   32  C   UNL     1       3.621  33.313  55.724  1.00  0.00     0.085 C 
BRANCH  32  33
HETATM   33  C   UNL     1       2.625  33.668  54.620  1.00  0.00     0.034 C 
BRANCH  33  34
HETATM   34  C   UNL     1       1.181  33.702  55.110  1.00  0.00     0.164 C 
BRANCH  34  35
HETATM   35  O   UNL     1       0.725  32.375  55.352  1.00  0.00    -0.401 OA
HETATM   36  H   UNL     1       0.759  31.895  54.507  1.00  0.00     0.209 HD
ENDBRANCH  34  35
ENDBRANCH  33  34
ENDBRANCH  32  33
ENDBRANCH   7  32
TORSDOF 8
ENDMDL
MODEL 10
REMARK VINA RESULT:      -8.4      2.545      6.421
REMARK  8 active torsions:
REMARK  status: ('A' for Active; 'I' for Inactive)
REMARK    1  A    between atoms: C_3  and  N_4 
REMARK       I    between atoms: N_4  and  C_5 
REMARK    2  A    between atoms: C_5  and  C_6 
REMARK    3  A    between atoms: C_7  and  C_8 
REMARK    4  A    between atoms: C_11  and  C_12 
REMARK    5  A    between atoms: C_21  and  C_22 
REMARK    6  A    between atoms: C_22  and  C_23 
REMARK    7  A    between atoms: C_23  and  C_24 
REMARK    8  A    between atoms: C_24  and  O_25 
ROOT
HETATM    1  C   UNL     1       5.983  26.511  53.935  1.00  0.00     0.062 C 
HETATM    2  C   UNL     1       5.522  27.756  54.677  1.00  0.00     0.202 C 
HETATM    3  N   UNL     1       4.935  28.725  53.747  1.00  0.00    -0.083 N 
HETATM    4  C   UNL     1       5.089  28.668  52.389  1.00  0.00     0.726 A 
HETATM    5  N   UNL     1       5.732  27.615  51.844  1.00  0.00    -0.192 N 
HETATM    6  N   UNL     1       4.208  29.798  54.120  1.00  0.00    -0.140 NA
HETATM    7  C   UNL     1       4.009  30.386  52.932  1.00  0.00     0.166 A 
HETATM    8  N   UNL     1       4.528  29.718  51.845  1.00  0.00    -0.046 NA
HETATM    9  C   UNL     1       6.074  26.484  52.581  1.00  0.00     0.037 C 
HETATM   10  C   UNL     1       6.504  25.279  51.782  1.00  0.00     0.070 C 
HETATM   11  H   UNL     1       5.723  27.522  50.830  1.00  0.00     0.184 HD
ENDROOT
BRANCH   1  12
HETATM   12  C   UNL     1       6.097  25.261  54.724  1.00  0.00     0.256 C 
HETATM   13  N   UNL     1       7.280  24.584  54.529  1.00  0.00    -0.323 N 
HETATM   14  H   UNL     1       7.956  25.006  53.905  1.00  0.00     0.169 HD
HETATM   15  O   UNL     1       5.168  24.951  55.460  1.00  0.00    -0.267 OA
BRANCH  13  16
HETATM   16  C   UNL     1       7.676  23.358  55.121  1.00  0.00     0.041 A 
HETATM   17  C   UNL     1       8.180  23.364  56.442  1.00  0.00    -0.035 A 
HETATM   18  C   UNL     1       8.274  24.616  57.271  1.00  0.00     0.050 C 
HETATM   19  C   UNL     1       8.564  22.149  57.041  1.00  0.00     0.009 A 
HETATM   20  C   UNL     1       8.473  20.946  56.346  1.00  0.00     0.001 A 
HETATM   21  C   UNL     1       7.990  20.941  55.045  1.00  0.00     0.002 A 
HETATM   22  C   UNL     1       7.593  22.137  54.440  1.00  0.00     0.030 A 
ENDBRANCH  13  16
ENDBRANCH   1  12
BRANCH   2  23
HETATM   23  C   UNL     1       6.659  28.431  55.444  1.00  0.00    -0.028 A 
HETATM   24  C   UNL     1       7.942  28.562  54.887  1.00  0.00     0.010 A 
HETATM   25  C   UNL     1       8.969  29.190  55.595  1.00  0.00     0.008 A 
HETATM   26  C   UNL     1       8.742  29.711  56.874  1.00  0.00    -0.055 A 
HETATM   27  C   UNL     1       7.462  29.582  57.430  1.00  0.00     0.008 A 
HETATM   28  C   UNL     1       6.432  28.951  56.726  1.00  0.00     0.010 A 
BRANCH  26  29
HETATM   29  C   UNL     1       9.875  30.399  57.615  1.00  0.00     0.010 C 
HETATM   30  C   UNL     1       9.629  30.444  59.125  1.00  0.00     0.015 C 
HETATM   31  C   UNL     1      11.221  29.743  57.299  1.00  0.00     0.015 C 
ENDBRANCH  26  29
ENDBRANCH   2  23
BRANCH   7  32
HETATM   32  C   UNL     1       3.323  31.695  52.794  1.00  0.00     0.085 C 
BRANCH  32  33
HETATM   33  C   UNL     1       2.848  31.972  51.368  1.00  0.00     0.034 C 
BRANCH  33  34
HETATM   34  C   UNL     1       3.583  33.137  50.713  1.00  0.00     0.164 C 
BRANCH  34  35
HETATM   35  O   UNL     1       4.384  32.657  49.639  1.00  0.00    -0.401 OA
HETATM   36  H   UNL     1       5.022  33.356  49.414  1.00  0.00     0.209 HD
ENDBRANCH  34  35
ENDBRANCH  33  34
ENDBRANCH  32  33
ENDBRANCH   7  32
TORSDOF 8
ENDMDL
