MODEL 1
REMARK VINA RESULT:      -8.8      0.000      0.000
REMARK  5 active torsions:
REMARK  status: ('A' for Active; 'I' for Inactive)
REMARK       I    between atoms: C_2  and  N_3 
REMARK    1  A    between atoms: C_2  and  O_16 
REMARK    2  A    between atoms: N_3  and  C_4 
REMARK    3  A    between atoms: C_7  and  C_10 
REMARK    4  A    between atoms: O_16  and  C_17 
REMARK    5  A    between atoms: C_17  and  C_18 
ROOT
HETATM    1  C   UNL     1       7.670  25.538  56.942  1.00  0.00     0.036 A 
HETATM    2  C   UNL     1       6.758  25.246  55.928  1.00  0.00     0.030 A 
HETATM    3  C   UNL     1       6.901  24.086  55.155  1.00  0.00     0.014 A 
HETATM    4  C   UNL     1       7.957  23.196  55.381  1.00  0.00    -0.023 A 
HETATM    5  C   UNL     1       8.862  23.485  56.408  1.00  0.00     0.014 A 
HETATM    6  C   UNL     1       8.717  24.642  57.184  1.00  0.00     0.030 A 
ENDROOT
BRANCH   1   7
HETATM    7  N   UNL     1       7.618  26.698  57.733  1.00  0.00    -0.303 N 
HETATM    8  C   UNL     1       8.059  27.956  57.428  1.00  0.00     0.365 C 
HETATM    9  O   UNL     1       8.539  28.345  56.375  1.00  0.00    -0.238 OA
HETATM   10  H   UNL     1       7.257  26.619  58.673  1.00  0.00     0.171 HD
BRANCH   8  11
HETATM   11  O   UNL     1       7.901  28.729  58.532  1.00  0.00    -0.299 OA
BRANCH  11  12
HETATM   12  C   UNL     1       7.894  30.147  58.315  1.00  0.00     0.219 C 
BRANCH  12  13
HETATM   13  C   UNL     1       8.075  30.858  59.630  1.00  0.00    -0.034 A 
HETATM   14  C   UNL     1       9.154  30.547  60.470  1.00  0.00     0.009 A 
HETATM   15  C   UNL     1       9.320  31.215  61.684  1.00  0.00     0.001 A 
HETATM   16  C   UNL     1       8.406  32.192  62.074  1.00  0.00     0.000 A 
HETATM   17  C   UNL     1       7.321  32.497  61.254  1.00  0.00     0.001 A 
HETATM   18  C   UNL     1       7.153  31.831  60.040  1.00  0.00     0.009 A 
ENDBRANCH  12  13
ENDBRANCH  11  12
ENDBRANCH   8  11
ENDBRANCH   1   7
BRANCH   4  19
HETATM   19  C   UNL     1       8.133  22.010  54.562  1.00  0.00     0.010 A 
HETATM   20  C   UNL     1       8.594  20.714  54.898  1.00  0.00     0.152 A 
HETATM   21  N   UNL     1       8.610  19.881  53.854  1.00  0.00    -0.187 NA
HETATM   22  N   UNL     1       8.159  20.640  52.843  1.00  0.00    -0.289 N 
HETATM   23  H   UNL     1       8.080  20.218  51.923  1.00  0.00     0.188 HD
HETATM   24  C   UNL     1       7.858  21.919  53.213  1.00  0.00     0.123 A 
ENDBRANCH   4  19
TORSDOF 5
ENDMDL
MODEL 2
REMARK VINA RESULT:      -8.7      2.938      9.210
REMARK  5 active torsions:
REMARK  status: ('A' for Active; 'I' for Inactive)
REMARK       I    between atoms: C_2  and  N_3 
REMARK    1  A    between atoms: C_2  and  O_16 
REMARK    2  A    between atoms: N_3  and  C_4 
REMARK    3  A    between atoms: C_7  and  C_10 
REMARK    4  A    between atoms: O_16  and  C_17 
REMARK    5  A    between atoms: C_17  and  C_18 
ROOT
HETATM    1  C   UNL     1       7.598  27.268  55.864  1.00  0.00     0.036 A 
HETATM    2  C   UNL     1       8.248  28.375  55.320  1.00  0.00     0.030 A 
HETATM    3  C   UNL     1       8.590  29.468  56.127  1.00  0.00     0.014 A 
HETATM    4  C   UNL     1       8.288  29.475  57.494  1.00  0.00    -0.023 A 
HETATM    5  C   UNL     1       7.648  28.358  58.040  1.00  0.00     0.014 A 
HETATM    6  C   UNL     1       7.310  27.263  57.234  1.00  0.00     0.030 A 
ENDROOT
BRANCH   1   7
HETATM    7  N   UNL     1       7.187  26.152  55.115  1.00  0.00    -0.303 N 
HETATM    8  C   UNL     1       5.991  25.944  54.487  1.00  0.00     0.365 C 
HETATM    9  O   UNL     1       5.048  26.714  54.398  1.00  0.00    -0.238 OA
HETATM   10  H   UNL     1       7.815  25.364  55.051  1.00  0.00     0.171 HD
BRANCH   8  11
HETATM   11  O   UNL     1       6.003  24.684  53.981  1.00  0.00    -0.299 OA
BRANCH  11  12
HETATM   12  C   UNL     1       7.233  24.254  53.383  1.00  0.00     0.219 C 
BRANCH  12  13
HETATM   13  C   UNL     1       7.558  22.859  53.847  1.00  0.00    -0.034 A 
HETATM   14  C   UNL     1       7.543  22.537  55.212  1.00  0.00     0.009 A 
HETATM   15  C   UNL     1       7.838  21.239  55.635  1.00  0.00     0.001 A 
HETATM   16  C   UNL     1       8.160  20.257  54.700  1.00  0.00     0.000 A 
HETATM   17  C   UNL     1       8.194  20.572  53.342  1.00  0.00     0.001 A 
HETATM   18  C   UNL     1       7.899  21.867  52.918  1.00  0.00     0.009 A 
ENDBRANCH  12  13
ENDBRANCH  11  12
ENDBRANCH   8  11
ENDBRANCH   1   7
BRANCH   4  19
HETATM   19  C   UNL     1       8.607  30.618  58.331  1.00  0.00     0.010 A 
HETATM   20  C   UNL     1       9.788  31.393  58.429  1.00  0.00     0.152 A 
HETATM   21  N   UNL     1       9.690  32.378  59.325  1.00  0.00    -0.187 NA
HETATM   22  N   UNL     1       8.446  32.240  59.807  1.00  0.00    -0.289 N 
HETATM   23  H   UNL     1       8.131  32.890  60.520  1.00  0.00     0.188 HD
HETATM   24  C   UNL     1       7.756  31.205  59.245  1.00  0.00     0.123 A 
ENDBRANCH   4  19
TORSDOF 5
ENDMDL
MODEL 3
REMARK VINA RESULT:      -8.3      1.173      1.478
REMARK  5 active torsions:
REMARK  status: ('A' for Active; 'I' for Inactive)
REMARK       I    between atoms: C_2  and  N_3 
REMARK    1  A    between atoms: C_2  and  O_16 
REMARK    2  A    between atoms: N_3  and  C_4 
REMARK    3  A    between atoms: C_7  and  C_10 
REMARK    4  A    between atoms: O_16  and  C_17 
REMARK    5  A    between atoms: C_17  and  C_18 
ROOT
HETATM    1  C   UNL     1       7.793  25.755  56.443  1.00  0.00     0.036 A 
HETATM    2  C   UNL     1       7.461  25.370  55.144  1.00  0.00     0.030 A 
HETATM    3  C   UNL     1       7.678  24.055  54.714  1.00  0.00     0.014 A 
HETATM    4  C   UNL     1       8.232  23.098  55.573  1.00  0.00    -0.023 A 
HETATM    5  C   UNL     1       8.551  23.484  56.880  1.00  0.00     0.014 A 
HETATM    6  C   UNL     1       8.329  24.797  57.311  1.00  0.00     0.030 A 
ENDROOT
BRANCH   1   7
HETATM    7  N   UNL     1       7.642  27.061  56.937  1.00  0.00    -0.303 N 
HETATM    8  C   UNL     1       6.487  27.746  57.190  1.00  0.00     0.365 C 
HETATM    9  O   UNL     1       5.339  27.340  57.093  1.00  0.00    -0.238 OA
HETATM   10  H   UNL     1       8.475  27.611  57.093  1.00  0.00     0.171 HD
BRANCH   8  11
HETATM   11  O   UNL     1       6.825  29.010  57.553  1.00  0.00    -0.299 OA
BRANCH  11  12
HETATM   12  C   UNL     1       8.154  29.187  58.062  1.00  0.00     0.219 C 
BRANCH  12  13
HETATM   13  C   UNL     1       8.186  30.381  58.979  1.00  0.00    -0.034 A 
HETATM   14  C   UNL     1       9.337  30.682  59.722  1.00  0.00     0.009 A 
HETATM   15  C   UNL     1       9.363  31.794  60.566  1.00  0.00     0.001 A 
HETATM   16  C   UNL     1       8.238  32.609  60.680  1.00  0.00     0.000 A 
HETATM   17  C   UNL     1       7.084  32.309  59.958  1.00  0.00     0.001 A 
HETATM   18  C   UNL     1       7.057  31.198  59.115  1.00  0.00     0.009 A 
ENDBRANCH  12  13
ENDBRANCH  11  12
ENDBRANCH   8  11
ENDBRANCH   1   7
BRANCH   4  19
HETATM   19  C   UNL     1       8.493  21.742  55.125  1.00  0.00     0.010 A 
HETATM   20  C   UNL     1       8.314  21.136  53.858  1.00  0.00     0.152 A 
HETATM   21  N   UNL     1       8.680  19.851  53.840  1.00  0.00    -0.187 NA
HETATM   22  N   UNL     1       9.095  19.628  55.097  1.00  0.00    -0.289 N 
HETATM   23  H   UNL     1       9.429  18.699  55.335  1.00  0.00     0.188 HD
HETATM   24  C   UNL     1       9.006  20.725  55.904  1.00  0.00     0.123 A 
ENDBRANCH   4  19
TORSDOF 5
ENDMDL
MODEL 4
REMARK VINA RESULT:      -8.3      6.095      8.794
REMARK  5 active torsions:
REMARK  status: ('A' for Active; 'I' for Inactive)
REMARK       I    between atoms: C_2  and  N_3 
REMARK    1  A    between atoms: C_2  and  O_16 
REMARK    2  A    between atoms: N_3  and  C_4 
REMARK    3  A    between atoms: C_7  and  C_10 
REMARK    4  A    between atoms: O_16  and  C_17 
REMARK    5  A    between atoms: C_17  and  C_18 
ROOT
HETATM    1  C   UNL     1       6.684  25.249  52.876  1.00  0.00     0.036 A 
HETATM    2  C   UNL     1       6.318  24.939  54.185  1.00  0.00     0.030 A 
HETATM    3  C   UNL     1       6.851  23.811  54.825  1.00  0.00     0.014 A 
HETATM    4  C   UNL     1       7.758  22.972  54.167  1.00  0.00    -0.023 A 
HETATM    5  C   UNL     1       8.133  23.295  52.859  1.00  0.00     0.014 A 
HETATM    6  C   UNL     1       7.605  24.424  52.221  1.00  0.00     0.030 A 
ENDROOT
BRANCH   1   7
HETATM    7  N   UNL     1       6.166  26.338  52.154  1.00  0.00    -0.303 N 
HETATM    8  C   UNL     1       5.220  26.330  51.167  1.00  0.00     0.365 C 
HETATM    9  O   UNL     1       4.584  25.376  50.747  1.00  0.00    -0.238 OA
HETATM   10  H   UNL     1       6.554  27.254  52.328  1.00  0.00     0.171 HD
BRANCH   8  11
HETATM   11  O   UNL     1       5.114  27.595  50.685  1.00  0.00    -0.299 OA
BRANCH  11  12
HETATM   12  C   UNL     1       5.183  27.736  49.260  1.00  0.00     0.219 C 
BRANCH  12  13
HETATM   13  C   UNL     1       3.821  27.492  48.664  1.00  0.00    -0.034 A 
HETATM   14  C   UNL     1       2.692  28.157  49.162  1.00  0.00     0.009 A 
HETATM   15  C   UNL     1       1.434  27.932  48.601  1.00  0.00     0.001 A 
HETATM   16  C   UNL     1       1.292  27.035  47.544  1.00  0.00     0.000 A 
HETATM   17  C   UNL     1       2.406  26.356  47.052  1.00  0.00     0.001 A 
HETATM   18  C   UNL     1       3.664  26.581  47.612  1.00  0.00     0.009 A 
ENDBRANCH  12  13
ENDBRANCH  11  12
ENDBRANCH   8  11
ENDBRANCH   1   7
BRANCH   4  19
HETATM   19  C   UNL     1       8.287  21.782  54.809  1.00  0.00     0.010 A 
HETATM   20  C   UNL     1       8.658  21.544  56.155  1.00  0.00     0.152 A 
HETATM   21  N   UNL     1       9.104  20.302  56.359  1.00  0.00    -0.187 NA
HETATM   22  N   UNL     1       9.022  19.738  55.144  1.00  0.00    -0.289 N 
HETATM   23  H   UNL     1       9.313  18.771  55.043  1.00  0.00     0.188 HD
HETATM   24  C   UNL     1       8.539  20.579  54.184  1.00  0.00     0.123 A 
ENDBRANCH   4  19
TORSDOF 5
ENDMDL
MODEL 5
REMARK VINA RESULT:      -8.2      7.859     11.050
REMARK  5 active torsions:
REMARK  status: ('A' for Active; 'I' for Inactive)
REMARK       I    between atoms: C_2  and  N_3 
REMARK    1  A    between atoms: C_2  and  O_16 
REMARK    2  A    between atoms: N_3  and  C_4 
REMARK    3  A    between atoms: C_7  and  C_10 
REMARK    4  A    between atoms: O_16  and  C_17 
REMARK    5  A    between atoms: C_17  and  C_18 
ROOT
HETATM    1  C   UNL     1       6.914  33.768  64.175  1.00  0.00     0.036 A 
HETATM    2  C   UNL     1       7.924  32.816  64.037  1.00  0.00     0.030 A 
HETATM    3  C   UNL     1       8.247  32.300  62.775  1.00  0.00     0.014 A 
HETATM    4  C   UNL     1       7.566  32.723  61.628  1.00  0.00    -0.023 A 
HETATM    5  C   UNL     1       6.563  33.688  61.768  1.00  0.00     0.014 A 
HETATM    6  C   UNL     1       6.243  34.208  63.029  1.00  0.00     0.030 A 
ENDROOT
BRANCH   1   7
HETATM    7  N   UNL     1       6.506  34.305  65.408  1.00  0.00    -0.303 N 
HETATM    8  C   UNL     1       5.330  34.102  66.075  1.00  0.00     0.365 C 
HETATM    9  O   UNL     1       4.411  33.362  65.764  1.00  0.00    -0.238 OA
HETATM   10  H   UNL     1       7.116  34.967  65.865  1.00  0.00     0.171 HD
BRANCH   8  11
HETATM   11  O   UNL     1       5.331  34.907  67.169  1.00  0.00    -0.299 OA
BRANCH  11  12
HETATM   12  C   UNL     1       5.012  34.278  68.417  1.00  0.00     0.219 C 
BRANCH  12  13
HETATM   13  C   UNL     1       6.238  34.248  69.292  1.00  0.00    -0.034 A 
HETATM   14  C   UNL     1       7.260  35.192  69.124  1.00  0.00     0.009 A 
HETATM   15  C   UNL     1       8.390  35.163  69.944  1.00  0.00     0.001 A 
HETATM   16  C   UNL     1       8.512  34.187  70.930  1.00  0.00     0.000 A 
HETATM   17  C   UNL     1       7.508  33.234  71.095  1.00  0.00     0.001 A 
HETATM   18  C   UNL     1       6.378  33.261  70.277  1.00  0.00     0.009 A 
ENDBRANCH  12  13
ENDBRANCH  11  12
ENDBRANCH   8  11
ENDBRANCH   1   7
BRANCH   4  19
HETATM   19  C   UNL     1       7.869  32.167  60.321  1.00  0.00     0.010 A 
HETATM   20  C   UNL     1       9.106  31.995  59.653  1.00  0.00     0.152 A 
HETATM   21  N   UNL     1       8.972  31.434  58.449  1.00  0.00    -0.187 NA
HETATM   22  N   UNL     1       7.648  31.245  58.338  1.00  0.00    -0.289 N 
HETATM   23  H   UNL     1       7.293  30.821  57.487  1.00  0.00     0.188 HD
HETATM   24  C   UNL     1       6.945  31.663  59.430  1.00  0.00     0.123 A 
ENDBRANCH   4  19
TORSDOF 5
ENDMDL
MODEL 6
REMARK VINA RESULT:      -8.2      7.226     10.228
REMARK  5 active torsions:
REMARK  status: ('A' for Active; 'I' for Inactive)
REMARK       I    between atoms: C_2  and  N_3 
REMARK    1  A    between atoms: C_2  and  O_16 
REMARK    2  A    between atoms: N_3  and  C_4 
REMARK    3  A    between atoms: C_7  and  C_10 
REMARK    4  A    between atoms: O_16  and  C_17 
REMARK    5  A    between atoms: C_17  and  C_18 
ROOT
HETATM    1  C   UNL     1       4.888  26.537  49.990  1.00  0.00     0.036 A 
HETATM    2  C   UNL     1       4.214  25.642  49.160  1.00  0.00     0.030 A 
HETATM    3  C   UNL     1       3.228  26.097  48.274  1.00  0.00     0.014 A 
HETATM    4  C   UNL     1       2.896  27.455  48.202  1.00  0.00    -0.023 A 
HETATM    5  C   UNL     1       3.583  28.352  49.027  1.00  0.00     0.014 A 
HETATM    6  C   UNL     1       4.573  27.898  49.908  1.00  0.00     0.030 A 
ENDROOT
BRANCH   1   7
HETATM    7  N   UNL     1       5.860  26.156  50.930  1.00  0.00    -0.303 N 
HETATM    8  C   UNL     1       5.675  25.649  52.186  1.00  0.00     0.365 C 
HETATM    9  O   UNL     1       4.619  25.369  52.732  1.00  0.00    -0.238 OA
HETATM   10  H   UNL     1       6.832  26.305  50.699  1.00  0.00     0.171 HD
BRANCH   8  11
HETATM   11  O   UNL     1       6.895  25.531  52.769  1.00  0.00    -0.299 OA
BRANCH  11  12
HETATM   12  C   UNL     1       7.732  24.477  52.274  1.00  0.00     0.219 C 
BRANCH  12  13
HETATM   13  C   UNL     1       7.750  23.341  53.263  1.00  0.00    -0.034 A 
HETATM   14  C   UNL     1       7.945  22.021  52.833  1.00  0.00     0.009 A 
HETATM   15  C   UNL     1       7.968  20.974  53.756  1.00  0.00     0.001 A 
HETATM   16  C   UNL     1       7.787  21.235  55.113  1.00  0.00     0.000 A 
HETATM   17  C   UNL     1       7.576  22.543  55.548  1.00  0.00     0.001 A 
HETATM   18  C   UNL     1       7.553  23.591  54.627  1.00  0.00     0.009 A 
ENDBRANCH  12  13
ENDBRANCH  11  12
ENDBRANCH   8  11
ENDBRANCH   1   7
BRANCH   4  19
HETATM   19  C   UNL     1       1.851  27.930  47.314  1.00  0.00     0.010 A 
HETATM   20  C   UNL     1       0.683  27.290  46.832  1.00  0.00     0.152 A 
HETATM   21  N   UNL     1      -0.042  28.069  46.026  1.00  0.00    -0.187 NA
HETATM   22  N   UNL     1       0.658  29.213  45.985  1.00  0.00    -0.289 N 
HETATM   23  H   UNL     1       0.299  29.977  45.422  1.00  0.00     0.188 HD
HETATM   24  C   UNL     1       1.796  29.183  46.739  1.00  0.00     0.123 A 
ENDBRANCH   4  19
TORSDOF 5
ENDMDL
MODEL 7
REMARK VINA RESULT:      -8.1      6.079      8.977
REMARK  5 active torsions:
REMARK  status: ('A' for Active; 'I' for Inactive)
REMARK       I    between atoms: C_2  and  N_3 
REMARK    1  A    between atoms: C_2  and  O_16 
REMARK    2  A    between atoms: N_3  and  C_4 
REMARK    3  A    between atoms: C_7  and  C_10 
REMARK    4  A    between atoms: O_16  and  C_17 
REMARK    5  A    between atoms: C_17  and  C_18 
ROOT
HETATM    1  C   UNL     1       6.356  25.444  52.079  1.00  0.00     0.036 A 
HETATM    2  C   UNL     1       5.592  25.160  53.211  1.00  0.00     0.030 A 
HETATM    3  C   UNL     1       6.040  24.228  54.156  1.00  0.00     0.014 A 
HETATM    4  C   UNL     1       7.259  23.560  53.987  1.00  0.00    -0.023 A 
HETATM    5  C   UNL     1       8.029  23.857  52.858  1.00  0.00     0.014 A 
HETATM    6  C   UNL     1       7.584  24.793  51.916  1.00  0.00     0.030 A 
ENDROOT
BRANCH   1   7
HETATM    7  N   UNL     1       5.960  26.336  51.068  1.00  0.00    -0.303 N 
HETATM    8  C   UNL     1       5.657  27.664  51.177  1.00  0.00     0.365 C 
HETATM    9  O   UNL     1       5.725  28.368  52.173  1.00  0.00    -0.238 OA
HETATM   10  H   UNL     1       5.826  25.971  50.136  1.00  0.00     0.171 HD
BRANCH   8  11
HETATM   11  O   UNL     1       5.222  28.091  49.964  1.00  0.00    -0.299 OA
BRANCH  11  12
HETATM   12  C   UNL     1       3.883  28.600  49.916  1.00  0.00     0.219 C 
BRANCH  12  13
HETATM   13  C   UNL     1       3.089  27.833  48.891  1.00  0.00    -0.034 A 
HETATM   14  C   UNL     1       1.712  28.048  48.744  1.00  0.00     0.009 A 
HETATM   15  C   UNL     1       0.984  27.338  47.787  1.00  0.00     0.001 A 
HETATM   16  C   UNL     1       1.624  26.403  46.977  1.00  0.00     0.000 A 
HETATM   17  C   UNL     1       2.990  26.169  47.126  1.00  0.00     0.001 A 
HETATM   18  C   UNL     1       3.719  26.878  48.082  1.00  0.00     0.009 A 
ENDBRANCH  12  13
ENDBRANCH  11  12
ENDBRANCH   8  11
ENDBRANCH   1   7
BRANCH   4  19
HETATM   19  C   UNL     1       7.713  22.566  54.944  1.00  0.00     0.010 A 
HETATM   20  C   UNL     1       7.820  21.159  54.834  1.00  0.00     0.152 A 
HETATM   21  N   UNL     1       8.293  20.586  55.945  1.00  0.00    -0.187 NA
HETATM   22  N   UNL     1       8.491  21.624  56.772  1.00  0.00    -0.289 N 
HETATM   23  H   UNL     1       8.855  21.437  57.700  1.00  0.00     0.188 HD
HETATM   24  C   UNL     1       8.162  22.830  56.221  1.00  0.00     0.123 A 
ENDBRANCH   4  19
TORSDOF 5
ENDMDL
MODEL 8
REMARK VINA RESULT:      -8.0      6.359     12.147
REMARK  5 active torsions:
REMARK  status: ('A' for Active; 'I' for Inactive)
REMARK       I    between atoms: C_2  and  N_3 
REMARK    1  A    between atoms: C_2  and  O_16 
REMARK    2  A    between atoms: N_3  and  C_4 
REMARK    3  A    between atoms: C_7  and  C_10 
REMARK    4  A    between atoms: O_16  and  C_17 
REMARK    5  A    between atoms: C_17  and  C_18 
ROOT
HETATM    1  C   UNL     1       6.447  32.982  63.213  1.00  0.00     0.036 A 
HETATM    2  C   UNL     1       5.179  33.045  63.792  1.00  0.00     0.030 A 
HETATM    3  C   UNL     1       5.020  33.490  65.111  1.00  0.00     0.014 A 
HETATM    4  C   UNL     1       6.125  33.878  65.878  1.00  0.00    -0.023 A 
HETATM    5  C   UNL     1       7.394  33.826  65.290  1.00  0.00     0.014 A 
HETATM    6  C   UNL     1       7.552  33.387  63.970  1.00  0.00     0.030 A 
ENDROOT
BRANCH   1   7
HETATM    7  N   UNL     1       6.693  32.512  61.912  1.00  0.00    -0.303 N 
HETATM    8  C   UNL     1       7.503  31.484  61.519  1.00  0.00     0.365 C 
HETATM    9  O   UNL     1       8.139  30.719  62.228  1.00  0.00    -0.238 OA
HETATM   10  H   UNL     1       6.269  33.005  61.139  1.00  0.00     0.171 HD
BRANCH   8  11
HETATM   11  O   UNL     1       7.516  31.462  60.162  1.00  0.00    -0.299 OA
BRANCH  11  12
HETATM   12  C   UNL     1       8.726  31.904  59.534  1.00  0.00     0.219 C 
BRANCH  12  13
HETATM   13  C   UNL     1       9.198  30.857  58.559  1.00  0.00    -0.034 A 
HETATM   14  C   UNL     1       8.404  29.739  58.269  1.00  0.00     0.009 A 
HETATM   15  C   UNL     1       8.844  28.776  57.359  1.00  0.00     0.001 A 
HETATM   16  C   UNL     1      10.083  28.918  56.738  1.00  0.00     0.000 A 
HETATM   17  C   UNL     1      10.887  30.019  57.031  1.00  0.00     0.001 A 
HETATM   18  C   UNL     1      10.449  30.982  57.940  1.00  0.00     0.009 A 
ENDBRANCH  12  13
ENDBRANCH  11  12
ENDBRANCH   8  11
ENDBRANCH   1   7
BRANCH   4  19
HETATM   19  C   UNL     1       5.974  34.306  67.257  1.00  0.00     0.010 A 
HETATM   20  C   UNL     1       6.933  34.469  68.286  1.00  0.00     0.152 A 
HETATM   21  N   UNL     1       6.396  34.890  69.435  1.00  0.00    -0.187 NA
HETATM   22  N   UNL     1       5.090  34.998  69.148  1.00  0.00    -0.289 N 
HETATM   23  H   UNL     1       4.461  35.309  69.881  1.00  0.00     0.188 HD
HETATM   24  C   UNL     1       4.785  34.662  67.860  1.00  0.00     0.123 A 
ENDBRANCH   4  19
TORSDOF 5
ENDMDL
MODEL 9
REMARK VINA RESULT:      -7.9      5.077     11.261
REMARK  5 active torsions:
REMARK  status: ('A' for Active; 'I' for Inactive)
REMARK       I    between atoms: C_2  and  N_3 
REMARK    1  A    between atoms: C_2  and  O_16 
REMARK    2  A    between atoms: N_3  and  C_4 
REMARK    3  A    between atoms: C_7  and  C_10 
REMARK    4  A    between atoms: O_16  and  C_17 
REMARK    5  A    between atoms: C_17  and  C_18 
ROOT
HETATM    1  C   UNL     1       7.308  31.584  62.477  1.00  0.00     0.036 A 
HETATM    2  C   UNL     1       8.034  32.387  63.355  1.00  0.00     0.030 A 
HETATM    3  C   UNL     1       7.376  33.169  64.314  1.00  0.00     0.014 A 
HETATM    4  C   UNL     1       5.980  33.165  64.411  1.00  0.00    -0.023 A 
HETATM    5  C   UNL     1       5.255  32.347  63.538  1.00  0.00     0.014 A 
HETATM    6  C   UNL     1       5.913  31.562  62.583  1.00  0.00     0.030 A 
ENDROOT
BRANCH   1   7
HETATM    7  N   UNL     1       7.890  30.802  61.465  1.00  0.00    -0.303 N 
HETATM    8  C   UNL     1       8.244  31.177  60.199  1.00  0.00     0.365 C 
HETATM    9  O   UNL     1       8.180  32.291  59.703  1.00  0.00    -0.238 OA
HETATM   10  H   UNL     1       8.037  29.819  61.646  1.00  0.00     0.171 HD
BRANCH   8  11
HETATM   11  O   UNL     1       8.667  30.067  59.541  1.00  0.00    -0.299 OA
BRANCH  11  12
HETATM   12  C   UNL     1       8.537  30.090  58.114  1.00  0.00     0.219 C 
BRANCH  12  13
HETATM   13  C   UNL     1       7.660  28.949  57.670  1.00  0.00    -0.034 A 
HETATM   14  C   UNL     1       8.210  27.688  57.399  1.00  0.00     0.009 A 
HETATM   15  C   UNL     1       7.390  26.632  56.994  1.00  0.00     0.001 A 
HETATM   16  C   UNL     1       6.019  26.830  56.849  1.00  0.00     0.000 A 
HETATM   17  C   UNL     1       5.465  28.085  57.100  1.00  0.00     0.001 A 
HETATM   18  C   UNL     1       6.283  29.141  57.504  1.00  0.00     0.009 A 
ENDBRANCH  12  13
ENDBRANCH  11  12
ENDBRANCH   8  11
ENDBRANCH   1   7
BRANCH   4  19
HETATM   19  C   UNL     1       5.288  33.999  65.378  1.00  0.00     0.010 A 
HETATM   20  C   UNL     1       5.707  34.502  66.633  1.00  0.00     0.152 A 
HETATM   21  N   UNL     1       4.774  35.248  67.232  1.00  0.00    -0.187 NA
HETATM   22  N   UNL     1       3.752  35.225  66.362  1.00  0.00    -0.289 N 
HETATM   23  H   UNL     1       2.906  35.733  66.601  1.00  0.00     0.188 HD
HETATM   24  C   UNL     1       4.008  34.495  65.238  1.00  0.00     0.123 A 
ENDBRANCH   4  19
TORSDOF 5
ENDMDL
MODEL 10
REMARK VINA RESULT:      -7.8      2.955      9.073
REMARK  5 active torsions:
REMARK  status: ('A' for Active; 'I' for Inactive)
REMARK       I    between atoms: C_2  and  N_3 
REMARK    1  A    between atoms: C_2  and  O_16 
REMARK    2  A    between atoms: N_3  and  C_4 
REMARK    3  A    between atoms: C_7  and  C_10 
REMARK    4  A    between atoms: O_16  and  C_17 
REMARK    5  A    between atoms: C_17  and  C_18 
ROOT
HETATM    1  C   UNL     1       6.671  28.433  56.463  1.00  0.00     0.036 A 
HETATM    2  C   UNL     1       5.925  29.569  56.776  1.00  0.00     0.030 A 
HETATM    3  C   UNL     1       6.336  30.430  57.802  1.00  0.00     0.014 A 
HETATM    4  C   UNL     1       7.500  30.171  58.535  1.00  0.00    -0.023 A 
HETATM    5  C   UNL     1       8.253  29.038  58.210  1.00  0.00     0.014 A 
HETATM    6  C   UNL     1       7.845  28.180  57.181  1.00  0.00     0.030 A 
ENDROOT
BRANCH   1   7
HETATM    7  N   UNL     1       6.305  27.502  55.476  1.00  0.00    -0.303 N 
HETATM    8  C   UNL     1       6.809  27.360  54.213  1.00  0.00     0.365 C 
HETATM    9  O   UNL     1       7.726  27.981  53.699  1.00  0.00    -0.238 OA
HETATM   10  H   UNL     1       5.543  26.870  55.675  1.00  0.00     0.171 HD
BRANCH   8  11
HETATM   11  O   UNL     1       6.081  26.403  53.582  1.00  0.00    -0.299 OA
BRANCH  11  12
HETATM   12  C   UNL     1       5.699  25.273  54.377  1.00  0.00     0.219 C 
BRANCH  12  13
HETATM   13  C   UNL     1       6.749  24.200  54.264  1.00  0.00    -0.034 A 
HETATM   14  C   UNL     1       7.469  23.782  55.393  1.00  0.00     0.009 A 
HETATM   15  C   UNL     1       8.437  22.782  55.283  1.00  0.00     0.001 A 
HETATM   16  C   UNL     1       8.700  22.198  54.046  1.00  0.00     0.000 A 
HETATM   17  C   UNL     1       8.001  22.618  52.914  1.00  0.00     0.001 A 
HETATM   18  C   UNL     1       7.033  23.617  53.023  1.00  0.00     0.009 A 
ENDBRANCH  12  13
ENDBRANCH  11  12
ENDBRANCH   8  11
ENDBRANCH   1   7
BRANCH   4  19
HETATM   19  C   UNL     1       7.914  31.038  59.624  1.00  0.00     0.010 A 
HETATM   20  C   UNL     1       8.991  30.928  60.536  1.00  0.00     0.152 A 
HETATM   21  N   UNL     1       9.046  31.943  61.402  1.00  0.00    -0.187 NA
HETATM   22  N   UNL     1       8.002  32.710  61.049  1.00  0.00    -0.289 N 
HETATM   23  H   UNL     1       7.832  33.561  61.575  1.00  0.00     0.188 HD
HETATM   24  C   UNL     1       7.295  32.215  59.992  1.00  0.00     0.123 A 
ENDBRANCH   4  19
TORSDOF 5
ENDMDL
