MODEL 1
REMARK VINA RESULT:      -7.6      0.000      0.000
REMARK  2 active torsions:
REMARK  status: ('A' for Active; 'I' for Inactive)
REMARK    1  A    between atoms: C_8  and  N_9 
REMARK       I    between atoms: N_9  and  C_10 
REMARK       I    between atoms: C_10  and  N_11 
REMARK    2  A    between atoms: N_11  and  C_12 
ROOT
HETATM    1  N   UNL     1       9.835  30.025  57.287  1.00  0.00    -0.309 N 
HETATM    2  C   UNL     1       9.780  31.040  58.184  1.00  0.00     0.321 C 
HETATM    3  N   UNL     1       8.775  31.026  59.099  1.00  0.00    -0.337 N 
HETATM    4  O   UNL     1      10.656  31.906  58.197  1.00  0.00    -0.247 OA
HETATM    5  H   UNL     1      10.735  29.978  56.817  1.00  0.00     0.170 HD
HETATM    6  H   UNL     1       8.379  30.107  59.267  1.00  0.00     0.164 HD
ENDROOT
BRANCH   1   7
HETATM    7  C   UNL     1       8.860  29.126  56.807  1.00  0.00     0.037 A 
HETATM    8  C   UNL     1       8.469  29.041  55.464  1.00  0.00     0.051 A 
HETATM    9  C   UNL     1       7.519  28.065  55.099  1.00  0.00     0.037 A 
HETATM   10  S   UNL     1       6.861  27.722  53.543  1.00  0.00    -0.073 SA
HETATM   11  C   UNL     1       6.967  27.181  56.024  1.00  0.00     0.075 A 
HETATM   12  C   UNL     1       5.919  26.456  54.218  1.00  0.00     0.072 A 
HETATM   13  C   UNL     1       5.021  25.633  53.360  1.00  0.00     0.079 C 
HETATM   14  N   UNL     1       6.056  26.279  55.513  1.00  0.00    -0.245 NA
HETATM   15  C   UNL     1       7.382  27.267  57.365  1.00  0.00     0.035 A 
HETATM   16  C   UNL     1       8.327  28.230  57.740  1.00  0.00     0.032 A 
ENDBRANCH   1   7
BRANCH   3  17
HETATM   17  C   UNL     1       8.491  32.063  60.099  1.00  0.00     0.113 C 
HETATM   18  C   UNL     1       7.058  32.094  60.646  1.00  0.00     0.257 C 
HETATM   19  N   UNL     1       7.089  31.078  61.744  1.00  0.00    -0.073 N 
HETATM   20  H   UNL     1       6.332  31.164  62.431  1.00  0.00     0.277 HD
HETATM   21  H   UNL     1       6.967  30.155  61.272  1.00  0.00     0.277 HD
HETATM   22  C   UNL     1       8.464  31.067  62.327  1.00  0.00     0.234 C 
HETATM   23  C   UNL     1       9.320  31.885  61.369  1.00  0.00     0.054 C 
ENDBRANCH   3  17
TORSDOF 2
ENDMDL
MODEL 2
REMARK VINA RESULT:      -7.5      3.973      5.890
REMARK  2 active torsions:
REMARK  status: ('A' for Active; 'I' for Inactive)
REMARK    1  A    between atoms: C_8  and  N_9 
REMARK       I    between atoms: N_9  and  C_10 
REMARK       I    between atoms: C_10  and  N_11 
REMARK    2  A    between atoms: N_11  and  C_12 
ROOT
HETATM    1  N   UNL     1       5.264  26.166  54.258  1.00  0.00    -0.309 N 
HETATM    2  C   UNL     1       5.343  27.396  54.825  1.00  0.00     0.321 C 
HETATM    3  N   UNL     1       6.568  27.837  55.217  1.00  0.00    -0.337 N 
HETATM    4  O   UNL     1       4.340  28.104  54.917  1.00  0.00    -0.247 OA
HETATM    5  H   UNL     1       4.380  26.023  53.777  1.00  0.00     0.170 HD
HETATM    6  H   UNL     1       7.344  27.387  54.742  1.00  0.00     0.164 HD
ENDROOT
BRANCH   1   7
HETATM    7  C   UNL     1       6.104  25.035  54.319  1.00  0.00     0.037 A 
HETATM    8  C   UNL     1       6.615  24.504  55.511  1.00  0.00     0.051 A 
HETATM    9  C   UNL     1       7.404  23.337  55.446  1.00  0.00     0.037 A 
HETATM   10  S   UNL     1       8.152  22.462  56.729  1.00  0.00    -0.073 SA
HETATM   11  C   UNL     1       7.682  22.694  54.242  1.00  0.00     0.075 A 
HETATM   12  C   UNL     1       8.768  21.327  55.599  1.00  0.00     0.072 A 
HETATM   13  C   UNL     1       9.587  20.168  56.050  1.00  0.00     0.079 C 
HETATM   14  N   UNL     1       8.463  21.559  54.341  1.00  0.00    -0.245 NA
HETATM   15  C   UNL     1       7.148  23.228  53.055  1.00  0.00     0.035 A 
HETATM   16  C   UNL     1       6.360  24.385  53.108  1.00  0.00     0.032 A 
ENDBRANCH   1   7
BRANCH   3  17
HETATM   17  C   UNL     1       6.859  29.095  55.917  1.00  0.00     0.113 C 
HETATM   18  C   UNL     1       6.458  29.147  57.398  1.00  0.00     0.257 C 
HETATM   19  N   UNL     1       7.627  28.519  58.090  1.00  0.00    -0.073 N 
HETATM   20  H   UNL     1       7.700  28.733  59.091  1.00  0.00     0.277 HD
HETATM   21  H   UNL     1       7.477  27.489  58.010  1.00  0.00     0.277 HD
HETATM   22  C   UNL     1       8.855  28.822  57.296  1.00  0.00     0.234 C 
HETATM   23  C   UNL     1       8.355  29.393  55.974  1.00  0.00     0.054 C 
ENDBRANCH   3  17
TORSDOF 2
ENDMDL
MODEL 3
REMARK VINA RESULT:      -7.3      5.282      7.890
REMARK  2 active torsions:
REMARK  status: ('A' for Active; 'I' for Inactive)
REMARK    1  A    between atoms: C_8  and  N_9 
REMARK       I    between atoms: N_9  and  C_10 
REMARK       I    between atoms: C_10  and  N_11 
REMARK    2  A    between atoms: N_11  and  C_12 
ROOT
HETATM    1  N   UNL     1       4.855  32.754  63.801  1.00  0.00    -0.309 N 
HETATM    2  C   UNL     1       4.273  33.902  64.226  1.00  0.00     0.321 C 
HETATM    3  N   UNL     1       4.526  35.040  63.527  1.00  0.00    -0.337 N 
HETATM    4  O   UNL     1       3.493  33.888  65.179  1.00  0.00    -0.247 OA
HETATM    5  H   UNL     1       4.424  31.931  64.215  1.00  0.00     0.170 HD
HETATM    6  H   UNL     1       4.821  34.882  62.569  1.00  0.00     0.164 HD
ENDROOT
BRANCH   1   7
HETATM    7  C   UNL     1       5.997  32.501  63.013  1.00  0.00     0.037 A 
HETATM    8  C   UNL     1       5.953  32.221  61.641  1.00  0.00     0.051 A 
HETATM    9  C   UNL     1       7.169  32.036  60.952  1.00  0.00     0.037 A 
HETATM   10  S   UNL     1       7.427  31.693  59.282  1.00  0.00    -0.073 SA
HETATM   11  C   UNL     1       8.406  32.133  61.586  1.00  0.00     0.075 A 
HETATM   12  C   UNL     1       9.124  31.701  59.540  1.00  0.00     0.072 A 
HETATM   13  C   UNL     1      10.068  31.460  58.414  1.00  0.00     0.079 C 
HETATM   14  N   UNL     1       9.506  31.933  60.777  1.00  0.00    -0.245 NA
HETATM   15  C   UNL     1       8.435  32.432  62.960  1.00  0.00     0.035 A 
HETATM   16  C   UNL     1       7.233  32.620  63.655  1.00  0.00     0.032 A 
ENDBRANCH   1   7
BRANCH   3  17
HETATM   17  C   UNL     1       4.062  36.392  63.863  1.00  0.00     0.113 C 
HETATM   18  C   UNL     1       4.926  37.168  64.867  1.00  0.00     0.257 C 
HETATM   19  N   UNL     1       5.990  37.772  64.007  1.00  0.00    -0.073 N 
HETATM   20  H   UNL     1       6.482  38.569  64.427  1.00  0.00     0.277 HD
HETATM   21  H   UNL     1       6.698  37.018  63.869  1.00  0.00     0.277 HD
HETATM   22  C   UNL     1       5.402  38.040  62.661  1.00  0.00     0.234 C 
HETATM   23  C   UNL     1       4.059  37.321  62.652  1.00  0.00     0.054 C 
ENDBRANCH   3  17
TORSDOF 2
ENDMDL
MODEL 4
REMARK VINA RESULT:      -7.1      2.737      6.948
REMARK  2 active torsions:
REMARK  status: ('A' for Active; 'I' for Inactive)
REMARK    1  A    between atoms: C_8  and  N_9 
REMARK       I    between atoms: N_9  and  C_10 
REMARK       I    between atoms: C_10  and  N_11 
REMARK    2  A    between atoms: N_11  and  C_12 
ROOT
HETATM    1  N   UNL     1       9.906  31.583  58.893  1.00  0.00    -0.309 N 
HETATM    2  C   UNL     1       9.938  30.503  58.073  1.00  0.00     0.321 C 
HETATM    3  N   UNL     1       8.795  29.781  57.928  1.00  0.00    -0.337 N 
HETATM    4  O   UNL     1      10.958  30.235  57.437  1.00  0.00    -0.247 OA
HETATM    5  H   UNL     1      10.704  32.195  58.750  1.00  0.00     0.170 HD
HETATM    6  H   UNL     1       7.948  30.295  58.146  1.00  0.00     0.164 HD
ENDROOT
BRANCH   1   7
HETATM    7  C   UNL     1       9.061  31.938  59.965  1.00  0.00     0.037 A 
HETATM    8  C   UNL     1       7.742  32.384  59.806  1.00  0.00     0.051 A 
HETATM    9  C   UNL     1       6.981  32.661  60.960  1.00  0.00     0.037 A 
HETATM   10  S   UNL     1       5.351  33.209  61.077  1.00  0.00    -0.073 SA
HETATM   11  C   UNL     1       7.492  32.496  62.246  1.00  0.00     0.075 A 
HETATM   12  C   UNL     1       5.461  33.182  62.789  1.00  0.00     0.072 A 
HETATM   13  C   UNL     1       4.297  33.565  63.635  1.00  0.00     0.079 C 
HETATM   14  N   UNL     1       6.623  32.802  63.274  1.00  0.00    -0.245 NA
HETATM   15  C   UNL     1       8.811  32.031  62.390  1.00  0.00     0.035 A 
HETATM   16  C   UNL     1       9.577  31.750  61.251  1.00  0.00     0.032 A 
ENDBRANCH   1   7
BRANCH   3  17
HETATM   17  C   UNL     1       8.638  28.541  57.156  1.00  0.00     0.113 C 
HETATM   18  C   UNL     1       7.561  27.570  57.657  1.00  0.00     0.257 C 
HETATM   19  N   UNL     1       6.310  28.093  57.026  1.00  0.00    -0.073 N 
HETATM   20  H   UNL     1       5.537  27.419  56.981  1.00  0.00     0.277 HD
HETATM   21  H   UNL     1       5.994  28.876  57.641  1.00  0.00     0.277 HD
HETATM   22  C   UNL     1       6.674  28.715  55.718  1.00  0.00     0.234 C 
HETATM   23  C   UNL     1       8.195  28.806  55.720  1.00  0.00     0.054 C 
ENDBRANCH   3  17
TORSDOF 2
ENDMDL
MODEL 5
REMARK VINA RESULT:      -7.0      6.171      8.762
REMARK  2 active torsions:
REMARK  status: ('A' for Active; 'I' for Inactive)
REMARK    1  A    between atoms: C_8  and  N_9 
REMARK       I    between atoms: N_9  and  C_10 
REMARK       I    between atoms: C_10  and  N_11 
REMARK    2  A    between atoms: N_11  and  C_12 
ROOT
HETATM    1  N   UNL     1       6.027  28.717  52.383  1.00  0.00    -0.309 N 
HETATM    2  C   UNL     1       5.597  29.085  51.150  1.00  0.00     0.321 C 
HETATM    3  N   UNL     1       4.806  28.216  50.467  1.00  0.00    -0.337 N 
HETATM    4  O   UNL     1       5.871  30.199  50.704  1.00  0.00    -0.247 OA
HETATM    5  H   UNL     1       6.391  29.504  52.912  1.00  0.00     0.170 HD
HETATM    6  H   UNL     1       4.319  27.547  51.054  1.00  0.00     0.164 HD
ENDROOT
BRANCH   1   7
HETATM    7  C   UNL     1       6.176  27.458  53.001  1.00  0.00     0.037 A 
HETATM    8  C   UNL     1       6.936  26.410  52.466  1.00  0.00     0.051 A 
HETATM    9  C   UNL     1       7.051  25.214  53.205  1.00  0.00     0.037 A 
HETATM   10  S   UNL     1       7.914  23.775  52.811  1.00  0.00    -0.073 SA
HETATM   11  C   UNL     1       6.442  25.047  54.447  1.00  0.00     0.075 A 
HETATM   12  C   UNL     1       7.416  23.068  54.294  1.00  0.00     0.072 A 
HETATM   13  C   UNL     1       7.846  21.691  54.664  1.00  0.00     0.079 C 
HETATM   14  N   UNL     1       6.652  23.823  55.051  1.00  0.00    -0.245 NA
HETATM   15  C   UNL     1       5.697  26.114  54.980  1.00  0.00     0.035 A 
HETATM   16  C   UNL     1       5.579  27.308  54.256  1.00  0.00     0.032 A 
ENDBRANCH   1   7
BRANCH   3  17
HETATM   17  C   UNL     1       4.303  28.386  49.098  1.00  0.00     0.113 C 
HETATM   18  C   UNL     1       5.336  28.209  47.976  1.00  0.00     0.257 C 
HETATM   19  N   UNL     1       5.354  26.728  47.760  1.00  0.00    -0.073 N 
HETATM   20  H   UNL     1       5.740  26.430  46.857  1.00  0.00     0.277 HD
HETATM   21  H   UNL     1       5.984  26.347  48.500  1.00  0.00     0.277 HD
HETATM   22  C   UNL     1       3.992  26.198  48.062  1.00  0.00     0.234 C 
HETATM   23  C   UNL     1       3.247  27.345  48.736  1.00  0.00     0.054 C 
ENDBRANCH   3  17
TORSDOF 2
ENDMDL
MODEL 6
REMARK VINA RESULT:      -6.9      6.462      8.614
REMARK  2 active torsions:
REMARK  status: ('A' for Active; 'I' for Inactive)
REMARK    1  A    between atoms: C_8  and  N_9 
REMARK       I    between atoms: N_9  and  C_10 
REMARK       I    between atoms: C_10  and  N_11 
REMARK    2  A    between atoms: N_11  and  C_12 
ROOT
HETATM    1  N   UNL     1       4.158  27.139  53.827  1.00  0.00    -0.309 N 
HETATM    2  C   UNL     1       3.878  28.049  52.863  1.00  0.00     0.321 C 
HETATM    3  N   UNL     1       4.203  27.737  51.580  1.00  0.00    -0.337 N 
HETATM    4  O   UNL     1       3.291  29.094  53.145  1.00  0.00    -0.247 OA
HETATM    5  H   UNL     1       3.667  27.337  54.695  1.00  0.00     0.170 HD
HETATM    6  H   UNL     1       4.289  26.741  51.404  1.00  0.00     0.164 HD
ENDROOT
BRANCH   1   7
HETATM    7  C   UNL     1       5.077  26.070  53.889  1.00  0.00     0.037 A 
HETATM    8  C   UNL     1       5.746  25.681  55.057  1.00  0.00     0.051 A 
HETATM    9  C   UNL     1       6.603  24.563  55.002  1.00  0.00     0.037 A 
HETATM   10  S   UNL     1       7.541  23.854  56.262  1.00  0.00    -0.073 SA
HETATM   11  C   UNL     1       6.797  23.831  53.832  1.00  0.00     0.075 A 
HETATM   12  C   UNL     1       8.113  22.661  55.169  1.00  0.00     0.072 A 
HETATM   13  C   UNL     1       9.054  21.599  55.622  1.00  0.00     0.079 C 
HETATM   14  N   UNL     1       7.661  22.760  53.938  1.00  0.00    -0.245 NA
HETATM   15  C   UNL     1       6.106  24.223  52.672  1.00  0.00     0.035 A 
HETATM   16  C   UNL     1       5.249  25.330  52.715  1.00  0.00     0.032 A 
ENDBRANCH   1   7
BRANCH   3  17
HETATM   17  C   UNL     1       4.058  28.608  50.406  1.00  0.00     0.113 C 
HETATM   18  C   UNL     1       5.365  29.111  49.778  1.00  0.00     0.257 C 
HETATM   19  N   UNL     1       5.759  27.990  48.868  1.00  0.00    -0.073 N 
HETATM   20  H   UNL     1       6.427  28.248  48.132  1.00  0.00     0.277 HD
HETATM   21  H   UNL     1       6.236  27.290  49.479  1.00  0.00     0.277 HD
HETATM   22  C   UNL     1       4.513  27.330  48.377  1.00  0.00     0.234 C 
HETATM   23  C   UNL     1       3.387  27.894  49.236  1.00  0.00     0.054 C 
ENDBRANCH   3  17
TORSDOF 2
ENDMDL
MODEL 7
REMARK VINA RESULT:      -6.8      4.500      6.439
REMARK  2 active torsions:
REMARK  status: ('A' for Active; 'I' for Inactive)
REMARK    1  A    between atoms: C_8  and  N_9 
REMARK       I    between atoms: N_9  and  C_10 
REMARK       I    between atoms: C_10  and  N_11 
REMARK    2  A    between atoms: N_11  and  C_12 
ROOT
HETATM    1  N   UNL     1       7.266  27.239  56.188  1.00  0.00    -0.309 N 
HETATM    2  C   UNL     1       6.783  28.302  55.498  1.00  0.00     0.321 C 
HETATM    3  N   UNL     1       5.944  28.056  54.457  1.00  0.00    -0.337 N 
HETATM    4  O   UNL     1       7.055  29.449  55.853  1.00  0.00    -0.247 OA
HETATM    5  H   UNL     1       7.670  27.513  57.079  1.00  0.00     0.170 HD
HETATM    6  H   UNL     1       5.473  27.158  54.506  1.00  0.00     0.164 HD
ENDROOT
BRANCH   1   7
HETATM    7  C   UNL     1       7.422  25.878  55.851  1.00  0.00     0.037 A 
HETATM    8  C   UNL     1       7.473  25.399  54.536  1.00  0.00     0.051 A 
HETATM    9  C   UNL     1       7.684  24.020  54.328  1.00  0.00     0.037 A 
HETATM   10  S   UNL     1       7.801  23.154  52.843  1.00  0.00    -0.073 SA
HETATM   11  C   UNL     1       7.851  23.126  55.384  1.00  0.00     0.075 A 
HETATM   12  C   UNL     1       8.057  21.696  53.710  1.00  0.00     0.072 A 
HETATM   13  C   UNL     1       8.269  20.408  52.993  1.00  0.00     0.079 C 
HETATM   14  N   UNL     1       8.054  21.810  55.020  1.00  0.00    -0.245 NA
HETATM   15  C   UNL     1       7.814  23.624  56.698  1.00  0.00     0.035 A 
HETATM   16  C   UNL     1       7.609  24.992  56.917  1.00  0.00     0.032 A 
ENDBRANCH   1   7
BRANCH   3  17
HETATM   17  C   UNL     1       5.377  29.052  53.539  1.00  0.00     0.113 C 
HETATM   18  C   UNL     1       5.389  28.678  52.051  1.00  0.00     0.257 C 
HETATM   19  N   UNL     1       4.145  27.862  51.895  1.00  0.00    -0.073 N 
HETATM   20  H   UNL     1       3.806  27.774  50.930  1.00  0.00     0.277 HD
HETATM   21  H   UNL     1       4.401  26.901  52.214  1.00  0.00     0.277 HD
HETATM   22  C   UNL     1       3.133  28.366  52.869  1.00  0.00     0.234 C 
HETATM   23  C   UNL     1       3.894  29.302  53.800  1.00  0.00     0.054 C 
ENDBRANCH   3  17
TORSDOF 2
ENDMDL
MODEL 8
REMARK VINA RESULT:      -6.8      2.346      2.610
REMARK  2 active torsions:
REMARK  status: ('A' for Active; 'I' for Inactive)
REMARK    1  A    between atoms: C_8  and  N_9 
REMARK       I    between atoms: N_9  and  C_10 
REMARK       I    between atoms: C_10  and  N_11 
REMARK    2  A    between atoms: N_11  and  C_12 
ROOT
HETATM    1  N   UNL     1       6.401  30.810  57.376  1.00  0.00    -0.309 N 
HETATM    2  C   UNL     1       6.487  31.707  58.388  1.00  0.00     0.321 C 
HETATM    3  N   UNL     1       7.448  31.513  59.330  1.00  0.00    -0.337 N 
HETATM    4  O   UNL     1       5.752  32.695  58.408  1.00  0.00    -0.247 OA
HETATM    5  H   UNL     1       5.841  31.158  56.603  1.00  0.00     0.170 HD
HETATM    6  H   UNL     1       8.228  30.945  59.017  1.00  0.00     0.164 HD
ENDROOT
BRANCH   1   7
HETATM    7  C   UNL     1       6.828  29.471  57.253  1.00  0.00     0.037 A 
HETATM    8  C   UNL     1       5.959  28.389  57.056  1.00  0.00     0.051 A 
HETATM    9  C   UNL     1       6.512  27.102  56.896  1.00  0.00     0.037 A 
HETATM   10  S   UNL     1       5.705  25.602  56.634  1.00  0.00    -0.073 SA
HETATM   11  C   UNL     1       7.886  26.874  56.919  1.00  0.00     0.075 A 
HETATM   12  C   UNL     1       7.218  24.795  56.574  1.00  0.00     0.072 A 
HETATM   13  C   UNL     1       7.291  23.325  56.342  1.00  0.00     0.079 C 
HETATM   14  N   UNL     1       8.273  25.561  56.742  1.00  0.00    -0.245 NA
HETATM   15  C   UNL     1       8.746  27.972  57.100  1.00  0.00     0.035 A 
HETATM   16  C   UNL     1       8.210  29.256  57.256  1.00  0.00     0.032 A 
ENDBRANCH   1   7
BRANCH   3  17
HETATM   17  C   UNL     1       7.658  32.317  60.542  1.00  0.00     0.113 C 
HETATM   18  C   UNL     1       6.643  32.104  61.673  1.00  0.00     0.257 C 
HETATM   19  N   UNL     1       7.185  30.913  62.398  1.00  0.00    -0.073 N 
HETATM   20  H   UNL     1       6.834  30.795  63.355  1.00  0.00     0.277 HD
HETATM   21  H   UNL     1       6.861  30.084  61.852  1.00  0.00     0.277 HD
HETATM   22  C   UNL     1       8.673  30.933  62.277  1.00  0.00     0.234 C 
HETATM   23  C   UNL     1       8.982  31.995  61.228  1.00  0.00     0.054 C 
ENDBRANCH   3  17
TORSDOF 2
ENDMDL
MODEL 9
REMARK VINA RESULT:      -6.8      5.986      7.837
REMARK  2 active torsions:
REMARK  status: ('A' for Active; 'I' for Inactive)
REMARK    1  A    between atoms: C_8  and  N_9 
REMARK       I    between atoms: N_9  and  C_10 
REMARK       I    between atoms: C_10  and  N_11 
REMARK    2  A    between atoms: N_11  and  C_12 
ROOT
HETATM    1  N   UNL     1       6.507  25.681  55.264  1.00  0.00    -0.309 N 
HETATM    2  C   UNL     1       7.294  24.724  55.813  1.00  0.00     0.321 C 
HETATM    3  N   UNL     1       8.099  24.009  54.982  1.00  0.00    -0.337 N 
HETATM    4  O   UNL     1       7.315  24.560  57.034  1.00  0.00    -0.247 OA
HETATM    5  H   UNL     1       6.137  26.320  55.963  1.00  0.00     0.170 HD
HETATM    6  H   UNL     1       8.311  24.475  54.107  1.00  0.00     0.164 HD
ENDROOT
BRANCH   1   7
HETATM    7  C   UNL     1       6.016  25.874  53.956  1.00  0.00     0.037 A 
HETATM    8  C   UNL     1       6.101  27.088  53.260  1.00  0.00     0.051 A 
HETATM    9  C   UNL     1       5.619  27.141  51.937  1.00  0.00     0.037 A 
HETATM   10  S   UNL     1       5.598  28.474  50.844  1.00  0.00    -0.073 SA
HETATM   11  C   UNL     1       5.072  26.030  51.299  1.00  0.00     0.075 A 
HETATM   12  C   UNL     1       4.879  27.482  49.643  1.00  0.00     0.072 A 
HETATM   13  C   UNL     1       4.555  28.028  48.295  1.00  0.00     0.079 C 
HETATM   14  N   UNL     1       4.649  26.238  50.001  1.00  0.00    -0.245 NA
HETATM   15  C   UNL     1       5.009  24.814  52.003  1.00  0.00     0.035 A 
HETATM   16  C   UNL     1       5.487  24.748  53.318  1.00  0.00     0.032 A 
ENDBRANCH   1   7
BRANCH   3  17
HETATM   17  C   UNL     1       8.963  22.883  55.360  1.00  0.00     0.113 C 
HETATM   18  C   UNL     1       8.404  21.938  56.432  1.00  0.00     0.257 C 
HETATM   19  N   UNL     1       7.556  20.991  55.642  1.00  0.00    -0.073 N 
HETATM   20  H   UNL     1       7.342  20.106  56.117  1.00  0.00     0.277 HD
HETATM   21  H   UNL     1       6.647  21.485  55.499  1.00  0.00     0.277 HD
HETATM   22  C   UNL     1       8.164  20.842  54.287  1.00  0.00     0.234 C 
HETATM   23  C   UNL     1       9.222  21.935  54.192  1.00  0.00     0.054 C 
ENDBRANCH   3  17
TORSDOF 2
ENDMDL
MODEL 10
REMARK VINA RESULT:      -6.7      3.921      7.891
REMARK  2 active torsions:
REMARK  status: ('A' for Active; 'I' for Inactive)
REMARK    1  A    between atoms: C_8  and  N_9 
REMARK       I    between atoms: N_9  and  C_10 
REMARK       I    between atoms: C_10  and  N_11 
REMARK    2  A    between atoms: N_11  and  C_12 
ROOT
HETATM    1  N   UNL     1       6.953  26.127  53.766  1.00  0.00    -0.309 N 
HETATM    2  C   UNL     1       7.444  24.973  53.251  1.00  0.00     0.321 C 
HETATM    3  N   UNL     1       8.026  24.091  54.107  1.00  0.00    -0.337 N 
HETATM    4  O   UNL     1       7.304  24.717  52.055  1.00  0.00    -0.247 OA
HETATM    5  H   UNL     1       6.328  26.600  53.119  1.00  0.00     0.170 HD
HETATM    6  H   UNL     1       7.732  24.194  55.073  1.00  0.00     0.164 HD
ENDROOT
BRANCH   1   7
HETATM    7  C   UNL     1       7.241  26.838  54.950  1.00  0.00     0.037 A 
HETATM    8  C   UNL     1       8.237  27.818  55.052  1.00  0.00     0.051 A 
HETATM    9  C   UNL     1       8.394  28.495  56.278  1.00  0.00     0.037 A 
HETATM   10  S   UNL     1       9.514  29.738  56.694  1.00  0.00    -0.073 SA
HETATM   11  C   UNL     1       7.588  28.229  57.383  1.00  0.00     0.075 A 
HETATM   12  C   UNL     1       8.847  29.815  58.273  1.00  0.00     0.072 A 
HETATM   13  C   UNL     1       9.374  30.779  59.278  1.00  0.00     0.079 C 
HETATM   14  N   UNL     1       7.860  28.979  58.510  1.00  0.00    -0.245 NA
HETATM   15  C   UNL     1       6.581  27.256  57.262  1.00  0.00     0.035 A 
HETATM   16  C   UNL     1       6.413  26.578  56.047  1.00  0.00     0.032 A 
ENDBRANCH   1   7
BRANCH   3  17
HETATM   17  C   UNL     1       8.685  22.830  53.745  1.00  0.00     0.113 C 
HETATM   18  C   UNL     1       9.643  22.248  54.793  1.00  0.00     0.257 C 
HETATM   19  N   UNL     1       8.732  21.484  55.701  1.00  0.00    -0.073 N 
HETATM   20  H   UNL     1       9.196  20.775  56.280  1.00  0.00     0.277 HD
HETATM   21  H   UNL     1       8.330  22.193  56.354  1.00  0.00     0.277 HD
HETATM   22  C   UNL     1       7.587  20.974  54.889  1.00  0.00     0.234 C 
HETATM   23  C   UNL     1       7.687  21.691  53.548  1.00  0.00     0.054 C 
ENDBRANCH   3  17
TORSDOF 2
ENDMDL
