MODEL 1
REMARK VINA RESULT:      -7.4      0.000      0.000
REMARK  2 active torsions:
REMARK  status: ('A' for Active; 'I' for Inactive)
REMARK    1  A    between atoms: N_6  and  C_7 
REMARK    2  A    between atoms: C_11  and  N_12 
ROOT
HETATM    1  C   UNL     1       7.609  24.161  55.333  1.00  0.00     0.048 A 
HETATM    2  C   UNL     1       7.804  23.983  53.940  1.00  0.00     0.040 A 
HETATM    3 BR   UNL     1       7.746  25.461  52.735  1.00  0.00    -0.049 Br
HETATM    4  C   UNL     1       8.100  22.731  53.392  1.00  0.00     0.057 A 
HETATM    5  C   UNL     1       8.209  21.625  54.239  1.00  0.00     0.104 A 
HETATM    6  C   UNL     1       8.023  21.768  55.618  1.00  0.00     0.038 A 
HETATM    7  C   UNL     1       7.724  23.026  56.154  1.00  0.00     0.033 A 
ENDROOT
BRANCH   1   8
HETATM    8  N   UNL     1       7.309  25.426  55.861  1.00  0.00    -0.377 N 
HETATM    9  C   UNL     1       5.860  25.691  55.984  1.00  0.00     0.150 C 
HETATM   10  C   UNL     1       5.628  27.211  56.110  1.00  0.00     0.254 C 
HETATM   11  N   UNL     1       6.440  27.789  57.275  1.00  0.00    -0.072 N 
HETATM   12  C   UNL     1       6.238  29.269  57.409  1.00  0.00     0.269 C 
HETATM   13  H   UNL     1       6.092  27.347  58.135  1.00  0.00     0.279 HD
HETATM   14  C   UNL     1       7.925  27.431  57.148  1.00  0.00     0.254 C 
HETATM   15  C   UNL     1       8.108  25.903  57.002  1.00  0.00     0.150 C 
ENDBRANCH   1   8
BRANCH   5  16
HETATM   16  N   UNL     1       8.527  20.306  53.677  1.00  0.00    -0.116 N 
HETATM   17  O   UNL     1       8.367  20.147  52.460  1.00  0.00    -0.532 OA
HETATM   18  O   UNL     1       8.933  19.435  54.458  1.00  0.00    -0.532 OA
ENDBRANCH   5  16
TORSDOF 2
ENDMDL
MODEL 2
REMARK VINA RESULT:      -7.3      1.703      2.187
REMARK  2 active torsions:
REMARK  status: ('A' for Active; 'I' for Inactive)
REMARK    1  A    between atoms: N_6  and  C_7 
REMARK    2  A    between atoms: C_11  and  N_12 
ROOT
HETATM    1  C   UNL     1       7.494  24.432  54.636  1.00  0.00     0.048 A 
HETATM    2  C   UNL     1       8.255  23.631  55.524  1.00  0.00     0.040 A 
HETATM    3 BR   UNL     1       8.765  24.273  57.246  1.00  0.00    -0.049 Br
HETATM    4  C   UNL     1       8.621  22.320  55.203  1.00  0.00     0.057 A 
HETATM    5  C   UNL     1       8.224  21.783  53.976  1.00  0.00     0.104 A 
HETATM    6  C   UNL     1       7.471  22.547  53.078  1.00  0.00     0.038 A 
HETATM    7  C   UNL     1       7.113  23.860  53.410  1.00  0.00     0.033 A 
ENDROOT
BRANCH   1   8
HETATM    8  N   UNL     1       7.140  25.746  54.977  1.00  0.00    -0.377 N 
HETATM    9  C   UNL     1       7.500  26.745  53.947  1.00  0.00     0.150 C 
HETATM   10  C   UNL     1       7.516  28.151  54.584  1.00  0.00     0.254 C 
HETATM   11  N   UNL     1       6.175  28.453  55.264  1.00  0.00    -0.072 N 
HETATM   12  C   UNL     1       6.173  29.812  55.899  1.00  0.00     0.269 C 
HETATM   13  H   UNL     1       5.456  28.449  54.530  1.00  0.00     0.279 HD
HETATM   14  C   UNL     1       5.805  27.358  56.270  1.00  0.00     0.254 C 
HETATM   15  C   UNL     1       5.823  25.967  55.596  1.00  0.00     0.150 C 
ENDBRANCH   1   8
BRANCH   5  16
HETATM   16  N   UNL     1       8.596  20.405  53.629  1.00  0.00    -0.116 N 
HETATM   17  O   UNL     1       8.511  20.069  52.441  1.00  0.00    -0.532 OA
HETATM   18  O   UNL     1       8.968  19.665  54.550  1.00  0.00    -0.532 OA
ENDBRANCH   5  16
TORSDOF 2
ENDMDL
MODEL 3
REMARK VINA RESULT:      -7.2      2.515      3.280
REMARK  2 active torsions:
REMARK  status: ('A' for Active; 'I' for Inactive)
REMARK    1  A    between atoms: N_6  and  C_7 
REMARK    2  A    between atoms: C_11  and  N_12 
ROOT
HETATM    1  C   UNL     1       7.112  24.192  53.910  1.00  0.00     0.048 A 
HETATM    2  C   UNL     1       7.230  23.785  55.262  1.00  0.00     0.040 A 
HETATM    3 BR   UNL     1       6.535  24.853  56.682  1.00  0.00    -0.049 Br
HETATM    4  C   UNL     1       7.810  22.562  55.615  1.00  0.00     0.057 A 
HETATM    5  C   UNL     1       8.285  21.718  54.608  1.00  0.00     0.104 A 
HETATM    6  C   UNL     1       8.182  22.091  53.264  1.00  0.00     0.038 A 
HETATM    7  C   UNL     1       7.601  23.319  52.924  1.00  0.00     0.033 A 
ENDROOT
BRANCH   1   8
HETATM    8  N   UNL     1       6.529  25.425  53.578  1.00  0.00    -0.377 N 
HETATM    9  C   UNL     1       7.514  26.491  53.293  1.00  0.00     0.150 C 
HETATM   10  C   UNL     1       6.824  27.867  53.409  1.00  0.00     0.254 C 
HETATM   11  N   UNL     1       5.593  27.935  52.498  1.00  0.00    -0.072 N 
HETATM   12  C   UNL     1       4.900  29.261  52.603  1.00  0.00     0.269 C 
HETATM   13  H   UNL     1       5.926  27.832  51.532  1.00  0.00     0.279 HD
HETATM   14  C   UNL     1       4.633  26.773  52.776  1.00  0.00     0.254 C 
HETATM   15  C   UNL     1       5.370  25.418  52.671  1.00  0.00     0.150 C 
ENDBRANCH   1   8
BRANCH   5  16
HETATM   16  N   UNL     1       8.890  20.429  54.964  1.00  0.00    -0.116 N 
HETATM   17  O   UNL     1       8.935  19.555  54.089  1.00  0.00    -0.532 OA
HETATM   18  O   UNL     1       9.315  20.296  56.121  1.00  0.00    -0.532 OA
ENDBRANCH   5  16
TORSDOF 2
ENDMDL
MODEL 4
REMARK VINA RESULT:      -6.4      9.148     11.072
REMARK  2 active torsions:
REMARK  status: ('A' for Active; 'I' for Inactive)
REMARK    1  A    between atoms: N_6  and  C_7 
REMARK    2  A    between atoms: C_11  and  N_12 
ROOT
HETATM    1  C   UNL     1       7.504  32.537  62.131  1.00  0.00     0.048 A 
HETATM    2  C   UNL     1       6.939  32.600  60.833  1.00  0.00     0.040 A 
HETATM    3 BR   UNL     1       5.213  33.359  60.541  1.00  0.00    -0.049 Br
HETATM    4  C   UNL     1       7.636  32.160  59.703  1.00  0.00     0.057 A 
HETATM    5  C   UNL     1       8.926  31.647  59.857  1.00  0.00     0.104 A 
HETATM    6  C   UNL     1       9.513  31.572  61.124  1.00  0.00     0.038 A 
HETATM    7  C   UNL     1       8.803  32.013  62.248  1.00  0.00     0.033 A 
ENDROOT
BRANCH   1   8
HETATM    8  N   UNL     1       6.785  32.980  63.251  1.00  0.00    -0.377 N 
HETATM    9  C   UNL     1       5.491  32.289  63.440  1.00  0.00     0.150 C 
HETATM   10  C   UNL     1       4.591  33.134  64.365  1.00  0.00     0.254 C 
HETATM   11  N   UNL     1       5.304  33.433  65.689  1.00  0.00    -0.072 N 
HETATM   12  C   UNL     1       4.450  34.264  66.601  1.00  0.00     0.269 C 
HETATM   13  H   UNL     1       5.472  32.532  66.153  1.00  0.00     0.279 HD
HETATM   14  C   UNL     1       6.671  34.083  65.448  1.00  0.00     0.254 C 
HETATM   15  C   UNL     1       7.529  33.215  64.500  1.00  0.00     0.150 C 
ENDBRANCH   1   8
BRANCH   5  16
HETATM   16  N   UNL     1       9.673  31.189  58.678  1.00  0.00    -0.116 N 
HETATM   17  O   UNL     1      10.509  31.962  58.192  1.00  0.00    -0.532 OA
HETATM   18  O   UNL     1       9.416  30.058  58.243  1.00  0.00    -0.532 OA
ENDBRANCH   5  16
TORSDOF 2
ENDMDL
MODEL 5
REMARK VINA RESULT:      -6.0      8.642     11.008
REMARK  2 active torsions:
REMARK  status: ('A' for Active; 'I' for Inactive)
REMARK    1  A    between atoms: N_6  and  C_7 
REMARK    2  A    between atoms: C_11  and  N_12 
ROOT
HETATM    1  C   UNL     1       7.305  31.624  60.439  1.00  0.00     0.048 A 
HETATM    2  C   UNL     1       7.524  31.398  61.821  1.00  0.00     0.040 A 
HETATM    3 BR   UNL     1       9.046  30.427  62.436  1.00  0.00    -0.049 Br
HETATM    4  C   UNL     1       6.668  31.919  62.797  1.00  0.00     0.057 A 
HETATM    5  C   UNL     1       5.569  32.685  62.401  1.00  0.00     0.104 A 
HETATM    6  C   UNL     1       5.326  32.926  61.044  1.00  0.00     0.038 A 
HETATM    7  C   UNL     1       6.188  32.397  60.077  1.00  0.00     0.033 A 
ENDROOT
BRANCH   1   8
HETATM    8  N   UNL     1       8.174  31.088  59.476  1.00  0.00    -0.377 N 
HETATM    9  C   UNL     1       7.486  30.322  58.415  1.00  0.00     0.150 C 
HETATM   10  C   UNL     1       8.506  29.405  57.706  1.00  0.00     0.254 C 
HETATM   11  N   UNL     1       9.692  30.220  57.178  1.00  0.00    -0.072 N 
HETATM   12  C   UNL     1      10.701  29.347  56.494  1.00  0.00     0.269 C 
HETATM   13  H   UNL     1       9.321  30.876  56.479  1.00  0.00     0.279 HD
HETATM   14  C   UNL     1      10.331  31.055  58.293  1.00  0.00     0.254 C 
HETATM   15  C   UNL     1       9.272  31.940  58.989  1.00  0.00     0.150 C 
ENDBRANCH   1   8
BRANCH   5  16
HETATM   16  N   UNL     1       4.667  33.244  63.415  1.00  0.00    -0.116 N 
HETATM   17  O   UNL     1       4.681  32.730  64.542  1.00  0.00    -0.532 OA
HETATM   18  O   UNL     1       3.947  34.194  63.079  1.00  0.00    -0.532 OA
ENDBRANCH   5  16
TORSDOF 2
ENDMDL
MODEL 6
REMARK VINA RESULT:      -5.9      4.202      6.227
REMARK  2 active torsions:
REMARK  status: ('A' for Active; 'I' for Inactive)
REMARK    1  A    between atoms: N_6  and  C_7 
REMARK    2  A    between atoms: C_11  and  N_12 
ROOT
HETATM    1  C   UNL     1       6.624  24.637  53.586  1.00  0.00     0.048 A 
HETATM    2  C   UNL     1       5.747  25.495  54.295  1.00  0.00     0.040 A 
HETATM    3 BR   UNL     1       5.515  25.335  56.182  1.00  0.00    -0.049 Br
HETATM    4  C   UNL     1       5.054  26.530  53.658  1.00  0.00     0.057 A 
HETATM    5  C   UNL     1       5.232  26.725  52.287  1.00  0.00     0.104 A 
HETATM    6  C   UNL     1       6.091  25.896  51.558  1.00  0.00     0.038 A 
HETATM    7  C   UNL     1       6.777  24.861  52.207  1.00  0.00     0.033 A 
ENDROOT
BRANCH   1   8
HETATM    8  N   UNL     1       7.306  23.603  54.244  1.00  0.00    -0.377 N 
HETATM    9  C   UNL     1       7.593  22.436  53.383  1.00  0.00     0.150 C 
HETATM   10  C   UNL     1       7.897  21.209  54.269  1.00  0.00     0.254 C 
HETATM   11  N   UNL     1       9.034  21.518  55.250  1.00  0.00    -0.072 N 
HETATM   12  C   UNL     1       9.339  20.342  56.129  1.00  0.00     0.269 C 
HETATM   13  H   UNL     1       9.872  21.715  54.690  1.00  0.00     0.279 HD
HETATM   14  C   UNL     1       8.730  22.775  56.073  1.00  0.00     0.254 C 
HETATM   15  C   UNL     1       8.410  23.971  55.147  1.00  0.00     0.150 C 
ENDBRANCH   1   8
BRANCH   5  16
HETATM   16  N   UNL     1       4.516  27.812  51.607  1.00  0.00    -0.116 N 
HETATM   17  O   UNL     1       4.447  27.769  50.371  1.00  0.00    -0.532 OA
HETATM   18  O   UNL     1       4.029  28.706  52.313  1.00  0.00    -0.532 OA
ENDBRANCH   5  16
TORSDOF 2
ENDMDL
MODEL 7
REMARK VINA RESULT:      -5.8      5.210      6.161
REMARK  2 active torsions:
REMARK  status: ('A' for Active; 'I' for Inactive)
REMARK    1  A    between atoms: N_6  and  C_7 
REMARK    2  A    between atoms: C_11  and  N_12 
ROOT
HETATM    1  C   UNL     1       5.486  27.644  52.138  1.00  0.00     0.048 A 
HETATM    2  C   UNL     1       5.192  26.301  51.795  1.00  0.00     0.040 A 
HETATM    3 BR   UNL     1       5.131  24.931  53.122  1.00  0.00    -0.049 Br
HETATM    4  C   UNL     1       4.881  25.926  50.484  1.00  0.00     0.057 A 
HETATM    5  C   UNL     1       4.858  26.901  49.485  1.00  0.00     0.104 A 
HETATM    6  C   UNL     1       5.142  28.236  49.790  1.00  0.00     0.038 A 
HETATM    7  C   UNL     1       5.454  28.598  51.106  1.00  0.00     0.033 A 
ENDROOT
BRANCH   1   8
HETATM    8  N   UNL     1       5.798  27.998  53.459  1.00  0.00    -0.377 N 
HETATM    9  C   UNL     1       7.250  28.033  53.738  1.00  0.00     0.150 C 
HETATM   10  C   UNL     1       7.479  27.958  55.263  1.00  0.00     0.254 C 
HETATM   11  N   UNL     1       6.707  29.070  55.982  1.00  0.00    -0.072 N 
HETATM   12  C   UNL     1       6.907  29.009  57.467  1.00  0.00     0.269 C 
HETATM   13  H   UNL     1       7.088  29.965  55.652  1.00  0.00     0.279 HD
HETATM   14  C   UNL     1       5.220  29.043  55.610  1.00  0.00     0.254 C 
HETATM   15  C   UNL     1       5.039  29.098  54.076  1.00  0.00     0.150 C 
ENDBRANCH   1   8
BRANCH   5  16
HETATM   16  N   UNL     1       4.526  26.522  48.105  1.00  0.00    -0.116 N 
HETATM   17  O   UNL     1       5.303  26.880  47.209  1.00  0.00    -0.532 OA
HETATM   18  O   UNL     1       3.488  25.871  47.925  1.00  0.00    -0.532 OA
ENDBRANCH   5  16
TORSDOF 2
ENDMDL
MODEL 8
REMARK VINA RESULT:      -5.5      4.158      4.924
REMARK  2 active torsions:
REMARK  status: ('A' for Active; 'I' for Inactive)
REMARK    1  A    between atoms: N_6  and  C_7 
REMARK    2  A    between atoms: C_11  and  N_12 
ROOT
HETATM    1  C   UNL     1       6.395  26.075  52.647  1.00  0.00     0.048 A 
HETATM    2  C   UNL     1       6.362  25.957  54.059  1.00  0.00     0.040 A 
HETATM    3 BR   UNL     1       5.215  27.056  55.117  1.00  0.00    -0.049 Br
HETATM    4  C   UNL     1       7.123  25.000  54.737  1.00  0.00     0.057 A 
HETATM    5  C   UNL     1       7.937  24.134  54.004  1.00  0.00     0.104 A 
HETATM    6  C   UNL     1       7.992  24.223  52.608  1.00  0.00     0.038 A 
HETATM    7  C   UNL     1       7.227  25.189  51.942  1.00  0.00     0.033 A 
ENDROOT
BRANCH   1   8
HETATM    8  N   UNL     1       5.626  27.046  51.988  1.00  0.00    -0.377 N 
HETATM    9  C   UNL     1       6.082  28.432  52.230  1.00  0.00     0.150 C 
HETATM   10  C   UNL     1       4.944  29.413  51.879  1.00  0.00     0.254 C 
HETATM   11  N   UNL     1       4.458  29.188  50.442  1.00  0.00    -0.072 N 
HETATM   12  C   UNL     1       3.342  30.124  50.084  1.00  0.00     0.269 C 
HETATM   13  H   UNL     1       5.249  29.392  49.820  1.00  0.00     0.279 HD
HETATM   14  C   UNL     1       4.063  27.725  50.213  1.00  0.00     0.254 C 
HETATM   15  C   UNL     1       5.223  26.778  50.597  1.00  0.00     0.150 C 
ENDBRANCH   1   8
BRANCH   5  16
HETATM   16  N   UNL     1       8.736  23.118  54.702  1.00  0.00    -0.116 N 
HETATM   17  O   UNL     1       9.004  22.077  54.088  1.00  0.00    -0.532 OA
HETATM   18  O   UNL     1       9.089  23.368  55.863  1.00  0.00    -0.532 OA
ENDBRANCH   5  16
TORSDOF 2
ENDMDL
MODEL 9
REMARK VINA RESULT:      -5.5     13.936     14.702
REMARK  2 active torsions:
REMARK  status: ('A' for Active; 'I' for Inactive)
REMARK    1  A    between atoms: N_6  and  C_7 
REMARK    2  A    between atoms: C_11  and  N_12 
ROOT
HETATM    1  C   UNL     1       3.437  34.931  63.189  1.00  0.00     0.048 A 
HETATM    2  C   UNL     1       3.831  35.836  62.173  1.00  0.00     0.040 A 
HETATM    3 BR   UNL     1       5.487  36.778  62.274  1.00  0.00    -0.049 Br
HETATM    4  C   UNL     1       3.055  36.041  61.027  1.00  0.00     0.057 A 
HETATM    5  C   UNL     1       1.860  35.334  60.879  1.00  0.00     0.104 A 
HETATM    6  C   UNL     1       1.443  34.432  61.864  1.00  0.00     0.038 A 
HETATM    7  C   UNL     1       2.228  34.238  63.007  1.00  0.00     0.033 A 
ENDROOT
BRANCH   1   8
HETATM    8  N   UNL     1       4.229  34.744  64.332  1.00  0.00    -0.377 N 
HETATM    9  C   UNL     1       3.517  35.015  65.600  1.00  0.00     0.150 C 
HETATM   10  C   UNL     1       4.549  35.245  66.725  1.00  0.00     0.254 C 
HETATM   11  N   UNL     1       5.514  34.058  66.826  1.00  0.00    -0.072 N 
HETATM   12  C   UNL     1       6.533  34.266  67.907  1.00  0.00     0.269 C 
HETATM   13  H   UNL     1       4.955  33.234  67.078  1.00  0.00     0.279 HD
HETATM   14  C   UNL     1       6.176  33.765  65.475  1.00  0.00     0.254 C 
HETATM   15  C   UNL     1       5.108  33.564  64.376  1.00  0.00     0.150 C 
ENDBRANCH   1   8
BRANCH   5  16
HETATM   16  N   UNL     1       1.040  35.533  59.677  1.00  0.00    -0.116 N 
HETATM   17  O   UNL     1       1.584  36.044  58.689  1.00  0.00    -0.532 OA
HETATM   18  O   UNL     1      -0.146  35.180  59.730  1.00  0.00    -0.532 OA
ENDBRANCH   5  16
TORSDOF 2
ENDMDL
MODEL 10
REMARK VINA RESULT:      -5.5      5.084      7.581
REMARK  2 active torsions:
REMARK  status: ('A' for Active; 'I' for Inactive)
REMARK    1  A    between atoms: N_6  and  C_7 
REMARK    2  A    between atoms: C_11  and  N_12 
ROOT
HETATM    1  C   UNL     1       5.892  27.621  55.719  1.00  0.00     0.048 A 
HETATM    2  C   UNL     1       6.647  28.245  56.743  1.00  0.00     0.040 A 
HETATM    3 BR   UNL     1       8.433  27.699  57.130  1.00  0.00    -0.049 Br
HETATM    4  C   UNL     1       6.141  29.321  57.481  1.00  0.00     0.057 A 
HETATM    5  C   UNL     1       4.858  29.796  57.199  1.00  0.00     0.104 A 
HETATM    6  C   UNL     1       4.087  29.202  56.193  1.00  0.00     0.038 A 
HETATM    7  C   UNL     1       4.605  28.124  55.464  1.00  0.00     0.033 A 
ENDROOT
BRANCH   1   8
HETATM    8  N   UNL     1       6.418  26.541  54.995  1.00  0.00    -0.377 N 
HETATM    9  C   UNL     1       5.830  25.235  55.363  1.00  0.00     0.150 C 
HETATM   10  C   UNL     1       6.764  24.102  54.888  1.00  0.00     0.254 C 
HETATM   11  N   UNL     1       7.046  24.226  53.386  1.00  0.00    -0.072 N 
HETATM   12  C   UNL     1       7.962  23.140  52.905  1.00  0.00     0.269 C 
HETATM   13  H   UNL     1       6.148  24.116  52.900  1.00  0.00     0.279 HD
HETATM   14  C   UNL     1       7.586  25.617  53.036  1.00  0.00     0.254 C 
HETATM   15  C   UNL     1       6.631  26.719  53.549  1.00  0.00     0.150 C 
ENDBRANCH   1   8
BRANCH   5  16
HETATM   16  N   UNL     1       4.317  30.929  57.960  1.00  0.00    -0.116 N 
HETATM   17  O   UNL     1       5.097  31.554  58.691  1.00  0.00    -0.532 OA
HETATM   18  O   UNL     1       3.113  31.187  57.824  1.00  0.00    -0.532 OA
ENDBRANCH   5  16
TORSDOF 2
ENDMDL
