MODEL 1
REMARK VINA RESULT:     -10.5      0.000      0.000
REMARK  4 active torsions:
REMARK  status: ('A' for Active; 'I' for Inactive)
REMARK    1  A    between atoms: C_4  and  N_5 
REMARK       I    between atoms: N_5  and  C_6 
REMARK       I    between atoms: C_6  and  N_7 
REMARK    2  A    between atoms: N_7  and  C_8 
REMARK    3  A    between atoms: C_8  and  C_9 
REMARK       I    between atoms: C_9  and  N_10 
REMARK    4  A    between atoms: N_10  and  C_11 
ROOT
HETATM    1  N   UNL     1       6.743  27.123  57.342  1.00  0.00    -0.307 N 
HETATM    2  C   UNL     1       7.685  28.111  57.451  1.00  0.00     0.321 C 
HETATM    3  N   UNL     1       7.193  29.186  58.158  1.00  0.00    -0.334 N 
HETATM    4  O   UNL     1       8.830  28.083  57.018  1.00  0.00    -0.247 OA
HETATM    5  H   UNL     1       6.070  27.056  58.100  1.00  0.00     0.170 HD
HETATM    6  H   UNL     1       6.216  29.387  57.989  1.00  0.00     0.164 HD
ENDROOT
BRANCH   3   7
HETATM    7  C   UNL     1       8.054  30.329  58.385  1.00  0.00     0.227 C 
BRANCH   7   8
HETATM    8  C   UNL     1       8.194  30.624  59.882  1.00  0.00     0.239 C 
HETATM    9  N   UNL     1       7.219  31.479  60.348  1.00  0.00    -0.324 N 
HETATM   10  H   UNL     1       6.421  31.667  59.734  1.00  0.00     0.169 HD
HETATM   11  O   UNL     1       9.067  30.077  60.552  1.00  0.00    -0.271 OA
BRANCH   9  12
HETATM   12  C   UNL     1       7.076  32.055  61.631  1.00  0.00     0.064 A 
HETATM   13  C   UNL     1       5.799  32.548  61.947  1.00  0.00     0.093 A 
HETATM   14  C   UNL     1       5.601  33.146  63.210  1.00  0.00    -0.005 A 
HETATM   15  N   UNL     1       4.793  32.454  61.044  1.00  0.00    -0.258 NA
HETATM   16  C   UNL     1       4.326  33.640  63.520  1.00  0.00     0.015 A 
HETATM   17  C   UNL     1       6.663  33.243  64.122  1.00  0.00     0.014 A 
HETATM   18  C   UNL     1       3.297  33.535  62.591  1.00  0.00     0.020 A 
HETATM   19  C   UNL     1       3.578  32.938  61.379  1.00  0.00     0.117 A 
HETATM   20  C   UNL     1       7.922  32.753  63.788  1.00  0.00     0.003 A 
HETATM   21  C   UNL     1       8.131  32.162  62.543  1.00  0.00     0.032 A 
ENDBRANCH   9  12
ENDBRANCH   7   8
ENDBRANCH   3   7
BRANCH   1  22
HETATM   22  C   UNL     1       6.844  25.940  56.570  1.00  0.00     0.066 A 
HETATM   23  C   UNL     1       7.564  24.823  57.011  1.00  0.00     0.038 A 
HETATM   24  C   UNL     1       7.674  23.687  56.205  1.00  0.00    -0.059 A 
HETATM   25  C   UNL     1       8.438  22.487  56.681  1.00  0.00     0.048 C 
HETATM   26  C   UNL     1       7.021  23.670  54.970  1.00  0.00     0.020 A 
HETATM   27  C   UNL     1       6.296  24.789  54.523  1.00  0.00    -0.005 A 
HETATM   28  C   UNL     1       6.213  25.952  55.318  1.00  0.00     0.093 A 
HETATM   29  C   UNL     1       5.634  24.783  53.288  1.00  0.00     0.015 A 
HETATM   30  N   UNL     1       5.529  27.050  54.909  1.00  0.00    -0.258 NA
HETATM   31  C   UNL     1       4.903  27.002  53.713  1.00  0.00     0.117 A 
HETATM   32  C   UNL     1       4.923  25.903  52.875  1.00  0.00     0.020 A 
ENDBRANCH   1  22
TORSDOF 4
ENDMDL
MODEL 2
REMARK VINA RESULT:     -10.4      2.893      5.046
REMARK  4 active torsions:
REMARK  status: ('A' for Active; 'I' for Inactive)
REMARK    1  A    between atoms: C_4  and  N_5 
REMARK       I    between atoms: N_5  and  C_6 
REMARK       I    between atoms: C_6  and  N_7 
REMARK    2  A    between atoms: N_7  and  C_8 
REMARK    3  A    between atoms: C_8  and  C_9 
REMARK       I    between atoms: C_9  and  N_10 
REMARK    4  A    between atoms: N_10  and  C_11 
ROOT
HETATM    1  N   UNL     1       5.021  26.899  55.831  1.00  0.00    -0.307 N 
HETATM    2  C   UNL     1       4.766  28.244  55.789  1.00  0.00     0.321 C 
HETATM    3  N   UNL     1       4.188  28.673  56.963  1.00  0.00    -0.334 N 
HETATM    4  O   UNL     1       5.019  29.009  54.867  1.00  0.00    -0.247 OA
HETATM    5  H   UNL     1       5.215  26.506  56.747  1.00  0.00     0.170 HD
HETATM    6  H   UNL     1       3.544  28.013  57.379  1.00  0.00     0.164 HD
ENDROOT
BRANCH   3   7
HETATM    7  C   UNL     1       3.855  30.075  57.108  1.00  0.00     0.227 C 
BRANCH   7   8
HETATM    8  C   UNL     1       5.118  30.928  57.269  1.00  0.00     0.239 C 
HETATM    9  N   UNL     1       6.015  30.384  58.162  1.00  0.00    -0.324 N 
HETATM   10  H   UNL     1       5.856  29.419  58.465  1.00  0.00     0.169 HD
HETATM   11  O   UNL     1       5.279  31.945  56.599  1.00  0.00    -0.271 OA
BRANCH   9  12
HETATM   12  C   UNL     1       7.232  30.921  58.642  1.00  0.00     0.064 A 
HETATM   13  C   UNL     1       8.395  30.516  57.963  1.00  0.00     0.093 A 
HETATM   14  C   UNL     1       9.640  31.010  58.407  1.00  0.00    -0.005 A 
HETATM   15  N   UNL     1       8.306  29.663  56.915  1.00  0.00    -0.258 NA
HETATM   16  C   UNL     1      10.797  30.602  57.730  1.00  0.00     0.015 A 
HETATM   17  C   UNL     1       9.706  31.883  59.505  1.00  0.00     0.014 A 
HETATM   18  C   UNL     1      10.699  29.731  56.651  1.00  0.00     0.020 A 
HETATM   19  C   UNL     1       9.442  29.295  56.285  1.00  0.00     0.117 A 
HETATM   20  C   UNL     1       8.543  32.266  60.167  1.00  0.00     0.003 A 
HETATM   21  C   UNL     1       7.307  31.784  59.739  1.00  0.00     0.032 A 
ENDBRANCH   9  12
ENDBRANCH   7   8
ENDBRANCH   3   7
BRANCH   1  22
HETATM   22  C   UNL     1       5.478  26.091  54.761  1.00  0.00     0.066 A 
HETATM   23  C   UNL     1       5.035  26.276  53.446  1.00  0.00     0.038 A 
HETATM   24  C   UNL     1       5.478  25.433  52.423  1.00  0.00    -0.059 A 
HETATM   25  C   UNL     1       5.010  25.637  51.012  1.00  0.00     0.048 C 
HETATM   26  C   UNL     1       6.401  24.429  52.728  1.00  0.00     0.020 A 
HETATM   27  C   UNL     1       6.849  24.240  54.047  1.00  0.00    -0.005 A 
HETATM   28  C   UNL     1       6.375  25.064  55.089  1.00  0.00     0.093 A 
HETATM   29  C   UNL     1       7.776  23.238  54.365  1.00  0.00     0.015 A 
HETATM   30  N   UNL     1       6.783  24.899  56.373  1.00  0.00    -0.258 NA
HETATM   31  C   UNL     1       7.680  23.923  56.636  1.00  0.00     0.117 A 
HETATM   32  C   UNL     1       8.203  23.077  55.677  1.00  0.00     0.020 A 
ENDBRANCH   1  22
TORSDOF 4
ENDMDL
MODEL 3
REMARK VINA RESULT:     -10.4      1.737      3.027
REMARK  4 active torsions:
REMARK  status: ('A' for Active; 'I' for Inactive)
REMARK    1  A    between atoms: C_4  and  N_5 
REMARK       I    between atoms: N_5  and  C_6 
REMARK       I    between atoms: C_6  and  N_7 
REMARK    2  A    between atoms: N_7  and  C_8 
REMARK    3  A    between atoms: C_8  and  C_9 
REMARK       I    between atoms: C_9  and  N_10 
REMARK    4  A    between atoms: N_10  and  C_11 
ROOT
HETATM    1  N   UNL     1       7.497  27.739  56.401  1.00  0.00    -0.307 N 
HETATM    2  C   UNL     1       8.487  28.677  56.262  1.00  0.00     0.321 C 
HETATM    3  N   UNL     1       8.982  29.057  57.490  1.00  0.00    -0.334 N 
HETATM    4  O   UNL     1       8.923  29.131  55.212  1.00  0.00    -0.247 OA
HETATM    5  H   UNL     1       7.566  27.129  57.210  1.00  0.00     0.170 HD
HETATM    6  H   UNL     1       8.288  29.108  58.225  1.00  0.00     0.164 HD
ENDROOT
BRANCH   3   7
HETATM    7  C   UNL     1      10.047  30.037  57.542  1.00  0.00     0.227 C 
BRANCH   7   8
HETATM    8  C   UNL     1       9.739  31.131  58.570  1.00  0.00     0.239 C 
HETATM    9  N   UNL     1       8.911  30.694  59.580  1.00  0.00    -0.324 N 
HETATM   10  H   UNL     1       8.749  29.685  59.656  1.00  0.00     0.169 HD
HETATM   11  O   UNL     1      10.257  32.242  58.478  1.00  0.00    -0.271 OA
BRANCH   9  12
HETATM   12  C   UNL     1       8.332  31.428  60.640  1.00  0.00     0.064 A 
HETATM   13  C   UNL     1       7.156  32.133  60.332  1.00  0.00     0.093 A 
HETATM   14  C   UNL     1       6.541  32.895  61.349  1.00  0.00    -0.005 A 
HETATM   15  N   UNL     1       6.643  32.081  59.079  1.00  0.00    -0.258 NA
HETATM   16  C   UNL     1       5.370  33.599  61.036  1.00  0.00     0.015 A 
HETATM   17  C   UNL     1       7.101  32.943  62.635  1.00  0.00     0.014 A 
HETATM   18  C   UNL     1       4.845  33.536  59.751  1.00  0.00     0.020 A 
HETATM   19  C   UNL     1       5.511  32.769  58.817  1.00  0.00     0.117 A 
HETATM   20  C   UNL     1       8.270  32.243  62.918  1.00  0.00     0.003 A 
HETATM   21  C   UNL     1       8.888  31.488  61.922  1.00  0.00     0.032 A 
ENDBRANCH   9  12
ENDBRANCH   7   8
ENDBRANCH   3   7
BRANCH   1  22
HETATM   22  C   UNL     1       6.669  27.225  55.374  1.00  0.00     0.066 A 
HETATM   23  C   UNL     1       5.630  27.975  54.810  1.00  0.00     0.038 A 
HETATM   24  C   UNL     1       4.808  27.419  53.826  1.00  0.00    -0.059 A 
HETATM   25  C   UNL     1       3.700  28.225  53.215  1.00  0.00     0.048 C 
HETATM   26  C   UNL     1       5.067  26.119  53.386  1.00  0.00     0.020 A 
HETATM   27  C   UNL     1       6.110  25.362  53.948  1.00  0.00    -0.005 A 
HETATM   28  C   UNL     1       6.918  25.906  54.969  1.00  0.00     0.093 A 
HETATM   29  C   UNL     1       6.381  24.058  53.513  1.00  0.00     0.015 A 
HETATM   30  N   UNL     1       7.925  25.196  55.537  1.00  0.00    -0.258 NA
HETATM   31  C   UNL     1       8.155  23.943  55.087  1.00  0.00     0.117 A 
HETATM   32  C   UNL     1       7.421  23.336  54.087  1.00  0.00     0.020 A 
ENDBRANCH   1  22
TORSDOF 4
ENDMDL
MODEL 4
REMARK VINA RESULT:     -10.2      1.263      2.243
REMARK  4 active torsions:
REMARK  status: ('A' for Active; 'I' for Inactive)
REMARK    1  A    between atoms: C_4  and  N_5 
REMARK       I    between atoms: N_5  and  C_6 
REMARK       I    between atoms: C_6  and  N_7 
REMARK    2  A    between atoms: N_7  and  C_8 
REMARK    3  A    between atoms: C_8  and  C_9 
REMARK       I    between atoms: C_9  and  N_10 
REMARK    4  A    between atoms: N_10  and  C_11 
ROOT
HETATM    1  N   UNL     1       6.750  27.651  57.462  1.00  0.00    -0.307 N 
HETATM    2  C   UNL     1       7.900  28.356  57.703  1.00  0.00     0.321 C 
HETATM    3  N   UNL     1       7.685  29.347  58.634  1.00  0.00    -0.334 N 
HETATM    4  O   UNL     1       8.999  28.157  57.201  1.00  0.00    -0.247 OA
HETATM    5  H   UNL     1       6.093  27.585  58.233  1.00  0.00     0.170 HD
HETATM    6  H   UNL     1       6.780  29.795  58.569  1.00  0.00     0.164 HD
ENDROOT
BRANCH   3   7
HETATM    7  C   UNL     1       8.794  30.193  59.026  1.00  0.00     0.227 C 
BRANCH   7   8
HETATM    8  C   UNL     1       8.301  31.565  59.498  1.00  0.00     0.239 C 
HETATM    9  N   UNL     1       7.134  31.488  60.226  1.00  0.00    -0.324 N 
HETATM   10  H   UNL     1       6.830  30.561  60.537  1.00  0.00     0.169 HD
HETATM   11  O   UNL     1       8.956  32.580  59.270  1.00  0.00    -0.271 OA
BRANCH   9  12
HETATM   12  C   UNL     1       6.332  32.534  60.738  1.00  0.00     0.064 A 
HETATM   13  C   UNL     1       6.627  32.953  62.047  1.00  0.00     0.093 A 
HETATM   14  C   UNL     1       5.851  33.985  62.614  1.00  0.00    -0.005 A 
HETATM   15  N   UNL     1       7.631  32.361  62.738  1.00  0.00    -0.258 NA
HETATM   16  C   UNL     1       6.146  34.398  63.922  1.00  0.00     0.015 A 
HETATM   17  C   UNL     1       4.807  34.572  61.882  1.00  0.00     0.014 A 
HETATM   18  C   UNL     1       7.181  33.791  64.623  1.00  0.00     0.020 A 
HETATM   19  C   UNL     1       7.888  32.788  63.993  1.00  0.00     0.117 A 
HETATM   20  C   UNL     1       4.527  34.138  60.589  1.00  0.00     0.003 A 
HETATM   21  C   UNL     1       5.286  33.119  60.017  1.00  0.00     0.032 A 
ENDBRANCH   9  12
ENDBRANCH   7   8
ENDBRANCH   3   7
BRANCH   1  22
HETATM   22  C   UNL     1       6.559  26.658  56.471  1.00  0.00     0.066 A 
HETATM   23  C   UNL     1       7.135  25.386  56.570  1.00  0.00     0.038 A 
HETATM   24  C   UNL     1       6.956  24.445  55.551  1.00  0.00    -0.059 A 
HETATM   25  C   UNL     1       7.565  23.079  55.661  1.00  0.00     0.048 C 
HETATM   26  C   UNL     1       6.159  24.782  54.454  1.00  0.00     0.020 A 
HETATM   27  C   UNL     1       5.579  26.058  54.350  1.00  0.00    -0.005 A 
HETATM   28  C   UNL     1       5.788  27.024  55.358  1.00  0.00     0.093 A 
HETATM   29  C   UNL     1       4.776  26.407  53.256  1.00  0.00     0.015 A 
HETATM   30  N   UNL     1       5.248  28.266  55.280  1.00  0.00    -0.258 NA
HETATM   31  C   UNL     1       4.478  28.561  54.210  1.00  0.00     0.117 A 
HETATM   32  C   UNL     1       4.213  27.676  53.183  1.00  0.00     0.020 A 
ENDBRANCH   1  22
TORSDOF 4
ENDMDL
MODEL 5
REMARK VINA RESULT:     -10.2      1.599      9.421
REMARK  4 active torsions:
REMARK  status: ('A' for Active; 'I' for Inactive)
REMARK    1  A    between atoms: C_4  and  N_5 
REMARK       I    between atoms: N_5  and  C_6 
REMARK       I    between atoms: C_6  and  N_7 
REMARK    2  A    between atoms: N_7  and  C_8 
REMARK    3  A    between atoms: C_8  and  C_9 
REMARK       I    between atoms: C_9  and  N_10 
REMARK    4  A    between atoms: N_10  and  C_11 
ROOT
HETATM    1  N   UNL     1       7.311  31.311  60.415  1.00  0.00    -0.307 N 
HETATM    2  C   UNL     1       8.341  31.401  59.516  1.00  0.00     0.321 C 
HETATM    3  N   UNL     1       8.586  30.182  58.923  1.00  0.00    -0.334 N 
HETATM    4  O   UNL     1       8.974  32.408  59.227  1.00  0.00    -0.247 OA
HETATM    5  H   UNL     1       6.601  30.612  60.218  1.00  0.00     0.170 HD
HETATM    6  H   UNL     1       8.472  29.386  59.537  1.00  0.00     0.164 HD
ENDROOT
BRANCH   3   7
HETATM    7  C   UNL     1       9.637  30.085  57.932  1.00  0.00     0.227 C 
BRANCH   7   8
HETATM    8  C   UNL     1       9.163  29.308  56.700  1.00  0.00     0.239 C 
HETATM    9  N   UNL     1       8.099  28.477  56.973  1.00  0.00    -0.324 N 
HETATM   10  H   UNL     1       7.623  28.597  57.872  1.00  0.00     0.169 HD
HETATM   11  O   UNL     1       9.679  29.498  55.600  1.00  0.00    -0.271 OA
BRANCH   9  12
HETATM   12  C   UNL     1       7.458  27.541  56.129  1.00  0.00     0.064 A 
HETATM   13  C   UNL     1       7.734  26.187  56.388  1.00  0.00     0.093 A 
HETATM   14  C   UNL     1       7.133  25.208  55.569  1.00  0.00    -0.005 A 
HETATM   15  N   UNL     1       8.570  25.847  57.400  1.00  0.00    -0.258 NA
HETATM   16  C   UNL     1       7.414  23.859  55.830  1.00  0.00     0.015 A 
HETATM   17  C   UNL     1       6.282  25.588  54.519  1.00  0.00     0.014 A 
HETATM   18  C   UNL     1       8.267  23.517  56.872  1.00  0.00     0.020 A 
HETATM   19  C   UNL     1       8.813  24.538  57.622  1.00  0.00     0.117 A 
HETATM   20  C   UNL     1       6.027  26.934  54.275  1.00  0.00     0.003 A 
HETATM   21  C   UNL     1       6.615  27.911  55.077  1.00  0.00     0.032 A 
ENDBRANCH   9  12
ENDBRANCH   7   8
ENDBRANCH   3   7
BRANCH   1  22
HETATM   22  C   UNL     1       6.877  32.321  61.308  1.00  0.00     0.066 A 
HETATM   23  C   UNL     1       7.409  32.454  62.597  1.00  0.00     0.038 A 
HETATM   24  C   UNL     1       6.926  33.438  63.464  1.00  0.00    -0.059 A 
HETATM   25  C   UNL     1       7.502  33.587  64.841  1.00  0.00     0.048 C 
HETATM   26  C   UNL     1       5.935  34.312  63.009  1.00  0.00     0.020 A 
HETATM   27  C   UNL     1       5.399  34.182  61.716  1.00  0.00    -0.005 A 
HETATM   28  C   UNL     1       5.856  33.166  60.851  1.00  0.00     0.093 A 
HETATM   29  C   UNL     1       4.406  35.054  61.248  1.00  0.00     0.015 A 
HETATM   30  N   UNL     1       5.350  33.011  59.601  1.00  0.00    -0.258 NA
HETATM   31  C   UNL     1       4.397  33.874  59.188  1.00  0.00     0.117 A 
HETATM   32  C   UNL     1       3.898  34.901  59.964  1.00  0.00     0.020 A 
ENDBRANCH   1  22
TORSDOF 4
ENDMDL
MODEL 6
REMARK VINA RESULT:     -10.1      1.363      3.219
REMARK  4 active torsions:
REMARK  status: ('A' for Active; 'I' for Inactive)
REMARK    1  A    between atoms: C_4  and  N_5 
REMARK       I    between atoms: N_5  and  C_6 
REMARK       I    between atoms: C_6  and  N_7 
REMARK    2  A    between atoms: N_7  and  C_8 
REMARK    3  A    between atoms: C_8  and  C_9 
REMARK       I    between atoms: C_9  and  N_10 
REMARK    4  A    between atoms: N_10  and  C_11 
ROOT
HETATM    1  N   UNL     1       7.100  27.676  57.375  1.00  0.00    -0.307 N 
HETATM    2  C   UNL     1       8.154  28.549  57.431  1.00  0.00     0.321 C 
HETATM    3  N   UNL     1       8.095  29.321  58.570  1.00  0.00    -0.334 N 
HETATM    4  O   UNL     1       9.062  28.655  56.616  1.00  0.00    -0.247 OA
HETATM    5  H   UNL     1       6.729  27.361  58.267  1.00  0.00     0.170 HD
HETATM    6  H   UNL     1       7.160  29.583  58.852  1.00  0.00     0.164 HD
ENDROOT
BRANCH   3   7
HETATM    7  C   UNL     1       9.137  30.299  58.808  1.00  0.00     0.227 C 
BRANCH   7   8
HETATM    8  C   UNL     1       8.553  31.602  59.364  1.00  0.00     0.239 C 
HETATM    9  N   UNL     1       7.336  31.417  59.982  1.00  0.00    -0.324 N 
HETATM   10  H   UNL     1       7.046  30.455  60.179  1.00  0.00     0.169 HD
HETATM   11  O   UNL     1       9.182  32.655  59.286  1.00  0.00    -0.271 OA
BRANCH   9  12
HETATM   12  C   UNL     1       6.454  32.382  60.521  1.00  0.00     0.064 A 
HETATM   13  C   UNL     1       6.721  32.794  61.839  1.00  0.00     0.093 A 
HETATM   14  C   UNL     1       5.866  33.746  62.433  1.00  0.00    -0.005 A 
HETATM   15  N   UNL     1       7.774  32.271  62.512  1.00  0.00    -0.258 NA
HETATM   16  C   UNL     1       6.134  34.151  63.748  1.00  0.00     0.015 A 
HETATM   17  C   UNL     1       4.773  34.261  61.718  1.00  0.00     0.014 A 
HETATM   18  C   UNL     1       7.219  33.616  64.431  1.00  0.00     0.020 A 
HETATM   19  C   UNL     1       8.003  32.689  63.775  1.00  0.00     0.117 A 
HETATM   20  C   UNL     1       4.522  33.835  60.417  1.00  0.00     0.003 A 
HETATM   21  C   UNL     1       5.359  32.895  59.819  1.00  0.00     0.032 A 
ENDBRANCH   9  12
ENDBRANCH   7   8
ENDBRANCH   3   7
BRANCH   1  22
HETATM   22  C   UNL     1       6.758  26.832  56.291  1.00  0.00     0.066 A 
HETATM   23  C   UNL     1       5.893  27.245  55.270  1.00  0.00     0.038 A 
HETATM   24  C   UNL     1       5.546  26.370  54.237  1.00  0.00    -0.059 A 
HETATM   25  C   UNL     1       4.626  26.814  53.139  1.00  0.00     0.048 C 
HETATM   26  C   UNL     1       6.110  25.091  54.218  1.00  0.00     0.020 A 
HETATM   27  C   UNL     1       6.980  24.673  55.240  1.00  0.00    -0.005 A 
HETATM   28  C   UNL     1       7.302  25.540  56.305  1.00  0.00     0.093 A 
HETATM   29  C   UNL     1       7.553  23.394  55.231  1.00  0.00     0.015 A 
HETATM   30  N   UNL     1       8.131  25.160  57.310  1.00  0.00    -0.258 NA
HETATM   31  C   UNL     1       8.665  23.920  57.262  1.00  0.00     0.117 A 
HETATM   32  C   UNL     1       8.412  23.010  56.254  1.00  0.00     0.020 A 
ENDBRANCH   1  22
TORSDOF 4
ENDMDL
MODEL 7
REMARK VINA RESULT:     -10.1      1.209      2.689
REMARK  4 active torsions:
REMARK  status: ('A' for Active; 'I' for Inactive)
REMARK    1  A    between atoms: C_4  and  N_5 
REMARK       I    between atoms: N_5  and  C_6 
REMARK       I    between atoms: C_6  and  N_7 
REMARK    2  A    between atoms: N_7  and  C_8 
REMARK    3  A    between atoms: C_8  and  C_9 
REMARK       I    between atoms: C_9  and  N_10 
REMARK    4  A    between atoms: N_10  and  C_11 
ROOT
HETATM    1  N   UNL     1       6.201  27.008  55.972  1.00  0.00    -0.307 N 
HETATM    2  C   UNL     1       6.824  28.225  56.055  1.00  0.00     0.321 C 
HETATM    3  N   UNL     1       6.342  28.955  57.119  1.00  0.00    -0.334 N 
HETATM    4  O   UNL     1       7.709  28.645  55.321  1.00  0.00    -0.247 OA
HETATM    5  H   UNL     1       5.878  26.607  56.848  1.00  0.00     0.170 HD
HETATM    6  H   UNL     1       5.352  28.841  57.291  1.00  0.00     0.164 HD
ENDROOT
BRANCH   3   7
HETATM    7  C   UNL     1       6.893  30.270  57.372  1.00  0.00     0.227 C 
BRANCH   7   8
HETATM    8  C   UNL     1       7.467  30.364  58.789  1.00  0.00     0.239 C 
HETATM    9  N   UNL     1       6.872  31.355  59.538  1.00  0.00    -0.324 N 
HETATM   10  H   UNL     1       6.016  31.778  59.169  1.00  0.00     0.169 HD
HETATM   11  O   UNL     1       8.323  29.570  59.174  1.00  0.00    -0.271 OA
BRANCH   9  12
HETATM   12  C   UNL     1       7.195  31.806  60.839  1.00  0.00     0.064 A 
HETATM   13  C   UNL     1       6.139  32.367  61.578  1.00  0.00     0.093 A 
HETATM   14  C   UNL     1       6.406  32.845  62.878  1.00  0.00    -0.005 A 
HETATM   15  N   UNL     1       4.901  32.449  61.034  1.00  0.00    -0.258 NA
HETATM   16  C   UNL     1       5.350  33.408  63.609  1.00  0.00     0.015 A 
HETATM   17  C   UNL     1       7.701  32.761  63.412  1.00  0.00     0.014 A 
HETATM   18  C   UNL     1       4.081  33.483  63.049  1.00  0.00     0.020 A 
HETATM   19  C   UNL     1       3.908  32.993  61.771  1.00  0.00     0.117 A 
HETATM   20  C   UNL     1       8.735  32.208  62.662  1.00  0.00     0.003 A 
HETATM   21  C   UNL     1       8.484  31.732  61.376  1.00  0.00     0.032 A 
ENDBRANCH   9  12
ENDBRANCH   7   8
ENDBRANCH   3   7
BRANCH   1  22
HETATM   22  C   UNL     1       6.336  26.056  54.932  1.00  0.00     0.066 A 
HETATM   23  C   UNL     1       5.623  26.159  53.732  1.00  0.00     0.038 A 
HETATM   24  C   UNL     1       5.753  25.179  52.744  1.00  0.00    -0.059 A 
HETATM   25  C   UNL     1       4.995  25.293  51.454  1.00  0.00     0.048 C 
HETATM   26  C   UNL     1       6.637  24.119  52.958  1.00  0.00     0.020 A 
HETATM   27  C   UNL     1       7.356  24.012  54.161  1.00  0.00    -0.005 A 
HETATM   28  C   UNL     1       7.199  24.978  55.176  1.00  0.00     0.093 A 
HETATM   29  C   UNL     1       8.248  22.954  54.386  1.00  0.00     0.015 A 
HETATM   30  N   UNL     1       7.873  24.896  56.351  1.00  0.00    -0.258 NA
HETATM   31  C   UNL     1       8.725  23.863  56.527  1.00  0.00     0.117 A 
HETATM   32  C   UNL     1       8.947  22.878  55.585  1.00  0.00     0.020 A 
ENDBRANCH   1  22
TORSDOF 4
ENDMDL
MODEL 8
REMARK VINA RESULT:     -10.0      1.724     10.146
REMARK  4 active torsions:
REMARK  status: ('A' for Active; 'I' for Inactive)
REMARK    1  A    between atoms: C_4  and  N_5 
REMARK       I    between atoms: N_5  and  C_6 
REMARK       I    between atoms: C_6  and  N_7 
REMARK    2  A    between atoms: N_7  and  C_8 
REMARK    3  A    between atoms: C_8  and  C_9 
REMARK       I    between atoms: C_9  and  N_10 
REMARK    4  A    between atoms: N_10  and  C_11 
ROOT
HETATM    1  N   UNL     1       5.157  31.661  59.773  1.00  0.00    -0.307 N 
HETATM    2  C   UNL     1       5.954  31.445  58.680  1.00  0.00     0.321 C 
HETATM    3  N   UNL     1       5.752  30.184  58.164  1.00  0.00    -0.334 N 
HETATM    4  O   UNL     1       6.739  32.239  58.178  1.00  0.00    -0.247 OA
HETATM    5  H   UNL     1       4.270  31.166  59.788  1.00  0.00     0.170 HD
HETATM    6  H   UNL     1       5.581  29.469  58.858  1.00  0.00     0.164 HD
ENDROOT
BRANCH   3   7
HETATM    7  C   UNL     1       6.503  29.778  56.993  1.00  0.00     0.227 C 
BRANCH   7   8
HETATM    8  C   UNL     1       7.283  28.487  57.259  1.00  0.00     0.239 C 
HETATM    9  N   UNL     1       7.093  27.540  56.277  1.00  0.00    -0.324 N 
HETATM   10  H   UNL     1       6.636  27.841  55.412  1.00  0.00     0.169 HD
HETATM   11  O   UNL     1       8.029  28.393  58.231  1.00  0.00    -0.271 OA
BRANCH   9  12
HETATM   12  C   UNL     1       7.559  26.206  56.222  1.00  0.00     0.064 A 
HETATM   13  C   UNL     1       7.590  25.616  54.946  1.00  0.00     0.093 A 
HETATM   14  C   UNL     1       8.035  24.282  54.832  1.00  0.00    -0.005 A 
HETATM   15  N   UNL     1       7.189  26.324  53.862  1.00  0.00    -0.258 NA
HETATM   16  C   UNL     1       8.061  23.697  53.558  1.00  0.00     0.015 A 
HETATM   17  C   UNL     1       8.431  23.567  55.973  1.00  0.00     0.014 A 
HETATM   18  C   UNL     1       7.654  24.429  52.450  1.00  0.00     0.020 A 
HETATM   19  C   UNL     1       7.233  25.727  52.652  1.00  0.00     0.117 A 
HETATM   20  C   UNL     1       8.387  24.167  57.228  1.00  0.00     0.003 A 
HETATM   21  C   UNL     1       7.949  25.484  57.354  1.00  0.00     0.032 A 
ENDBRANCH   9  12
ENDBRANCH   7   8
ENDBRANCH   3   7
BRANCH   1  22
HETATM   22  C   UNL     1       5.194  32.781  60.639  1.00  0.00     0.066 A 
HETATM   23  C   UNL     1       4.367  33.895  60.452  1.00  0.00     0.038 A 
HETATM   24  C   UNL     1       4.461  34.999  61.304  1.00  0.00    -0.059 A 
HETATM   25  C   UNL     1       3.569  36.189  61.108  1.00  0.00     0.048 C 
HETATM   26  C   UNL     1       5.363  34.954  62.369  1.00  0.00     0.020 A 
HETATM   27  C   UNL     1       6.195  33.837  62.562  1.00  0.00    -0.005 A 
HETATM   28  C   UNL     1       6.131  32.737  61.682  1.00  0.00     0.093 A 
HETATM   29  C   UNL     1       7.102  33.780  63.629  1.00  0.00     0.015 A 
HETATM   30  N   UNL     1       6.928  31.650  61.838  1.00  0.00    -0.258 NA
HETATM   31  C   UNL     1       7.787  31.633  62.880  1.00  0.00     0.117 A 
HETATM   32  C   UNL     1       7.909  32.661  63.795  1.00  0.00     0.020 A 
ENDBRANCH   1  22
TORSDOF 4
ENDMDL
MODEL 9
REMARK VINA RESULT:     -10.0      2.206      3.903
REMARK  4 active torsions:
REMARK  status: ('A' for Active; 'I' for Inactive)
REMARK    1  A    between atoms: C_4  and  N_5 
REMARK       I    between atoms: N_5  and  C_6 
REMARK       I    between atoms: C_6  and  N_7 
REMARK    2  A    between atoms: N_7  and  C_8 
REMARK    3  A    between atoms: C_8  and  C_9 
REMARK       I    between atoms: C_9  and  N_10 
REMARK    4  A    between atoms: N_10  and  C_11 
ROOT
HETATM    1  N   UNL     1       4.776  27.344  56.395  1.00  0.00    -0.307 N 
HETATM    2  C   UNL     1       4.830  28.704  56.243  1.00  0.00     0.321 C 
HETATM    3  N   UNL     1       3.999  29.335  57.142  1.00  0.00    -0.334 N 
HETATM    4  O   UNL     1       5.523  29.326  55.446  1.00  0.00    -0.247 OA
HETATM    5  H   UNL     1       4.573  27.003  57.329  1.00  0.00     0.170 HD
HETATM    6  H   UNL     1       3.133  28.845  57.328  1.00  0.00     0.164 HD
ENDROOT
BRANCH   3   7
HETATM    7  C   UNL     1       3.932  30.782  57.139  1.00  0.00     0.227 C 
BRANCH   7   8
HETATM    8  C   UNL     1       4.039  31.342  58.561  1.00  0.00     0.239 C 
HETATM    9  N   UNL     1       5.225  32.008  58.780  1.00  0.00    -0.324 N 
HETATM   10  H   UNL     1       5.803  32.227  57.964  1.00  0.00     0.169 HD
HETATM   11  O   UNL     1       3.107  31.228  59.353  1.00  0.00    -0.271 OA
BRANCH   9  12
HETATM   12  C   UNL     1       5.725  32.567  59.979  1.00  0.00     0.064 A 
HETATM   13  C   UNL     1       6.944  32.041  60.444  1.00  0.00     0.093 A 
HETATM   14  C   UNL     1       7.484  32.553  61.642  1.00  0.00    -0.005 A 
HETATM   15  N   UNL     1       7.566  31.058  59.749  1.00  0.00    -0.258 NA
HETATM   16  C   UNL     1       8.698  32.023  62.104  1.00  0.00     0.015 A 
HETATM   17  C   UNL     1       6.811  33.561  62.350  1.00  0.00     0.014 A 
HETATM   18  C   UNL     1       9.335  31.019  61.384  1.00  0.00     0.020 A 
HETATM   19  C   UNL     1       8.735  30.576  60.223  1.00  0.00     0.117 A 
HETATM   20  C   UNL     1       5.603  34.064  61.876  1.00  0.00     0.003 A 
HETATM   21  C   UNL     1       5.058  33.567  60.693  1.00  0.00     0.032 A 
ENDBRANCH   9  12
ENDBRANCH   7   8
ENDBRANCH   3   7
BRANCH   1  22
HETATM   22  C   UNL     1       5.383  26.375  55.559  1.00  0.00     0.066 A 
HETATM   23  C   UNL     1       4.879  26.065  54.290  1.00  0.00     0.038 A 
HETATM   24  C   UNL     1       5.482  25.074  53.511  1.00  0.00    -0.059 A 
HETATM   25  C   UNL     1       4.948  24.748  52.147  1.00  0.00     0.048 C 
HETATM   26  C   UNL     1       6.619  24.428  54.002  1.00  0.00     0.020 A 
HETATM   27  C   UNL     1       7.129  24.736  55.275  1.00  0.00    -0.005 A 
HETATM   28  C   UNL     1       6.501  25.709  56.081  1.00  0.00     0.093 A 
HETATM   29  C   UNL     1       8.271  24.097  55.778  1.00  0.00     0.015 A 
HETATM   30  N   UNL     1       6.965  26.021  57.318  1.00  0.00    -0.258 NA
HETATM   31  C   UNL     1       8.070  25.383  57.763  1.00  0.00     0.117 A 
HETATM   32  C   UNL     1       8.752  24.425  57.039  1.00  0.00     0.020 A 
ENDBRANCH   1  22
TORSDOF 4
ENDMDL
MODEL 10
REMARK VINA RESULT:     -10.0      3.278      9.909
REMARK  4 active torsions:
REMARK  status: ('A' for Active; 'I' for Inactive)
REMARK    1  A    between atoms: C_4  and  N_5 
REMARK       I    between atoms: N_5  and  C_6 
REMARK       I    between atoms: C_6  and  N_7 
REMARK    2  A    between atoms: N_7  and  C_8 
REMARK    3  A    between atoms: C_8  and  C_9 
REMARK       I    between atoms: C_9  and  N_10 
REMARK    4  A    between atoms: N_10  and  C_11 
ROOT
HETATM    1  N   UNL     1       6.892  28.016  55.876  1.00  0.00    -0.307 N 
HETATM    2  C   UNL     1       7.104  27.649  54.573  1.00  0.00     0.321 C 
HETATM    3  N   UNL     1       6.280  26.605  54.214  1.00  0.00    -0.334 N 
HETATM    4  O   UNL     1       7.889  28.162  53.786  1.00  0.00    -0.247 OA
HETATM    5  H   UNL     1       5.955  27.869  56.238  1.00  0.00     0.170 HD
HETATM    6  H   UNL     1       6.119  25.927  54.947  1.00  0.00     0.164 HD
ENDROOT
BRANCH   3   7
HETATM    7  C   UNL     1       6.354  26.087  52.864  1.00  0.00     0.227 C 
BRANCH   7   8
HETATM    8  C   UNL     1       7.325  24.906  52.778  1.00  0.00     0.239 C 
HETATM    9  N   UNL     1       6.829  23.767  53.374  1.00  0.00    -0.324 N 
HETATM   10  H   UNL     1       5.836  23.759  53.626  1.00  0.00     0.169 HD
HETATM   11  O   UNL     1       8.391  25.011  52.176  1.00  0.00    -0.271 OA
BRANCH   9  12
HETATM   12  C   UNL     1       7.463  22.520  53.583  1.00  0.00     0.064 A 
HETATM   13  C   UNL     1       7.822  22.226  54.910  1.00  0.00     0.093 A 
HETATM   14  C   UNL     1       8.470  21.001  55.176  1.00  0.00    -0.005 A 
HETATM   15  N   UNL     1       7.554  23.114  55.897  1.00  0.00    -0.258 NA
HETATM   16  C   UNL     1       8.829  20.713  56.500  1.00  0.00     0.015 A 
HETATM   17  C   UNL     1       8.748  20.105  54.132  1.00  0.00     0.014 A 
HETATM   18  C   UNL     1       8.546  21.625  57.509  1.00  0.00     0.020 A 
HETATM   19  C   UNL     1       7.912  22.799  57.161  1.00  0.00     0.117 A 
HETATM   20  C   UNL     1       8.390  20.418  52.824  1.00  0.00     0.003 A 
HETATM   21  C   UNL     1       7.750  21.626  52.548  1.00  0.00     0.032 A 
ENDBRANCH   9  12
ENDBRANCH   7   8
ENDBRANCH   3   7
BRANCH   1  22
HETATM   22  C   UNL     1       7.648  28.950  56.625  1.00  0.00     0.066 A 
HETATM   23  C   UNL     1       9.048  28.944  56.627  1.00  0.00     0.038 A 
HETATM   24  C   UNL     1       9.760  29.856  57.411  1.00  0.00    -0.059 A 
HETATM   25  C   UNL     1      11.260  29.856  57.406  1.00  0.00     0.048 C 
HETATM   26  C   UNL     1       9.051  30.800  58.159  1.00  0.00     0.020 A 
HETATM   27  C   UNL     1       7.646  30.810  58.160  1.00  0.00    -0.005 A 
HETATM   28  C   UNL     1       6.923  29.866  57.400  1.00  0.00     0.093 A 
HETATM   29  C   UNL     1       6.924  31.753  58.904  1.00  0.00     0.015 A 
HETATM   30  N   UNL     1       5.566  29.846  57.388  1.00  0.00    -0.258 NA
HETATM   31  C   UNL     1       4.909  30.774  58.118  1.00  0.00     0.117 A 
HETATM   32  C   UNL     1       5.535  31.740  58.882  1.00  0.00     0.020 A 
ENDBRANCH   1  22
TORSDOF 4
ENDMDL
