MODEL 1
REMARK VINA RESULT:     -10.7      0.000      0.000
REMARK  9 active torsions:
REMARK  status: ('A' for Active; 'I' for Inactive)
REMARK    1  A    between atoms: C_3  and  O_4 
REMARK    2  A    between atoms: C_5  and  C_6 
REMARK    3  A    between atoms: C_16  and  N_17 
REMARK    4  A    between atoms: N_17  and  C_18 
REMARK    5  A    between atoms: C_18  and  N_19 
REMARK       I    between atoms: N_19  and  C_20 
REMARK    6  A    between atoms: C_20  and  C_21 
REMARK    7  A    between atoms: C_24  and  O_25 
REMARK    8  A    between atoms: O_25  and  C_26 
REMARK    9  A    between atoms: C_26  and  C_27 
ROOT
HETATM    1  N   UNL     1       7.967  29.049  58.672  1.00  0.00    -0.333 N 
HETATM    2  H   UNL     1       8.025  28.544  59.552  1.00  0.00     0.168 HD
ENDROOT
BRANCH   1   3
HETATM    3  C   UNL     1       7.201  28.425  57.666  1.00  0.00     0.035 A 
HETATM    4  C   UNL     1       7.451  27.149  57.161  1.00  0.00     0.048 A 
HETATM    5  C   UNL     1       6.611  26.564  56.191  1.00  0.00     0.053 A 
HETATM    6  C   UNL     1       5.488  27.286  55.751  1.00  0.00     0.086 A 
HETATM    7  C   UNL     1       5.220  28.571  56.244  1.00  0.00    -0.026 A 
HETATM    8  C   UNL     1       3.999  29.341  55.820  1.00  0.00     0.051 C 
HETATM    9  C   UNL     1       6.075  29.120  57.212  1.00  0.00     0.039 A 
BRANCH   5  10
HETATM   10  C   UNL     1       6.968  25.232  55.704  1.00  0.00     0.183 A 
HETATM   11  O   UNL     1       7.109  25.087  54.345  1.00  0.00    -0.289 OA
HETATM   12  C   UNL     1       7.411  23.767  54.184  1.00  0.00     0.106 A 
HETATM   13  C   UNL     1       7.454  23.184  55.440  1.00  0.00     0.093 A 
HETATM   14  C   UNL     1       7.641  23.095  52.990  1.00  0.00     0.040 A 
HETATM   15  N   UNL     1       7.173  24.127  56.399  1.00  0.00    -0.221 NA
HETATM   16  C   UNL     1       7.751  21.820  55.545  1.00  0.00     0.034 A 
HETATM   17  C   UNL     1       7.991  21.104  54.362  1.00  0.00     0.002 A 
HETATM   18  C   UNL     1       7.935  21.732  53.110  1.00  0.00     0.003 A 
ENDBRANCH   5  10
BRANCH   6  19
HETATM   19  O   UNL     1       4.599  26.787  54.833  1.00  0.00    -0.359 OA
HETATM   20  H   UNL     1       3.689  26.928  55.156  1.00  0.00     0.218 HD
ENDBRANCH   6  19
ENDBRANCH   1   3
BRANCH   1  21
HETATM   21  C   UNL     1       8.794  30.144  58.658  1.00  0.00     0.179 C 
HETATM   22  S   UNL     1      10.006  30.142  57.506  1.00  0.00    -0.040 SA
BRANCH  21  23
HETATM   23  N   UNL     1       8.597  31.083  59.647  1.00  0.00    -0.299 N 
HETATM   24  C   UNL     1       8.662  30.895  61.025  1.00  0.00     0.257 C 
HETATM   25  O   UNL     1       9.361  30.071  61.601  1.00  0.00    -0.267 OA
HETATM   26  H   UNL     1       8.026  31.851  59.329  1.00  0.00     0.171 HD
BRANCH  24  27
HETATM   27  C   UNL     1       7.858  31.840  61.844  1.00  0.00     0.032 A 
HETATM   28  C   UNL     1       6.714  32.482  61.354  1.00  0.00     0.020 A 
HETATM   29  C   UNL     1       5.983  33.339  62.187  1.00  0.00     0.038 A 
HETATM   30  C   UNL     1       6.391  33.562  63.503  1.00  0.00     0.068 A 
HETATM   31  C   UNL     1       7.558  32.955  63.970  1.00  0.00     0.038 A 
HETATM   32  C   UNL     1       8.290  32.096  63.150  1.00  0.00     0.020 A 
BRANCH  30  33
HETATM   33  O   UNL     1       5.764  34.362  64.414  1.00  0.00    -0.351 OA
BRANCH  33  34
HETATM   34  C   UNL     1       4.812  33.767  65.300  1.00  0.00     0.179 C 
BRANCH  34  35
HETATM   35  C   UNL     1       4.907  34.333  66.727  1.00  0.00     0.002 C 
HETATM   36  C   UNL     1       6.344  34.289  67.253  1.00  0.00     0.011 C 
HETATM   37  C   UNL     1       4.369  35.762  66.768  1.00  0.00     0.011 C 
ENDBRANCH  34  35
ENDBRANCH  33  34
ENDBRANCH  30  33
ENDBRANCH  24  27
ENDBRANCH  21  23
ENDBRANCH   1  21
TORSDOF 9
ENDMDL
MODEL 2
REMARK VINA RESULT:     -10.4      1.332      1.714
REMARK  9 active torsions:
REMARK  status: ('A' for Active; 'I' for Inactive)
REMARK    1  A    between atoms: C_3  and  O_4 
REMARK    2  A    between atoms: C_5  and  C_6 
REMARK    3  A    between atoms: C_16  and  N_17 
REMARK    4  A    between atoms: N_17  and  C_18 
REMARK    5  A    between atoms: C_18  and  N_19 
REMARK       I    between atoms: N_19  and  C_20 
REMARK    6  A    between atoms: C_20  and  C_21 
REMARK    7  A    between atoms: C_24  and  O_25 
REMARK    8  A    between atoms: O_25  and  C_26 
REMARK    9  A    between atoms: C_26  and  C_27 
ROOT
HETATM    1  N   UNL     1       8.164  28.387  57.861  1.00  0.00    -0.333 N 
HETATM    2  H   UNL     1       8.478  27.797  58.627  1.00  0.00     0.168 HD
ENDROOT
BRANCH   1   3
HETATM    3  C   UNL     1       7.380  27.741  56.883  1.00  0.00     0.035 A 
HETATM    4  C   UNL     1       7.617  26.452  56.406  1.00  0.00     0.048 A 
HETATM    5  C   UNL     1       6.759  25.847  55.464  1.00  0.00     0.053 A 
HETATM    6  C   UNL     1       5.632  26.563  55.024  1.00  0.00     0.086 A 
HETATM    7  C   UNL     1       5.377  27.861  55.489  1.00  0.00    -0.026 A 
HETATM    8  C   UNL     1       4.153  28.626  55.066  1.00  0.00     0.051 C 
HETATM    9  C   UNL     1       6.249  28.429  56.430  1.00  0.00     0.039 A 
BRANCH   5  10
HETATM   10  C   UNL     1       7.103  24.502  55.005  1.00  0.00     0.183 A 
HETATM   11  O   UNL     1       7.318  23.552  55.974  1.00  0.00    -0.289 OA
HETATM   12  C   UNL     1       7.638  22.429  55.270  1.00  0.00     0.106 A 
HETATM   13  C   UNL     1       7.587  22.743  53.922  1.00  0.00     0.093 A 
HETATM   14  C   UNL     1       7.962  21.179  55.781  1.00  0.00     0.040 A 
HETATM   15  N   UNL     1       7.243  24.064  53.765  1.00  0.00    -0.221 NA
HETATM   16  C   UNL     1       7.875  21.747  52.982  1.00  0.00     0.034 A 
HETATM   17  C   UNL     1       8.207  20.468  53.456  1.00  0.00     0.002 A 
HETATM   18  C   UNL     1       8.250  20.192  54.830  1.00  0.00     0.003 A 
ENDBRANCH   5  10
BRANCH   6  19
HETATM   19  O   UNL     1       4.727  26.045  54.133  1.00  0.00    -0.359 OA
HETATM   20  H   UNL     1       5.111  26.062  53.237  1.00  0.00     0.218 HD
ENDBRANCH   6  19
ENDBRANCH   1   3
BRANCH   1  21
HETATM   21  C   UNL     1       8.732  29.634  57.915  1.00  0.00     0.179 C 
HETATM   22  S   UNL     1      10.128  29.852  57.019  1.00  0.00    -0.040 SA
BRANCH  21  23
HETATM   23  N   UNL     1       8.147  30.546  58.766  1.00  0.00    -0.299 N 
HETATM   24  C   UNL     1       8.742  31.650  59.371  1.00  0.00     0.257 C 
HETATM   25  O   UNL     1       9.673  32.300  58.913  1.00  0.00    -0.267 OA
HETATM   26  H   UNL     1       7.343  30.160  59.236  1.00  0.00     0.171 HD
BRANCH  24  27
HETATM   27  C   UNL     1       8.125  32.097  60.647  1.00  0.00     0.032 A 
HETATM   28  C   UNL     1       6.858  32.687  60.709  1.00  0.00     0.020 A 
HETATM   29  C   UNL     1       6.319  33.060  61.948  1.00  0.00     0.038 A 
HETATM   30  C   UNL     1       7.043  32.851  63.123  1.00  0.00     0.068 A 
HETATM   31  C   UNL     1       8.326  32.305  63.049  1.00  0.00     0.038 A 
HETATM   32  C   UNL     1       8.867  31.926  61.821  1.00  0.00     0.020 A 
BRANCH  30  33
HETATM   33  O   UNL     1       6.629  33.160  64.387  1.00  0.00    -0.351 OA
BRANCH  33  34
HETATM   34  C   UNL     1       5.235  33.386  64.609  1.00  0.00     0.179 C 
BRANCH  34  35
HETATM   35  C   UNL     1       4.955  34.773  65.211  1.00  0.00     0.002 C 
HETATM   36  C   UNL     1       5.283  35.891  64.218  1.00  0.00     0.011 C 
HETATM   37  C   UNL     1       3.498  34.873  65.660  1.00  0.00     0.011 C 
ENDBRANCH  34  35
ENDBRANCH  33  34
ENDBRANCH  30  33
ENDBRANCH  24  27
ENDBRANCH  21  23
ENDBRANCH   1  21
TORSDOF 9
ENDMDL
MODEL 3
REMARK VINA RESULT:      -9.9      1.882      2.687
REMARK  9 active torsions:
REMARK  status: ('A' for Active; 'I' for Inactive)
REMARK    1  A    between atoms: C_3  and  O_4 
REMARK    2  A    between atoms: C_5  and  C_6 
REMARK    3  A    between atoms: C_16  and  N_17 
REMARK    4  A    between atoms: N_17  and  C_18 
REMARK    5  A    between atoms: C_18  and  N_19 
REMARK       I    between atoms: N_19  and  C_20 
REMARK    6  A    between atoms: C_20  and  C_21 
REMARK    7  A    between atoms: C_24  and  O_25 
REMARK    8  A    between atoms: O_25  and  C_26 
REMARK    9  A    between atoms: C_26  and  C_27 
ROOT
HETATM    1  N   UNL     1       7.940  29.329  55.537  1.00  0.00    -0.333 N 
HETATM    2  H   UNL     1       8.009  30.134  54.920  1.00  0.00     0.168 HD
ENDROOT
BRANCH   1   3
HETATM    3  C   UNL     1       7.151  28.265  55.056  1.00  0.00     0.035 A 
HETATM    4  C   UNL     1       7.489  26.916  55.172  1.00  0.00     0.048 A 
HETATM    5  C   UNL     1       6.627  25.899  54.714  1.00  0.00     0.053 A 
HETATM    6  C   UNL     1       5.391  26.268  54.153  1.00  0.00     0.086 A 
HETATM    7  C   UNL     1       5.033  27.617  54.025  1.00  0.00    -0.026 A 
HETATM    8  C   UNL     1       3.697  28.030  53.470  1.00  0.00     0.051 C 
HETATM    9  C   UNL     1       5.914  28.602  54.496  1.00  0.00     0.039 A 
BRANCH   5  10
HETATM   10  C   UNL     1       7.079  24.516  54.856  1.00  0.00     0.183 A 
HETATM   11  O   UNL     1       7.216  23.787  53.700  1.00  0.00    -0.289 OA
HETATM   12  C   UNL     1       7.616  22.556  54.130  1.00  0.00     0.106 A 
HETATM   13  C   UNL     1       7.716  22.602  55.511  1.00  0.00     0.093 A 
HETATM   14  C   UNL     1       7.884  21.438  53.352  1.00  0.00     0.040 A 
HETATM   15  N   UNL     1       7.375  23.854  55.962  1.00  0.00    -0.221 NA
HETATM   16  C   UNL     1       8.118  21.451  56.200  1.00  0.00     0.034 A 
HETATM   17  C   UNL     1       8.400  20.298  55.451  1.00  0.00     0.002 A 
HETATM   18  C   UNL     1       8.282  20.294  54.053  1.00  0.00     0.003 A 
ENDBRANCH   5  10
BRANCH   6  19
HETATM   19  O   UNL     1       4.475  25.348  53.708  1.00  0.00    -0.359 OA
HETATM   20  H   UNL     1       3.693  25.815  53.358  1.00  0.00     0.218 HD
ENDBRANCH   6  19
ENDBRANCH   1   3
BRANCH   1  21
HETATM   21  C   UNL     1       8.518  29.573  56.757  1.00  0.00     0.179 C 
HETATM   22  S   UNL     1      10.151  29.231  56.884  1.00  0.00    -0.040 SA
BRANCH  21  23
HETATM   23  N   UNL     1       7.681  29.987  57.769  1.00  0.00    -0.299 N 
HETATM   24  C   UNL     1       6.642  30.912  57.692  1.00  0.00     0.257 C 
HETATM   25  O   UNL     1       5.963  31.141  56.699  1.00  0.00    -0.267 OA
HETATM   26  H   UNL     1       8.099  29.863  58.679  1.00  0.00     0.171 HD
BRANCH  24  27
HETATM   27  C   UNL     1       6.306  31.612  58.959  1.00  0.00     0.032 A 
HETATM   28  C   UNL     1       7.179  31.661  60.052  1.00  0.00     0.020 A 
HETATM   29  C   UNL     1       6.814  32.363  61.208  1.00  0.00     0.038 A 
HETATM   30  C   UNL     1       5.580  33.012  61.279  1.00  0.00     0.068 A 
HETATM   31  C   UNL     1       4.695  32.920  60.204  1.00  0.00     0.038 A 
HETATM   32  C   UNL     1       5.052  32.227  59.047  1.00  0.00     0.020 A 
BRANCH  30  33
HETATM   33  O   UNL     1       5.112  33.734  62.339  1.00  0.00    -0.351 OA
BRANCH  33  34
HETATM   34  C   UNL     1       6.006  34.636  62.995  1.00  0.00     0.179 C 
BRANCH  34  35
HETATM   35  C   UNL     1       6.187  34.302  64.485  1.00  0.00     0.002 C 
HETATM   36  C   UNL     1       4.954  33.596  65.055  1.00  0.00     0.011 C 
HETATM   37  C   UNL     1       7.434  33.442  64.690  1.00  0.00     0.011 C 
ENDBRANCH  34  35
ENDBRANCH  33  34
ENDBRANCH  30  33
ENDBRANCH  24  27
ENDBRANCH  21  23
ENDBRANCH   1  21
TORSDOF 9
ENDMDL
MODEL 4
REMARK VINA RESULT:      -9.8      2.332      3.189
REMARK  9 active torsions:
REMARK  status: ('A' for Active; 'I' for Inactive)
REMARK    1  A    between atoms: C_3  and  O_4 
REMARK    2  A    between atoms: C_5  and  C_6 
REMARK    3  A    between atoms: C_16  and  N_17 
REMARK    4  A    between atoms: N_17  and  C_18 
REMARK    5  A    between atoms: C_18  and  N_19 
REMARK       I    between atoms: N_19  and  C_20 
REMARK    6  A    between atoms: C_20  and  C_21 
REMARK    7  A    between atoms: C_24  and  O_25 
REMARK    8  A    between atoms: O_25  and  C_26 
REMARK    9  A    between atoms: C_26  and  C_27 
ROOT
HETATM    1  N   UNL     1       7.124  29.056  55.419  1.00  0.00    -0.333 N 
HETATM    2  H   UNL     1       7.967  29.618  55.340  1.00  0.00     0.168 HD
ENDROOT
BRANCH   1   3
HETATM    3  C   UNL     1       6.922  28.120  54.385  1.00  0.00     0.035 A 
HETATM    4  C   UNL     1       7.200  26.757  54.489  1.00  0.00     0.048 A 
HETATM    5  C   UNL     1       6.925  25.867  53.431  1.00  0.00     0.053 A 
HETATM    6  C   UNL     1       6.335  26.376  52.260  1.00  0.00     0.086 A 
HETATM    7  C   UNL     1       6.050  27.743  52.134  1.00  0.00    -0.026 A 
HETATM    8  C   UNL     1       5.378  28.300  50.909  1.00  0.00     0.051 C 
HETATM    9  C   UNL     1       6.334  28.598  53.209  1.00  0.00     0.039 A 
BRANCH   5  10
HETATM   10  C   UNL     1       7.273  24.460  53.623  1.00  0.00     0.183 A 
HETATM   11  O   UNL     1       7.326  24.007  54.919  1.00  0.00    -0.289 OA
HETATM   12  C   UNL     1       7.691  22.698  54.797  1.00  0.00     0.106 A 
HETATM   13  C   UNL     1       7.826  22.419  53.447  1.00  0.00     0.093 A 
HETATM   14  C   UNL     1       7.900  21.783  55.820  1.00  0.00     0.040 A 
HETATM   15  N   UNL     1       7.555  23.546  52.710  1.00  0.00    -0.221 NA
HETATM   16  C   UNL     1       8.194  21.127  53.055  1.00  0.00     0.034 A 
HETATM   17  C   UNL     1       8.413  20.170  54.059  1.00  0.00     0.002 A 
HETATM   18  C   UNL     1       8.269  20.495  55.415  1.00  0.00     0.003 A 
ENDBRANCH   5  10
BRANCH   6  19
HETATM   19  O   UNL     1       6.004  25.583  51.191  1.00  0.00    -0.359 OA
HETATM   20  H   UNL     1       5.034  25.566  51.090  1.00  0.00     0.218 HD
ENDBRANCH   6  19
ENDBRANCH   1   3
BRANCH   1  21
HETATM   21  C   UNL     1       6.324  29.482  56.449  1.00  0.00     0.179 C 
HETATM   22  S   UNL     1       4.703  29.081  56.343  1.00  0.00    -0.040 SA
BRANCH  21  23
HETATM   23  N   UNL     1       6.917  30.269  57.412  1.00  0.00    -0.299 N 
HETATM   24  C   UNL     1       7.911  29.904  58.315  1.00  0.00     0.257 C 
HETATM   25  O   UNL     1       8.771  29.053  58.127  1.00  0.00    -0.267 OA
HETATM   26  H   UNL     1       6.327  31.039  57.686  1.00  0.00     0.171 HD
BRANCH  24  27
HETATM   27  C   UNL     1       7.952  30.684  59.580  1.00  0.00     0.032 A 
HETATM   28  C   UNL     1       8.924  30.479  60.565  1.00  0.00     0.020 A 
HETATM   29  C   UNL     1       8.925  31.268  61.723  1.00  0.00     0.038 A 
HETATM   30  C   UNL     1       7.956  32.257  61.903  1.00  0.00     0.068 A 
HETATM   31  C   UNL     1       6.962  32.425  60.938  1.00  0.00     0.038 A 
HETATM   32  C   UNL     1       6.957  31.647  59.781  1.00  0.00     0.020 A 
BRANCH  30  33
HETATM   33  O   UNL     1       7.854  33.095  62.976  1.00  0.00    -0.351 OA
BRANCH  33  34
HETATM   34  C   UNL     1       6.584  33.693  63.252  1.00  0.00     0.179 C 
BRANCH  34  35
HETATM   35  C   UNL     1       6.053  33.323  64.647  1.00  0.00     0.002 C 
HETATM   36  C   UNL     1       7.004  33.792  65.751  1.00  0.00     0.011 C 
HETATM   37  C   UNL     1       4.661  33.915  64.859  1.00  0.00     0.011 C 
ENDBRANCH  34  35
ENDBRANCH  33  34
ENDBRANCH  30  33
ENDBRANCH  24  27
ENDBRANCH  21  23
ENDBRANCH   1  21
TORSDOF 9
ENDMDL
MODEL 5
REMARK VINA RESULT:      -9.7      1.971     11.702
REMARK  9 active torsions:
REMARK  status: ('A' for Active; 'I' for Inactive)
REMARK    1  A    between atoms: C_3  and  O_4 
REMARK    2  A    between atoms: C_5  and  C_6 
REMARK    3  A    between atoms: C_16  and  N_17 
REMARK    4  A    between atoms: N_17  and  C_18 
REMARK    5  A    between atoms: C_18  and  N_19 
REMARK       I    between atoms: N_19  and  C_20 
REMARK    6  A    between atoms: C_20  and  C_21 
REMARK    7  A    between atoms: C_24  and  O_25 
REMARK    8  A    between atoms: O_25  and  C_26 
REMARK    9  A    between atoms: C_26  and  C_27 
ROOT
HETATM    1  N   UNL     1       7.865  30.204  59.659  1.00  0.00    -0.333 N 
HETATM    2  H   UNL     1       7.714  29.305  60.108  1.00  0.00     0.168 HD
ENDROOT
BRANCH   1   3
HETATM    3  C   UNL     1       7.030  31.250  60.105  1.00  0.00     0.035 A 
HETATM    4  C   UNL     1       6.953  31.691  61.426  1.00  0.00     0.048 A 
HETATM    5  C   UNL     1       6.135  32.779  61.793  1.00  0.00     0.053 A 
HETATM    6  C   UNL     1       5.405  33.439  60.788  1.00  0.00     0.086 A 
HETATM    7  C   UNL     1       5.466  33.010  59.455  1.00  0.00    -0.026 A 
HETATM    8  C   UNL     1       4.728  33.731  58.359  1.00  0.00     0.051 C 
HETATM    9  C   UNL     1       6.294  31.927  59.126  1.00  0.00     0.039 A 
BRANCH   5  10
HETATM   10  C   UNL     1       6.101  33.152  63.206  1.00  0.00     0.183 A 
HETATM   11  O   UNL     1       4.861  33.302  63.777  1.00  0.00    -0.289 OA
HETATM   12  C   UNL     1       5.132  33.668  65.063  1.00  0.00     0.106 A 
HETATM   13  C   UNL     1       6.509  33.707  65.212  1.00  0.00     0.093 A 
HETATM   14  C   UNL     1       4.217  33.958  66.067  1.00  0.00     0.040 A 
HETATM   15  N   UNL     1       7.115  33.374  64.026  1.00  0.00    -0.221 NA
HETATM   16  C   UNL     1       7.046  34.056  66.457  1.00  0.00     0.034 A 
HETATM   17  C   UNL     1       6.155  34.355  67.500  1.00  0.00     0.002 A 
HETATM   18  C   UNL     1       4.768  34.308  67.305  1.00  0.00     0.003 A 
ENDBRANCH   5  10
BRANCH   6  19
HETATM   19  O   UNL     1       4.606  34.524  61.045  1.00  0.00    -0.359 OA
HETATM   20  H   UNL     1       4.966  35.305  60.585  1.00  0.00     0.218 HD
ENDBRANCH   6  19
ENDBRANCH   1   3
BRANCH   1  21
HETATM   21  C   UNL     1       8.751  30.110  58.616  1.00  0.00     0.179 C 
HETATM   22  S   UNL     1       9.875  31.341  58.485  1.00  0.00    -0.040 SA
BRANCH  21  23
HETATM   23  N   UNL     1       8.566  29.063  57.738  1.00  0.00    -0.299 N 
HETATM   24  C   UNL     1       7.361  28.555  57.260  1.00  0.00     0.257 C 
HETATM   25  O   UNL     1       6.328  29.194  57.106  1.00  0.00    -0.267 OA
HETATM   26  H   UNL     1       9.348  28.427  57.742  1.00  0.00     0.171 HD
BRANCH  24  27
HETATM   27  C   UNL     1       7.383  27.129  56.841  1.00  0.00     0.032 A 
HETATM   28  C   UNL     1       8.299  26.204  57.355  1.00  0.00     0.020 A 
HETATM   29  C   UNL     1       8.248  24.866  56.941  1.00  0.00     0.038 A 
HETATM   30  C   UNL     1       7.291  24.451  56.013  1.00  0.00     0.068 A 
HETATM   31  C   UNL     1       6.412  25.389  55.470  1.00  0.00     0.038 A 
HETATM   32  C   UNL     1       6.452  26.721  55.880  1.00  0.00     0.020 A 
BRANCH  30  33
HETATM   33  O   UNL     1       7.132  23.181  55.537  1.00  0.00    -0.351 OA
BRANCH  33  34
HETATM   34  C   UNL     1       7.975  22.744  54.469  1.00  0.00     0.179 C 
BRANCH  34  35
HETATM   35  C   UNL     1       8.311  21.246  54.561  1.00  0.00     0.002 C 
HETATM   36  C   UNL     1       7.756  20.626  55.846  1.00  0.00     0.011 C 
HETATM   37  C   UNL     1       7.772  20.505  53.339  1.00  0.00     0.011 C 
ENDBRANCH  34  35
ENDBRANCH  33  34
ENDBRANCH  30  33
ENDBRANCH  24  27
ENDBRANCH  21  23
ENDBRANCH   1  21
TORSDOF 9
ENDMDL
MODEL 6
REMARK VINA RESULT:      -9.4      2.789      4.255
REMARK  9 active torsions:
REMARK  status: ('A' for Active; 'I' for Inactive)
REMARK    1  A    between atoms: C_3  and  O_4 
REMARK    2  A    between atoms: C_5  and  C_6 
REMARK    3  A    between atoms: C_16  and  N_17 
REMARK    4  A    between atoms: N_17  and  C_18 
REMARK    5  A    between atoms: C_18  and  N_19 
REMARK       I    between atoms: N_19  and  C_20 
REMARK    6  A    between atoms: C_20  and  C_21 
REMARK    7  A    between atoms: C_24  and  O_25 
REMARK    8  A    between atoms: O_25  and  C_26 
REMARK    9  A    between atoms: C_26  and  C_27 
ROOT
HETATM    1  N   UNL     1       5.644  29.108  54.103  1.00  0.00    -0.333 N 
HETATM    2  H   UNL     1       5.948  29.102  53.133  1.00  0.00     0.168 HD
ENDROOT
BRANCH   1   3
HETATM    3  C   UNL     1       6.367  28.261  54.968  1.00  0.00     0.035 A 
HETATM    4  C   UNL     1       6.595  26.905  54.737  1.00  0.00     0.048 A 
HETATM    5  C   UNL     1       7.372  26.128  55.620  1.00  0.00     0.053 A 
HETATM    6  C   UNL     1       7.944  26.754  56.741  1.00  0.00     0.086 A 
HETATM    7  C   UNL     1       7.725  28.116  56.994  1.00  0.00    -0.026 A 
HETATM    8  C   UNL     1       8.365  28.815  58.162  1.00  0.00     0.051 C 
HETATM    9  C   UNL     1       6.950  28.859  56.091  1.00  0.00     0.039 A 
BRANCH   5  10
HETATM   10  C   UNL     1       7.535  24.708  55.306  1.00  0.00     0.183 A 
HETATM   11  O   UNL     1       7.714  24.383  53.984  1.00  0.00    -0.289 OA
HETATM   12  C   UNL     1       7.809  23.022  53.988  1.00  0.00     0.106 A 
HETATM   13  C   UNL     1       7.700  22.594  55.301  1.00  0.00     0.093 A 
HETATM   14  C   UNL     1       7.984  22.187  52.893  1.00  0.00     0.040 A 
HETATM   15  N   UNL     1       7.529  23.675  56.131  1.00  0.00    -0.221 NA
HETATM   16  C   UNL     1       7.772  21.223  55.575  1.00  0.00     0.034 A 
HETATM   17  C   UNL     1       7.949  20.343  54.496  1.00  0.00     0.002 A 
HETATM   18  C   UNL     1       8.051  20.818  53.181  1.00  0.00     0.003 A 
ENDBRANCH   5  10
BRANCH   6  19
HETATM   19  O   UNL     1       8.739  26.087  57.638  1.00  0.00    -0.359 OA
HETATM   20  H   UNL     1       9.531  26.623  57.828  1.00  0.00     0.218 HD
ENDBRANCH   6  19
ENDBRANCH   1   3
BRANCH   1  21
HETATM   21  C   UNL     1       4.494  29.836  54.271  1.00  0.00     0.179 C 
HETATM   22  S   UNL     1       3.508  29.983  52.928  1.00  0.00    -0.040 SA
BRANCH  21  23
HETATM   23  N   UNL     1       4.316  30.442  55.496  1.00  0.00    -0.299 N 
HETATM   24  C   UNL     1       4.740  31.709  55.889  1.00  0.00     0.257 C 
HETATM   25  O   UNL     1       4.879  32.676  55.152  1.00  0.00    -0.267 OA
HETATM   26  H   UNL     1       4.184  29.768  56.234  1.00  0.00     0.171 HD
BRANCH  24  27
HETATM   27  C   UNL     1       4.966  31.890  57.347  1.00  0.00     0.032 A 
HETATM   28  C   UNL     1       6.217  31.710  57.947  1.00  0.00     0.020 A 
HETATM   29  C   UNL     1       6.371  31.926  59.324  1.00  0.00     0.038 A 
HETATM   30  C   UNL     1       5.279  32.314  60.102  1.00  0.00     0.068 A 
HETATM   31  C   UNL     1       4.025  32.446  59.506  1.00  0.00     0.038 A 
HETATM   32  C   UNL     1       3.864  32.238  58.136  1.00  0.00     0.020 A 
BRANCH  30  33
HETATM   33  O   UNL     1       5.299  32.563  61.445  1.00  0.00    -0.351 OA
BRANCH  33  34
HETATM   34  C   UNL     1       6.432  33.240  61.994  1.00  0.00     0.179 C 
BRANCH  34  35
HETATM   35  C   UNL     1       7.245  32.345  62.945  1.00  0.00     0.002 C 
HETATM   36  C   UNL     1       8.511  31.813  62.269  1.00  0.00     0.011 C 
HETATM   37  C   UNL     1       7.605  33.112  64.217  1.00  0.00     0.011 C 
ENDBRANCH  34  35
ENDBRANCH  33  34
ENDBRANCH  30  33
ENDBRANCH  24  27
ENDBRANCH  21  23
ENDBRANCH   1  21
TORSDOF 9
ENDMDL
MODEL 7
REMARK VINA RESULT:      -9.3      3.011      4.388
REMARK  9 active torsions:
REMARK  status: ('A' for Active; 'I' for Inactive)
REMARK    1  A    between atoms: C_3  and  O_4 
REMARK    2  A    between atoms: C_5  and  C_6 
REMARK    3  A    between atoms: C_16  and  N_17 
REMARK    4  A    between atoms: N_17  and  C_18 
REMARK    5  A    between atoms: C_18  and  N_19 
REMARK       I    between atoms: N_19  and  C_20 
REMARK    6  A    between atoms: C_20  and  C_21 
REMARK    7  A    between atoms: C_24  and  O_25 
REMARK    8  A    between atoms: O_25  and  C_26 
REMARK    9  A    between atoms: C_26  and  C_27 
ROOT
HETATM    1  N   UNL     1       4.948  30.353  53.677  1.00  0.00    -0.333 N 
HETATM    2  H   UNL     1       5.071  31.190  53.113  1.00  0.00     0.168 HD
ENDROOT
BRANCH   1   3
HETATM    3  C   UNL     1       4.989  29.135  52.968  1.00  0.00     0.035 A 
HETATM    4  C   UNL     1       5.534  27.951  53.463  1.00  0.00     0.048 A 
HETATM    5  C   UNL     1       5.494  26.754  52.719  1.00  0.00     0.053 A 
HETATM    6  C   UNL     1       4.865  26.765  51.461  1.00  0.00     0.086 A 
HETATM    7  C   UNL     1       4.313  27.945  50.944  1.00  0.00    -0.026 A 
HETATM    8  C   UNL     1       3.596  27.968  49.621  1.00  0.00     0.051 C 
HETATM    9  C   UNL     1       4.368  29.116  51.714  1.00  0.00     0.039 A 
BRANCH   5  10
HETATM   10  C   UNL     1       6.114  25.569  53.311  1.00  0.00     0.183 A 
HETATM   11  O   UNL     1       6.701  24.679  52.445  1.00  0.00    -0.289 OA
HETATM   12  C   UNL     1       7.163  23.684  53.257  1.00  0.00     0.106 A 
HETATM   13  C   UNL     1       6.850  24.023  54.563  1.00  0.00     0.093 A 
HETATM   14  C   UNL     1       7.830  22.528  52.875  1.00  0.00     0.040 A 
HETATM   15  N   UNL     1       6.185  25.225  54.586  1.00  0.00    -0.221 NA
HETATM   16  C   UNL     1       7.225  23.156  55.597  1.00  0.00     0.034 A 
HETATM   17  C   UNL     1       7.903  21.976  55.254  1.00  0.00     0.002 A 
HETATM   18  C   UNL     1       8.197  21.669  53.918  1.00  0.00     0.003 A 
ENDBRANCH   5  10
BRANCH   6  19
HETATM   19  O   UNL     1       4.751  25.644  50.679  1.00  0.00    -0.359 OA
HETATM   20  H   UNL     1       3.974  25.735  50.097  1.00  0.00     0.218 HD
ENDBRANCH   6  19
ENDBRANCH   1   3
BRANCH   1  21
HETATM   21  C   UNL     1       4.617  30.657  54.972  1.00  0.00     0.179 C 
HETATM   22  S   UNL     1       3.004  30.987  55.267  1.00  0.00    -0.040 SA
BRANCH  21  23
HETATM   23  N   UNL     1       5.655  30.747  55.874  1.00  0.00    -0.299 N 
HETATM   24  C   UNL     1       5.992  29.844  56.878  1.00  0.00     0.257 C 
HETATM   25  O   UNL     1       5.794  28.636  56.849  1.00  0.00    -0.267 OA
HETATM   26  H   UNL     1       5.949  31.701  56.016  1.00  0.00     0.171 HD
BRANCH  24  27
HETATM   27  C   UNL     1       6.719  30.415  58.042  1.00  0.00     0.032 A 
HETATM   28  C   UNL     1       7.818  29.781  58.634  1.00  0.00     0.020 A 
HETATM   29  C   UNL     1       8.479  30.387  59.711  1.00  0.00     0.038 A 
HETATM   30  C   UNL     1       8.043  31.618  60.203  1.00  0.00     0.068 A 
HETATM   31  C   UNL     1       6.918  32.222  59.639  1.00  0.00     0.038 A 
HETATM   32  C   UNL     1       6.257  31.629  58.564  1.00  0.00     0.020 A 
BRANCH  30  33
HETATM   33  O   UNL     1       8.603  32.314  61.236  1.00  0.00    -0.351 OA
BRANCH  33  34
HETATM   34  C   UNL     1       8.247  31.950  62.572  1.00  0.00     0.179 C 
BRANCH  34  35
HETATM   35  C   UNL     1       7.186  32.888  63.172  1.00  0.00     0.002 C 
HETATM   36  C   UNL     1       5.805  32.227  63.201  1.00  0.00     0.011 C 
HETATM   37  C   UNL     1       7.596  33.322  64.579  1.00  0.00     0.011 C 
ENDBRANCH  34  35
ENDBRANCH  33  34
ENDBRANCH  30  33
ENDBRANCH  24  27
ENDBRANCH  21  23
ENDBRANCH   1  21
TORSDOF 9
ENDMDL
MODEL 8
REMARK VINA RESULT:      -9.3      2.127     11.546
REMARK  9 active torsions:
REMARK  status: ('A' for Active; 'I' for Inactive)
REMARK    1  A    between atoms: C_3  and  O_4 
REMARK    2  A    between atoms: C_5  and  C_6 
REMARK    3  A    between atoms: C_16  and  N_17 
REMARK    4  A    between atoms: N_17  and  C_18 
REMARK    5  A    between atoms: C_18  and  N_19 
REMARK       I    between atoms: N_19  and  C_20 
REMARK    6  A    between atoms: C_20  and  C_21 
REMARK    7  A    between atoms: C_24  and  O_25 
REMARK    8  A    between atoms: O_25  and  C_26 
REMARK    9  A    between atoms: C_26  and  C_27 
ROOT
HETATM    1  N   UNL     1       5.697  30.252  57.430  1.00  0.00    -0.333 N 
HETATM    2  H   UNL     1       4.882  29.892  57.920  1.00  0.00     0.168 HD
ENDROOT
BRANCH   1   3
HETATM    3  C   UNL     1       6.705  30.797  58.251  1.00  0.00     0.035 A 
HETATM    4  C   UNL     1       6.494  31.285  59.541  1.00  0.00     0.048 A 
HETATM    5  C   UNL     1       7.559  31.769  60.328  1.00  0.00     0.053 A 
HETATM    6  C   UNL     1       8.860  31.730  59.795  1.00  0.00     0.086 A 
HETATM    7  C   UNL     1       9.093  31.247  58.500  1.00  0.00    -0.026 A 
HETATM    8  C   UNL     1      10.482  31.155  57.929  1.00  0.00     0.051 C 
HETATM    9  C   UNL     1       8.010  30.769  57.748  1.00  0.00     0.039 A 
BRANCH   5  10
HETATM   10  C   UNL     1       7.237  32.282  61.659  1.00  0.00     0.183 A 
HETATM   11  O   UNL     1       5.904  32.385  61.977  1.00  0.00    -0.289 OA
HETATM   12  C   UNL     1       5.905  32.904  63.238  1.00  0.00     0.106 A 
HETATM   13  C   UNL     1       7.224  33.075  63.626  1.00  0.00     0.093 A 
HETATM   14  C   UNL     1       4.801  33.217  64.021  1.00  0.00     0.040 A 
HETATM   15  N   UNL     1       8.062  32.673  62.615  1.00  0.00    -0.221 NA
HETATM   16  C   UNL     1       7.495  33.596  64.897  1.00  0.00     0.034 A 
HETATM   17  C   UNL     1       6.407  33.924  65.721  1.00  0.00     0.002 A 
HETATM   18  C   UNL     1       5.086  33.739  65.288  1.00  0.00     0.003 A 
ENDBRANCH   5  10
BRANCH   6  19
HETATM   19  O   UNL     1       9.961  32.151  60.497  1.00  0.00    -0.359 OA
HETATM   20  H   UNL     1      10.527  31.383  60.699  1.00  0.00     0.218 HD
ENDBRANCH   6  19
ENDBRANCH   1   3
BRANCH   1  21
HETATM   21  C   UNL     1       5.516  30.245  56.071  1.00  0.00     0.179 C 
HETATM   22  S   UNL     1       4.936  31.660  55.393  1.00  0.00    -0.040 SA
BRANCH  21  23
HETATM   23  N   UNL     1       5.744  29.052  55.420  1.00  0.00    -0.299 N 
HETATM   24  C   UNL     1       5.272  27.789  55.767  1.00  0.00     0.257 C 
HETATM   25  O   UNL     1       4.224  27.554  56.354  1.00  0.00    -0.267 OA
HETATM   26  H   UNL     1       6.592  29.076  54.875  1.00  0.00     0.171 HD
BRANCH  24  27
HETATM   27  C   UNL     1       6.100  26.642  55.308  1.00  0.00     0.032 A 
HETATM   28  C   UNL     1       6.313  25.501  56.090  1.00  0.00     0.020 A 
HETATM   29  C   UNL     1       7.079  24.441  55.587  1.00  0.00     0.038 A 
HETATM   30  C   UNL     1       7.637  24.519  54.309  1.00  0.00     0.068 A 
HETATM   31  C   UNL     1       7.458  25.678  53.553  1.00  0.00     0.038 A 
HETATM   32  C   UNL     1       6.693  26.736  54.044  1.00  0.00     0.020 A 
BRANCH  30  33
HETATM   33  O   UNL     1       8.391  23.555  53.703  1.00  0.00    -0.351 OA
BRANCH  33  34
HETATM   34  C   UNL     1       8.859  22.460  54.494  1.00  0.00     0.179 C 
BRANCH  34  35
HETATM   35  C   UNL     1       8.037  21.180  54.266  1.00  0.00     0.002 C 
HETATM   36  C   UNL     1       8.325  20.566  52.894  1.00  0.00     0.011 C 
HETATM   37  C   UNL     1       8.318  20.165  55.372  1.00  0.00     0.011 C 
ENDBRANCH  34  35
ENDBRANCH  33  34
ENDBRANCH  30  33
ENDBRANCH  24  27
ENDBRANCH  21  23
ENDBRANCH   1  21
TORSDOF 9
ENDMDL
MODEL 9
REMARK VINA RESULT:      -9.2      5.699     11.428
REMARK  9 active torsions:
REMARK  status: ('A' for Active; 'I' for Inactive)
REMARK    1  A    between atoms: C_3  and  O_4 
REMARK    2  A    between atoms: C_5  and  C_6 
REMARK    3  A    between atoms: C_16  and  N_17 
REMARK    4  A    between atoms: N_17  and  C_18 
REMARK    5  A    between atoms: C_18  and  N_19 
REMARK       I    between atoms: N_19  and  C_20 
REMARK    6  A    between atoms: C_20  and  C_21 
REMARK    7  A    between atoms: C_24  and  O_25 
REMARK    8  A    between atoms: O_25  and  C_26 
REMARK    9  A    between atoms: C_26  and  C_27 
ROOT
HETATM    1  N   UNL     1       5.863  28.959  53.546  1.00  0.00    -0.333 N 
HETATM    2  H   UNL     1       6.510  29.356  52.869  1.00  0.00     0.168 HD
ENDROOT
BRANCH   1   3
HETATM    3  C   UNL     1       6.448  28.135  54.529  1.00  0.00     0.035 A 
HETATM    4  C   UNL     1       6.737  26.782  54.354  1.00  0.00     0.048 A 
HETATM    5  C   UNL     1       7.372  26.028  55.363  1.00  0.00     0.053 A 
HETATM    6  C   UNL     1       7.736  26.676  56.557  1.00  0.00     0.086 A 
HETATM    7  C   UNL     1       7.452  28.034  56.754  1.00  0.00    -0.026 A 
HETATM    8  C   UNL     1       7.873  28.756  58.005  1.00  0.00     0.051 C 
HETATM    9  C   UNL     1       6.823  28.754  55.726  1.00  0.00     0.039 A 
BRANCH   5  10
HETATM   10  C   UNL     1       7.612  24.610  55.097  1.00  0.00     0.183 A 
HETATM   11  O   UNL     1       7.692  23.781  56.189  1.00  0.00    -0.289 OA
HETATM   12  C   UNL     1       7.941  22.552  55.652  1.00  0.00     0.106 A 
HETATM   13  C   UNL     1       7.984  22.691  54.274  1.00  0.00     0.093 A 
HETATM   14  C   UNL     1       8.124  21.356  56.334  1.00  0.00     0.040 A 
HETATM   15  N   UNL     1       7.771  24.005  53.932  1.00  0.00    -0.221 NA
HETATM   16  C   UNL     1       8.224  21.560  53.485  1.00  0.00     0.034 A 
HETATM   17  C   UNL     1       8.413  20.330  54.135  1.00  0.00     0.002 A 
HETATM   18  C   UNL     1       8.365  20.233  55.533  1.00  0.00     0.003 A 
ENDBRANCH   5  10
BRANCH   6  19
HETATM   19  O   UNL     1       8.383  26.033  57.581  1.00  0.00    -0.359 OA
HETATM   20  H   UNL     1       8.877  25.272  57.223  1.00  0.00     0.218 HD
ENDBRANCH   6  19
ENDBRANCH   1   3
BRANCH   1  21
HETATM   21  C   UNL     1       4.558  29.218  53.214  1.00  0.00     0.179 C 
HETATM   22  S   UNL     1       3.739  30.288  54.206  1.00  0.00    -0.040 SA
BRANCH  21  23
HETATM   23  N   UNL     1       4.033  28.506  52.158  1.00  0.00    -0.299 N 
HETATM   24  C   UNL     1       4.717  27.956  51.078  1.00  0.00     0.257 C 
HETATM   25  O   UNL     1       5.875  27.558  51.093  1.00  0.00    -0.267 OA
HETATM   26  H   UNL     1       3.059  28.720  52.006  1.00  0.00     0.171 HD
BRANCH  24  27
HETATM   27  C   UNL     1       3.924  27.782  49.832  1.00  0.00     0.032 A 
HETATM   28  C   UNL     1       4.323  26.932  48.794  1.00  0.00     0.020 A 
HETATM   29  C   UNL     1       3.515  26.789  47.657  1.00  0.00     0.038 A 
HETATM   30  C   UNL     1       2.316  27.495  47.552  1.00  0.00     0.068 A 
HETATM   31  C   UNL     1       1.948  28.376  48.570  1.00  0.00     0.038 A 
HETATM   32  C   UNL     1       2.743  28.521  49.706  1.00  0.00     0.020 A 
BRANCH  30  33
HETATM   33  O   UNL     1       1.439  27.438  46.507  1.00  0.00    -0.351 OA
BRANCH  33  34
HETATM   34  C   UNL     1       0.040  27.526  46.788  1.00  0.00     0.179 C 
BRANCH  34  35
HETATM   35  C   UNL     1      -0.684  28.512  45.855  1.00  0.00     0.002 C 
HETATM   36  C   UNL     1       0.037  29.861  45.798  1.00  0.00     0.011 C 
HETATM   37  C   UNL     1      -0.813  27.918  44.453  1.00  0.00     0.011 C 
ENDBRANCH  34  35
ENDBRANCH  33  34
ENDBRANCH  30  33
ENDBRANCH  24  27
ENDBRANCH  21  23
ENDBRANCH   1  21
TORSDOF 9
ENDMDL
MODEL 10
REMARK VINA RESULT:      -9.1      3.801      8.906
REMARK  9 active torsions:
REMARK  status: ('A' for Active; 'I' for Inactive)
REMARK    1  A    between atoms: C_3  and  O_4 
REMARK    2  A    between atoms: C_5  and  C_6 
REMARK    3  A    between atoms: C_16  and  N_17 
REMARK    4  A    between atoms: N_17  and  C_18 
REMARK    5  A    between atoms: C_18  and  N_19 
REMARK       I    between atoms: N_19  and  C_20 
REMARK    6  A    between atoms: C_20  and  C_21 
REMARK    7  A    between atoms: C_24  and  O_25 
REMARK    8  A    between atoms: O_25  and  C_26 
REMARK    9  A    between atoms: C_26  and  C_27 
ROOT
HETATM    1  N   UNL     1       4.693  32.757  57.757  1.00  0.00    -0.333 N 
HETATM    2  H   UNL     1       4.000  33.047  58.442  1.00  0.00     0.168 HD
ENDROOT
BRANCH   1   3
HETATM    3  C   UNL     1       5.726  31.937  58.253  1.00  0.00     0.035 A 
HETATM    4  C   UNL     1       5.973  30.632  57.825  1.00  0.00     0.048 A 
HETATM    5  C   UNL     1       7.058  29.885  58.327  1.00  0.00     0.053 A 
HETATM    6  C   UNL     1       7.916  30.492  59.262  1.00  0.00     0.086 A 
HETATM    7  C   UNL     1       7.684  31.800  59.707  1.00  0.00    -0.026 A 
HETATM    8  C   UNL     1       8.616  32.483  60.672  1.00  0.00     0.051 C 
HETATM    9  C   UNL     1       6.597  32.515  59.182  1.00  0.00     0.039 A 
BRANCH   5  10
HETATM   10  C   UNL     1       7.221  28.517  57.836  1.00  0.00     0.183 A 
HETATM   11  O   UNL     1       6.114  27.922  57.282  1.00  0.00    -0.289 OA
HETATM   12  C   UNL     1       6.545  26.673  56.944  1.00  0.00     0.106 A 
HETATM   13  C   UNL     1       7.883  26.577  57.291  1.00  0.00     0.093 A 
HETATM   14  C   UNL     1       5.804  25.657  56.356  1.00  0.00     0.040 A 
HETATM   15  N   UNL     1       8.303  27.757  57.856  1.00  0.00    -0.221 NA
HETATM   16  C   UNL     1       8.564  25.380  57.040  1.00  0.00     0.034 A 
HETATM   17  C   UNL     1       7.852  24.327  56.446  1.00  0.00     0.002 A 
HETATM   18  C   UNL     1       6.497  24.465  56.112  1.00  0.00     0.003 A 
ENDBRANCH   5  10
BRANCH   6  19
HETATM   19  O   UNL     1       9.013  29.854  59.783  1.00  0.00    -0.359 OA
HETATM   20  H   UNL     1       9.025  29.973  60.751  1.00  0.00     0.218 HD
ENDBRANCH   6  19
ENDBRANCH   1   3
BRANCH   1  21
HETATM   21  C   UNL     1       4.510  33.385  56.551  1.00  0.00     0.179 C 
HETATM   22  S   UNL     1       4.523  35.058  56.577  1.00  0.00    -0.040 SA
BRANCH  21  23
HETATM   23  N   UNL     1       4.245  32.579  55.465  1.00  0.00    -0.299 N 
HETATM   24  C   UNL     1       3.260  31.602  55.350  1.00  0.00     0.257 C 
HETATM   25  O   UNL     1       2.179  31.606  55.924  1.00  0.00    -0.267 OA
HETATM   26  H   UNL     1       5.053  32.469  54.872  1.00  0.00     0.171 HD
BRANCH  24  27
HETATM   27  C   UNL     1       3.546  30.510  54.382  1.00  0.00     0.032 A 
HETATM   28  C   UNL     1       3.378  30.659  53.001  1.00  0.00     0.020 A 
HETATM   29  C   UNL     1       3.693  29.600  52.139  1.00  0.00     0.038 A 
HETATM   30  C   UNL     1       4.169  28.392  52.652  1.00  0.00     0.068 A 
HETATM   31  C   UNL     1       4.290  28.234  54.033  1.00  0.00     0.038 A 
HETATM   32  C   UNL     1       3.983  29.285  54.898  1.00  0.00     0.020 A 
BRANCH  30  33
HETATM   33  O   UNL     1       4.519  27.292  51.922  1.00  0.00    -0.351 OA
BRANCH  33  34
HETATM   34  C   UNL     1       5.906  26.969  51.802  1.00  0.00     0.179 C 
BRANCH  34  35
HETATM   35  C   UNL     1       6.287  25.710  52.599  1.00  0.00     0.002 C 
HETATM   36  C   UNL     1       5.136  24.701  52.635  1.00  0.00     0.011 C 
HETATM   37  C   UNL     1       7.540  25.067  52.009  1.00  0.00     0.011 C 
ENDBRANCH  34  35
ENDBRANCH  33  34
ENDBRANCH  30  33
ENDBRANCH  24  27
ENDBRANCH  21  23
ENDBRANCH   1  21
TORSDOF 9
ENDMDL
