MODEL 1
REMARK VINA RESULT:     -11.2      0.000      0.000
REMARK  6 active torsions:
REMARK  status: ('A' for Active; 'I' for Inactive)
REMARK    1  A    between atoms: C_7  and  C_8 
REMARK    2  A    between atoms: C_8  and  O_9 
REMARK    3  A    between atoms: O_9  and  C_10 
REMARK    4  A    between atoms: C_10  and  C_11 
REMARK       I    between atoms: C_11  and  N_12 
REMARK    5  A    between atoms: N_12  and  N_13 
REMARK    6  A    between atoms: C_17  and  C_18 
ROOT
HETATM    1  C   UNL     1       8.354  28.336  56.909  1.00  0.00     0.261 C 
HETATM    2  N   UNL     1       7.324  28.510  56.010  1.00  0.00    -0.255 N 
HETATM    3  O   UNL     1       8.639  27.256  57.422  1.00  0.00    -0.269 OA
HETATM    4  H   UNL     1       7.249  29.367  55.460  1.00  0.00     0.191 HD
ENDROOT
BRANCH   1   5
HETATM    5  C   UNL     1       9.161  29.609  57.183  1.00  0.00     0.283 C 
BRANCH   5   6
HETATM    6  O   UNL     1       9.214  30.004  58.555  1.00  0.00    -0.308 OA
BRANCH   6   7
HETATM    7  C   UNL     1       9.303  31.337  58.779  1.00  0.00     0.293 C 
HETATM    8  O   UNL     1      10.178  32.064  58.329  1.00  0.00    -0.259 OA
BRANCH   7   9
HETATM    9  C   UNL     1       8.146  31.826  59.572  1.00  0.00     0.040 A 
HETATM   10  C   UNL     1       6.906  31.921  58.932  1.00  0.00     0.020 A 
HETATM   11  C   UNL     1       5.761  32.323  59.626  1.00  0.00     0.031 A 
HETATM   12  C   UNL     1       5.903  32.627  60.985  1.00  0.00     0.043 A 
HETATM   13  C   UNL     1       7.125  32.566  61.653  1.00  0.00    -0.001 A 
HETATM   14  N   UNL     1       4.959  33.013  61.905  1.00  0.00    -0.359 N 
HETATM   15  C   UNL     1       6.890  32.947  63.014  1.00  0.00    -0.027 A 
HETATM   16  C   UNL     1       8.269  32.162  60.931  1.00  0.00     0.032 A 
HETATM   17  C   UNL     1       7.901  33.040  64.102  1.00  0.00     0.051 C 
HETATM   18  C   UNL     1       5.531  33.192  63.138  1.00  0.00     0.012 A 
HETATM   19  C   UNL     1       4.724  33.574  64.325  1.00  0.00     0.068 C 
HETATM   20  H   UNL     1       3.976  33.126  61.699  1.00  0.00     0.166 HD
ENDBRANCH   7   9
ENDBRANCH   6   7
ENDBRANCH   5   6
ENDBRANCH   1   5
BRANCH   2  21
HETATM   21  N   UNL     1       6.671  27.392  55.538  1.00  0.00    -0.167 N 
HETATM   22  C   UNL     1       5.548  26.860  56.110  1.00  0.00     0.345 A 
HETATM   23  O   UNL     1       4.925  27.252  57.084  1.00  0.00    -0.245 OA
HETATM   24  N   UNL     1       5.162  25.779  55.340  1.00  0.00    -0.319 N 
HETATM   25  C   UNL     1       6.030  25.566  54.193  1.00  0.00     0.141 A 
HETATM   26  H   UNL     1       4.340  25.237  55.570  1.00  0.00     0.166 HD
HETATM   27  C   UNL     1       7.004  26.762  54.367  1.00  0.00     0.279 A 
HETATM   28  C   UNL     1       5.219  25.751  52.908  1.00  0.00     0.055 C 
HETATM   29  O   UNL     1       7.878  27.106  53.578  1.00  0.00    -0.268 OA
BRANCH  25  30
HETATM   30  C   UNL     1       6.765  24.230  54.234  1.00  0.00    -0.021 A 
HETATM   31  C   UNL     1       7.078  23.578  55.440  1.00  0.00     0.010 A 
HETATM   32  C   UNL     1       7.754  22.354  55.445  1.00  0.00     0.001 A 
HETATM   33  C   UNL     1       8.135  21.760  54.245  1.00  0.00     0.000 A 
HETATM   34  C   UNL     1       7.843  22.389  53.040  1.00  0.00     0.001 A 
HETATM   35  C   UNL     1       7.166  23.610  53.035  1.00  0.00     0.010 A 
ENDBRANCH  25  30
ENDBRANCH   2  21
TORSDOF 6
ENDMDL
MODEL 2
REMARK VINA RESULT:     -11.0      0.783      1.569
REMARK  6 active torsions:
REMARK  status: ('A' for Active; 'I' for Inactive)
REMARK    1  A    between atoms: C_7  and  C_8 
REMARK    2  A    between atoms: C_8  and  O_9 
REMARK    3  A    between atoms: O_9  and  C_10 
REMARK    4  A    between atoms: C_10  and  C_11 
REMARK       I    between atoms: C_11  and  N_12 
REMARK    5  A    between atoms: N_12  and  N_13 
REMARK    6  A    between atoms: C_17  and  C_18 
ROOT
HETATM    1  C   UNL     1       8.247  28.385  56.825  1.00  0.00     0.261 C 
HETATM    2  N   UNL     1       7.256  28.461  55.870  1.00  0.00    -0.255 N 
HETATM    3  O   UNL     1       8.521  27.360  57.447  1.00  0.00    -0.269 OA
HETATM    4  H   UNL     1       7.196  29.263  55.241  1.00  0.00     0.191 HD
ENDROOT
BRANCH   1   5
HETATM    5  C   UNL     1       9.025  29.690  57.019  1.00  0.00     0.283 C 
BRANCH   5   6
HETATM    6  O   UNL     1       9.543  29.893  58.334  1.00  0.00    -0.308 OA
BRANCH   6   7
HETATM    7  C   UNL     1       9.744  31.183  58.694  1.00  0.00     0.293 C 
HETATM    8  O   UNL     1      10.491  31.961  58.117  1.00  0.00    -0.259 OA
BRANCH   7   9
HETATM    9  C   UNL     1       8.867  31.566  59.831  1.00  0.00     0.040 A 
HETATM   10  C   UNL     1       9.437  31.620  61.108  1.00  0.00     0.020 A 
HETATM   11  C   UNL     1       8.688  32.023  62.217  1.00  0.00     0.031 A 
HETATM   12  C   UNL     1       7.349  32.369  62.003  1.00  0.00     0.043 A 
HETATM   13  C   UNL     1       6.740  32.306  60.751  1.00  0.00    -0.001 A 
HETATM   14  N   UNL     1       6.403  32.821  62.890  1.00  0.00    -0.359 N 
HETATM   15  C   UNL     1       5.379  32.722  60.914  1.00  0.00    -0.027 A 
HETATM   16  C   UNL     1       7.513  31.892  59.645  1.00  0.00     0.032 A 
HETATM   17  C   UNL     1       4.338  32.806  59.853  1.00  0.00     0.051 C 
HETATM   18  C   UNL     1       5.214  33.057  62.249  1.00  0.00     0.012 A 
HETATM   19  C   UNL     1       4.030  33.591  62.971  1.00  0.00     0.068 C 
HETATM   20  H   UNL     1       6.573  32.976  63.874  1.00  0.00     0.166 HD
ENDBRANCH   7   9
ENDBRANCH   6   7
ENDBRANCH   5   6
ENDBRANCH   1   5
BRANCH   2  21
HETATM   21  N   UNL     1       6.639  27.294  55.473  1.00  0.00    -0.167 N 
HETATM   22  C   UNL     1       5.571  26.733  56.118  1.00  0.00     0.345 A 
HETATM   23  O   UNL     1       4.974  27.134  57.104  1.00  0.00    -0.245 OA
HETATM   24  N   UNL     1       5.204  25.605  55.409  1.00  0.00    -0.319 N 
HETATM   25  C   UNL     1       6.028  25.387  54.231  1.00  0.00     0.141 A 
HETATM   26  H   UNL     1       4.421  25.034  55.698  1.00  0.00     0.166 HD
HETATM   27  C   UNL     1       6.948  26.633  54.312  1.00  0.00     0.279 A 
HETATM   28  C   UNL     1       5.151  25.480  52.980  1.00  0.00     0.055 C 
HETATM   29  O   UNL     1       7.768  26.986  53.470  1.00  0.00    -0.268 OA
BRANCH  25  30
HETATM   30  C   UNL     1       6.829  24.090  54.288  1.00  0.00    -0.021 A 
HETATM   31  C   UNL     1       7.178  23.472  55.502  1.00  0.00     0.010 A 
HETATM   32  C   UNL     1       7.915  22.284  55.522  1.00  0.00     0.001 A 
HETATM   33  C   UNL     1       8.322  21.693  54.330  1.00  0.00     0.000 A 
HETATM   34  C   UNL     1       7.996  22.289  53.117  1.00  0.00     0.001 A 
HETATM   35  C   UNL     1       7.258  23.474  53.096  1.00  0.00     0.010 A 
ENDBRANCH  25  30
ENDBRANCH   2  21
TORSDOF 6
ENDMDL
MODEL 3
REMARK VINA RESULT:     -11.0      1.178      1.890
REMARK  6 active torsions:
REMARK  status: ('A' for Active; 'I' for Inactive)
REMARK    1  A    between atoms: C_7  and  C_8 
REMARK    2  A    between atoms: C_8  and  O_9 
REMARK    3  A    between atoms: O_9  and  C_10 
REMARK    4  A    between atoms: C_10  and  C_11 
REMARK       I    between atoms: C_11  and  N_12 
REMARK    5  A    between atoms: N_12  and  N_13 
REMARK    6  A    between atoms: C_17  and  C_18 
ROOT
HETATM    1  C   UNL     1       8.388  28.014  56.737  1.00  0.00     0.261 C 
HETATM    2  N   UNL     1       7.389  28.110  55.791  1.00  0.00    -0.255 N 
HETATM    3  O   UNL     1       8.654  26.981  57.348  1.00  0.00    -0.269 OA
HETATM    4  H   UNL     1       7.335  28.918  55.170  1.00  0.00     0.191 HD
ENDROOT
BRANCH   1   5
HETATM    5  C   UNL     1       9.186  29.307  56.932  1.00  0.00     0.283 C 
BRANCH   5   6
HETATM    6  O   UNL     1       9.115  29.865  58.245  1.00  0.00    -0.308 OA
BRANCH   6   7
HETATM    7  C   UNL     1       7.994  30.572  58.523  1.00  0.00     0.293 C 
HETATM    8  O   UNL     1       7.063  30.738  57.747  1.00  0.00    -0.259 OA
BRANCH   7   9
HETATM    9  C   UNL     1       7.995  31.049  59.930  1.00  0.00     0.040 A 
HETATM   10  C   UNL     1       8.975  30.544  60.792  1.00  0.00     0.020 A 
HETATM   11  C   UNL     1       9.071  30.985  62.115  1.00  0.00     0.031 A 
HETATM   12  C   UNL     1       8.152  31.949  62.544  1.00  0.00     0.043 A 
HETATM   13  C   UNL     1       7.148  32.460  61.722  1.00  0.00    -0.001 A 
HETATM   14  N   UNL     1       8.033  32.574  63.761  1.00  0.00    -0.359 N 
HETATM   15  C   UNL     1       6.403  33.409  62.494  1.00  0.00    -0.027 A 
HETATM   16  C   UNL     1       7.066  31.997  60.391  1.00  0.00     0.032 A 
HETATM   17  C   UNL     1       5.227  34.202  62.040  1.00  0.00     0.051 C 
HETATM   18  C   UNL     1       6.996  33.472  63.745  1.00  0.00     0.012 A 
HETATM   19  C   UNL     1       6.674  34.313  64.926  1.00  0.00     0.068 C 
HETATM   20  H   UNL     1       8.644  32.406  64.549  1.00  0.00     0.166 HD
ENDBRANCH   7   9
ENDBRANCH   6   7
ENDBRANCH   5   6
ENDBRANCH   1   5
BRANCH   2  21
HETATM   21  N   UNL     1       6.753  26.955  55.392  1.00  0.00    -0.167 N 
HETATM   22  C   UNL     1       5.684  26.404  56.043  1.00  0.00     0.345 A 
HETATM   23  O   UNL     1       5.102  26.805  57.038  1.00  0.00    -0.245 OA
HETATM   24  N   UNL     1       5.295  25.286  55.329  1.00  0.00    -0.319 N 
HETATM   25  C   UNL     1       6.105  25.066  54.141  1.00  0.00     0.141 A 
HETATM   26  H   UNL     1       4.508  24.723  55.622  1.00  0.00     0.166 HD
HETATM   27  C   UNL     1       7.042  26.299  54.223  1.00  0.00     0.279 A 
HETATM   28  C   UNL     1       5.217  25.181  52.899  1.00  0.00     0.055 C 
HETATM   29  O   UNL     1       7.858  26.648  53.375  1.00  0.00    -0.268 OA
BRANCH  25  30
HETATM   30  C   UNL     1       6.889  23.758  54.181  1.00  0.00    -0.021 A 
HETATM   31  C   UNL     1       7.357  23.123  53.017  1.00  0.00     0.010 A 
HETATM   32  C   UNL     1       8.071  21.923  53.087  1.00  0.00     0.001 A 
HETATM   33  C   UNL     1       8.327  21.331  54.320  1.00  0.00     0.000 A 
HETATM   34  C   UNL     1       7.869  21.936  55.484  1.00  0.00     0.001 A 
HETATM   35  C   UNL     1       7.157  23.136  55.416  1.00  0.00     0.010 A 
ENDBRANCH  25  30
ENDBRANCH   2  21
TORSDOF 6
ENDMDL
MODEL 4
REMARK VINA RESULT:     -10.3      1.607      2.479
REMARK  6 active torsions:
REMARK  status: ('A' for Active; 'I' for Inactive)
REMARK    1  A    between atoms: C_7  and  C_8 
REMARK    2  A    between atoms: C_8  and  O_9 
REMARK    3  A    between atoms: O_9  and  C_10 
REMARK    4  A    between atoms: C_10  and  C_11 
REMARK       I    between atoms: C_11  and  N_12 
REMARK    5  A    between atoms: N_12  and  N_13 
REMARK    6  A    between atoms: C_17  and  C_18 
ROOT
HETATM    1  C   UNL     1       7.997  29.119  57.771  1.00  0.00     0.261 C 
HETATM    2  N   UNL     1       7.413  29.548  56.598  1.00  0.00    -0.255 N 
HETATM    3  O   UNL     1       7.932  27.964  58.186  1.00  0.00    -0.269 OA
HETATM    4  H   UNL     1       7.657  30.452  56.193  1.00  0.00     0.191 HD
ENDROOT
BRANCH   1   5
HETATM    5  C   UNL     1       8.790  30.206  58.504  1.00  0.00     0.283 C 
BRANCH   5   6
HETATM    6  O   UNL     1       8.043  30.948  59.470  1.00  0.00    -0.308 OA
BRANCH   6   7
HETATM    7  C   UNL     1       8.466  30.837  60.751  1.00  0.00     0.293 C 
HETATM    8  O   UNL     1       9.333  30.064  61.136  1.00  0.00    -0.259 OA
BRANCH   7   9
HETATM    9  C   UNL     1       7.806  31.843  61.624  1.00  0.00     0.040 A 
HETATM   10  C   UNL     1       8.277  31.983  62.934  1.00  0.00     0.020 A 
HETATM   11  C   UNL     1       7.741  32.944  63.796  1.00  0.00     0.031 A 
HETATM   12  C   UNL     1       6.718  33.759  63.300  1.00  0.00     0.043 A 
HETATM   13  C   UNL     1       6.207  33.635  62.009  1.00  0.00    -0.001 A 
HETATM   14  N   UNL     1       6.039  34.788  63.906  1.00  0.00    -0.359 N 
HETATM   15  C   UNL     1       5.177  34.619  61.859  1.00  0.00    -0.027 A 
HETATM   16  C   UNL     1       6.760  32.655  61.157  1.00  0.00     0.032 A 
HETATM   17  C   UNL     1       4.340  34.857  60.651  1.00  0.00     0.051 C 
HETATM   18  C   UNL     1       5.119  35.332  63.046  1.00  0.00     0.012 A 
HETATM   19  C   UNL     1       4.274  36.490  63.437  1.00  0.00     0.068 C 
HETATM   20  H   UNL     1       6.214  35.109  64.848  1.00  0.00     0.166 HD
ENDBRANCH   7   9
ENDBRANCH   6   7
ENDBRANCH   5   6
ENDBRANCH   1   5
BRANCH   2  21
HETATM   21  N   UNL     1       6.855  28.605  55.762  1.00  0.00    -0.167 N 
HETATM   22  C   UNL     1       5.596  28.093  55.914  1.00  0.00     0.345 A 
HETATM   23  O   UNL     1       4.756  28.361  56.758  1.00  0.00    -0.245 OA
HETATM   24  N   UNL     1       5.377  27.214  54.871  1.00  0.00    -0.319 N 
HETATM   25  C   UNL     1       6.507  27.128  53.960  1.00  0.00     0.141 A 
HETATM   26  H   UNL     1       4.498  26.724  54.772  1.00  0.00     0.166 HD
HETATM   27  C   UNL     1       7.456  28.168  54.610  1.00  0.00     0.279 A 
HETATM   28  C   UNL     1       6.077  27.623  52.576  1.00  0.00     0.055 C 
HETATM   29  O   UNL     1       8.525  28.560  54.152  1.00  0.00    -0.268 OA
BRANCH  25  30
HETATM   30  C   UNL     1       7.138  25.740  53.914  1.00  0.00    -0.021 A 
HETATM   31  C   UNL     1       7.407  25.072  52.706  1.00  0.00     0.010 A 
HETATM   32  C   UNL     1       7.984  23.799  52.697  1.00  0.00     0.001 A 
HETATM   33  C   UNL     1       8.299  23.164  53.895  1.00  0.00     0.000 A 
HETATM   34  C   UNL     1       8.036  23.801  55.103  1.00  0.00     0.001 A 
HETATM   35  C   UNL     1       7.462  25.074  55.113  1.00  0.00     0.010 A 
ENDBRANCH  25  30
ENDBRANCH   2  21
TORSDOF 6
ENDMDL
MODEL 5
REMARK VINA RESULT:      -9.7      2.036      3.328
REMARK  6 active torsions:
REMARK  status: ('A' for Active; 'I' for Inactive)
REMARK    1  A    between atoms: C_7  and  C_8 
REMARK    2  A    between atoms: C_8  and  O_9 
REMARK    3  A    between atoms: O_9  and  C_10 
REMARK    4  A    between atoms: C_10  and  C_11 
REMARK       I    between atoms: C_11  and  N_12 
REMARK    5  A    between atoms: N_12  and  N_13 
REMARK    6  A    between atoms: C_17  and  C_18 
ROOT
HETATM    1  C   UNL     1       5.288  29.925  56.761  1.00  0.00     0.261 C 
HETATM    2  N   UNL     1       5.673  28.995  57.704  1.00  0.00    -0.255 N 
HETATM    3  O   UNL     1       5.753  29.980  55.624  1.00  0.00    -0.269 OA
HETATM    4  H   UNL     1       5.126  28.856  58.554  1.00  0.00     0.191 HD
ENDROOT
BRANCH   1   5
HETATM    5  C   UNL     1       4.180  30.869  57.236  1.00  0.00     0.283 C 
BRANCH   5   6
HETATM    6  O   UNL     1       4.408  31.473  58.510  1.00  0.00    -0.308 OA
BRANCH   6   7
HETATM    7  C   UNL     1       5.326  32.469  58.532  1.00  0.00     0.293 C 
HETATM    8  O   UNL     1       5.523  33.257  57.617  1.00  0.00    -0.259 OA
BRANCH   7   9
HETATM    9  C   UNL     1       6.007  32.542  59.850  1.00  0.00     0.040 A 
HETATM   10  C   UNL     1       7.369  32.224  59.903  1.00  0.00     0.020 A 
HETATM   11  C   UNL     1       8.089  32.321  61.097  1.00  0.00     0.031 A 
HETATM   12  C   UNL     1       7.398  32.748  62.236  1.00  0.00     0.043 A 
HETATM   13  C   UNL     1       6.037  33.052  62.229  1.00  0.00    -0.001 A 
HETATM   14  N   UNL     1       7.852  32.959  63.515  1.00  0.00    -0.359 N 
HETATM   15  C   UNL     1       5.677  33.441  63.559  1.00  0.00    -0.027 A 
HETATM   16  C   UNL     1       5.328  32.943  61.013  1.00  0.00     0.032 A 
HETATM   17  C   UNL     1       4.326  33.844  64.037  1.00  0.00     0.051 C 
HETATM   18  C   UNL     1       6.833  33.396  64.323  1.00  0.00     0.012 A 
HETATM   19  C   UNL     1       7.062  33.738  65.751  1.00  0.00     0.068 C 
HETATM   20  H   UNL     1       8.810  32.830  63.807  1.00  0.00     0.166 HD
ENDBRANCH   7   9
ENDBRANCH   6   7
ENDBRANCH   5   6
ENDBRANCH   1   5
BRANCH   2  21
HETATM   21  N   UNL     1       6.510  27.973  57.311  1.00  0.00    -0.167 N 
HETATM   22  C   UNL     1       7.862  27.966  57.517  1.00  0.00     0.345 A 
HETATM   23  O   UNL     1       8.557  28.803  58.070  1.00  0.00    -0.245 OA
HETATM   24  N   UNL     1       8.350  26.769  57.029  1.00  0.00    -0.319 N 
HETATM   25  C   UNL     1       7.306  25.914  56.486  1.00  0.00     0.141 A 
HETATM   26  H   UNL     1       9.333  26.539  57.089  1.00  0.00     0.166 HD
HETATM   27  C   UNL     1       6.061  26.791  56.781  1.00  0.00     0.279 A 
HETATM   28  C   UNL     1       7.231  24.627  57.311  1.00  0.00     0.055 C 
HETATM   29  O   UNL     1       4.889  26.466  56.614  1.00  0.00    -0.268 OA
BRANCH  25  30
HETATM   30  C   UNL     1       7.466  25.644  54.993  1.00  0.00    -0.021 A 
HETATM   31  C   UNL     1       7.318  26.652  54.024  1.00  0.00     0.010 A 
HETATM   32  C   UNL     1       7.468  26.373  52.663  1.00  0.00     0.001 A 
HETATM   33  C   UNL     1       7.765  25.080  52.242  1.00  0.00     0.000 A 
HETATM   34  C   UNL     1       7.909  24.065  53.181  1.00  0.00     0.001 A 
HETATM   35  C   UNL     1       7.761  24.343  54.541  1.00  0.00     0.010 A 
ENDBRANCH  25  30
ENDBRANCH   2  21
TORSDOF 6
ENDMDL
MODEL 6
REMARK VINA RESULT:      -9.6      2.122      3.198
REMARK  6 active torsions:
REMARK  status: ('A' for Active; 'I' for Inactive)
REMARK    1  A    between atoms: C_7  and  C_8 
REMARK    2  A    between atoms: C_8  and  O_9 
REMARK    3  A    between atoms: O_9  and  C_10 
REMARK    4  A    between atoms: C_10  and  C_11 
REMARK       I    between atoms: C_11  and  N_12 
REMARK    5  A    between atoms: N_12  and  N_13 
REMARK    6  A    between atoms: C_17  and  C_18 
ROOT
HETATM    1  C   UNL     1       5.553  30.308  56.634  1.00  0.00     0.261 C 
HETATM    2  N   UNL     1       6.414  29.724  55.730  1.00  0.00    -0.255 N 
HETATM    3  O   UNL     1       4.973  29.689  57.524  1.00  0.00    -0.269 OA
HETATM    4  H   UNL     1       7.023  30.297  55.144  1.00  0.00     0.191 HD
ENDROOT
BRANCH   1   5
HETATM    5  C   UNL     1       5.411  31.824  56.468  1.00  0.00     0.283 C 
BRANCH   5   6
HETATM    6  O   UNL     1       5.625  32.582  57.660  1.00  0.00    -0.308 OA
BRANCH   6   7
HETATM    7  C   UNL     1       4.507  33.006  58.295  1.00  0.00     0.293 C 
HETATM    8  O   UNL     1       3.376  32.947  57.833  1.00  0.00    -0.259 OA
BRANCH   7   9
HETATM    9  C   UNL     1       4.816  33.471  59.672  1.00  0.00     0.040 A 
HETATM   10  C   UNL     1       3.994  34.456  60.231  1.00  0.00     0.020 A 
HETATM   11  C   UNL     1       4.190  34.906  61.539  1.00  0.00     0.031 A 
HETATM   12  C   UNL     1       5.239  34.334  62.269  1.00  0.00     0.043 A 
HETATM   13  C   UNL     1       6.093  33.367  61.741  1.00  0.00    -0.001 A 
HETATM   14  N   UNL     1       5.637  34.560  63.564  1.00  0.00    -0.359 N 
HETATM   15  C   UNL     1       7.037  33.025  62.761  1.00  0.00    -0.027 A 
HETATM   16  C   UNL     1       5.879  32.931  60.415  1.00  0.00     0.032 A 
HETATM   17  C   UNL     1       8.151  32.043  62.653  1.00  0.00     0.051 C 
HETATM   18  C   UNL     1       6.708  33.766  63.885  1.00  0.00     0.012 A 
HETATM   19  C   UNL     1       7.313  33.783  65.242  1.00  0.00     0.068 C 
HETATM   20  H   UNL     1       5.184  35.207  64.194  1.00  0.00     0.166 HD
ENDBRANCH   7   9
ENDBRANCH   6   7
ENDBRANCH   5   6
ENDBRANCH   1   5
BRANCH   2  21
HETATM   21  N   UNL     1       6.771  28.407  55.922  1.00  0.00    -0.167 N 
HETATM   22  C   UNL     1       7.856  28.004  56.650  1.00  0.00     0.345 A 
HETATM   23  O   UNL     1       8.670  28.684  57.252  1.00  0.00    -0.245 OA
HETATM   24  N   UNL     1       7.863  26.622  56.653  1.00  0.00    -0.319 N 
HETATM   25  C   UNL     1       6.742  26.051  55.924  1.00  0.00     0.141 A 
HETATM   26  H   UNL     1       8.575  26.101  57.147  1.00  0.00     0.166 HD
HETATM   27  C   UNL     1       6.002  27.349  55.509  1.00  0.00     0.279 A 
HETATM   28  C   UNL     1       5.867  25.251  56.892  1.00  0.00     0.055 C 
HETATM   29  O   UNL     1       4.908  27.416  54.957  1.00  0.00    -0.268 OA
BRANCH  25  30
HETATM   30  C   UNL     1       7.169  25.233  54.709  1.00  0.00    -0.021 A 
HETATM   31  C   UNL     1       7.582  25.829  53.505  1.00  0.00     0.010 A 
HETATM   32  C   UNL     1       7.966  25.052  52.408  1.00  0.00     0.001 A 
HETATM   33  C   UNL     1       7.940  23.663  52.491  1.00  0.00     0.000 A 
HETATM   34  C   UNL     1       7.529  23.050  53.669  1.00  0.00     0.001 A 
HETATM   35  C   UNL     1       7.147  23.825  54.765  1.00  0.00     0.010 A 
ENDBRANCH  25  30
ENDBRANCH   2  21
TORSDOF 6
ENDMDL
MODEL 7
REMARK VINA RESULT:      -9.3      6.588     10.552
REMARK  6 active torsions:
REMARK  status: ('A' for Active; 'I' for Inactive)
REMARK    1  A    between atoms: C_7  and  C_8 
REMARK    2  A    between atoms: C_8  and  O_9 
REMARK    3  A    between atoms: O_9  and  C_10 
REMARK    4  A    between atoms: C_10  and  C_11 
REMARK       I    between atoms: C_11  and  N_12 
REMARK    5  A    between atoms: N_12  and  N_13 
REMARK    6  A    between atoms: C_17  and  C_18 
ROOT
HETATM    1  C   UNL     1       4.994  27.062  50.283  1.00  0.00     0.261 C 
HETATM    2  N   UNL     1       3.731  26.864  49.765  1.00  0.00    -0.255 N 
HETATM    3  O   UNL     1       5.656  28.082  50.102  1.00  0.00    -0.269 OA
HETATM    4  H   UNL     1       3.142  26.102  50.101  1.00  0.00     0.191 HD
ENDROOT
BRANCH   1   5
HETATM    5  C   UNL     1       5.493  25.910  51.159  1.00  0.00     0.283 C 
BRANCH   5   6
HETATM    6  O   UNL     1       6.602  26.230  52.002  1.00  0.00    -0.308 OA
BRANCH   6   7
HETATM    7  C   UNL     1       6.305  26.442  53.306  1.00  0.00     0.293 C 
HETATM    8  O   UNL     1       5.575  27.330  53.722  1.00  0.00    -0.259 OA
BRANCH   7   9
HETATM    9  C   UNL     1       6.911  25.396  54.170  1.00  0.00     0.040 A 
HETATM   10  C   UNL     1       7.232  25.740  55.488  1.00  0.00     0.020 A 
HETATM   11  C   UNL     1       7.755  24.795  56.376  1.00  0.00     0.031 A 
HETATM   12  C   UNL     1       7.946  23.495  55.897  1.00  0.00     0.043 A 
HETATM   13  C   UNL     1       7.660  23.118  54.585  1.00  0.00    -0.001 A 
HETATM   14  N   UNL     1       8.410  22.376  56.545  1.00  0.00    -0.359 N 
HETATM   15  C   UNL     1       7.984  21.729  54.456  1.00  0.00    -0.027 A 
HETATM   16  C   UNL     1       7.136  24.090  53.705  1.00  0.00     0.032 A 
HETATM   17  C   UNL     1       7.854  20.893  53.231  1.00  0.00     0.051 C 
HETATM   18  C   UNL     1       8.421  21.297  55.698  1.00  0.00     0.012 A 
HETATM   19  C   UNL     1       8.843  19.948  56.158  1.00  0.00     0.068 C 
HETATM   20  H   UNL     1       8.682  22.353  57.518  1.00  0.00     0.166 HD
ENDBRANCH   7   9
ENDBRANCH   6   7
ENDBRANCH   5   6
ENDBRANCH   1   5
BRANCH   2  21
HETATM   21  N   UNL     1       3.108  27.922  49.138  1.00  0.00    -0.167 N 
HETATM   22  C   UNL     1       2.467  28.934  49.796  1.00  0.00     0.345 A 
HETATM   23  O   UNL     1       2.337  29.106  50.997  1.00  0.00    -0.245 OA
HETATM   24  N   UNL     1       2.009  29.824  48.843  1.00  0.00    -0.319 N 
HETATM   25  C   UNL     1       2.358  29.427  47.488  1.00  0.00     0.141 A 
HETATM   26  H   UNL     1       1.512  30.665  49.105  1.00  0.00     0.166 HD
HETATM   27  C   UNL     1       3.173  28.142  47.786  1.00  0.00     0.279 A 
HETATM   28  C   UNL     1       3.279  30.486  46.876  1.00  0.00     0.055 C 
HETATM   29  O   UNL     1       3.797  27.473  46.968  1.00  0.00    -0.268 OA
BRANCH  25  30
HETATM   30  C   UNL     1       1.142  29.135  46.615  1.00  0.00    -0.021 A 
HETATM   31  C   UNL     1       0.613  27.841  46.466  1.00  0.00     0.010 A 
HETATM   32  C   UNL     1      -0.502  27.605  45.656  1.00  0.00     0.001 A 
HETATM   33  C   UNL     1      -1.108  28.657  44.975  1.00  0.00     0.000 A 
HETATM   34  C   UNL     1      -0.599  29.944  45.101  1.00  0.00     0.001 A 
HETATM   35  C   UNL     1       0.513  30.181  45.911  1.00  0.00     0.010 A 
ENDBRANCH  25  30
ENDBRANCH   2  21
TORSDOF 6
ENDMDL
MODEL 8
REMARK VINA RESULT:      -9.3      6.160     10.194
REMARK  6 active torsions:
REMARK  status: ('A' for Active; 'I' for Inactive)
REMARK    1  A    between atoms: C_7  and  C_8 
REMARK    2  A    between atoms: C_8  and  O_9 
REMARK    3  A    between atoms: O_9  and  C_10 
REMARK    4  A    between atoms: C_10  and  C_11 
REMARK       I    between atoms: C_11  and  N_12 
REMARK    5  A    between atoms: N_12  and  N_13 
REMARK    6  A    between atoms: C_17  and  C_18 
ROOT
HETATM    1  C   UNL     1       4.931  28.374  52.646  1.00  0.00     0.261 C 
HETATM    2  N   UNL     1       5.831  27.381  52.320  1.00  0.00    -0.255 N 
HETATM    3  O   UNL     1       4.448  28.519  53.767  1.00  0.00    -0.269 OA
HETATM    4  H   UNL     1       6.355  27.418  51.445  1.00  0.00     0.191 HD
ENDROOT
BRANCH   1   5
HETATM    5  C   UNL     1       4.612  29.327  51.490  1.00  0.00     0.283 C 
BRANCH   5   6
HETATM    6  O   UNL     1       5.659  29.483  50.532  1.00  0.00    -0.308 OA
BRANCH   6   7
HETATM    7  C   UNL     1       5.312  30.104  49.379  1.00  0.00     0.293 C 
HETATM    8  O   UNL     1       5.757  31.180  49.004  1.00  0.00    -0.259 OA
BRANCH   7   9
HETATM    9  C   UNL     1       4.385  29.265  48.576  1.00  0.00     0.040 A 
HETATM   10  C   UNL     1       4.769  27.950  48.293  1.00  0.00     0.020 A 
HETATM   11  C   UNL     1       3.927  27.086  47.589  1.00  0.00     0.031 A 
HETATM   12  C   UNL     1       2.686  27.585  47.177  1.00  0.00     0.043 A 
HETATM   13  C   UNL     1       2.276  28.895  47.420  1.00  0.00    -0.001 A 
HETATM   14  N   UNL     1       1.663  26.961  46.506  1.00  0.00    -0.359 N 
HETATM   15  C   UNL     1       0.969  29.048  46.854  1.00  0.00    -0.027 A 
HETATM   16  C   UNL     1       3.145  29.752  48.130  1.00  0.00     0.032 A 
HETATM   17  C   UNL     1       0.134  30.281  46.858  1.00  0.00     0.051 C 
HETATM   18  C   UNL     1       0.612  27.821  46.319  1.00  0.00     0.012 A 
HETATM   19  C   UNL     1      -0.643  27.387  45.651  1.00  0.00     0.068 C 
HETATM   20  H   UNL     1       1.681  25.994  46.213  1.00  0.00     0.166 HD
ENDBRANCH   7   9
ENDBRANCH   6   7
ENDBRANCH   5   6
ENDBRANCH   1   5
BRANCH   2  21
HETATM   21  N   UNL     1       6.341  26.602  53.336  1.00  0.00    -0.167 N 
HETATM   22  C   UNL     1       7.445  26.928  54.073  1.00  0.00     0.345 A 
HETATM   23  O   UNL     1       8.151  27.921  53.998  1.00  0.00    -0.245 OA
HETATM   24  N   UNL     1       7.623  25.934  55.017  1.00  0.00    -0.319 N 
HETATM   25  C   UNL     1       6.603  24.900  54.944  1.00  0.00     0.141 A 
HETATM   26  H   UNL     1       8.378  25.975  55.687  1.00  0.00     0.166 HD
HETATM   27  C   UNL     1       5.721  25.472  53.804  1.00  0.00     0.279 A 
HETATM   28  C   UNL     1       5.805  24.888  56.250  1.00  0.00     0.055 C 
HETATM   29  O   UNL     1       4.644  25.021  53.424  1.00  0.00    -0.268 OA
BRANCH  25  30
HETATM   30  C   UNL     1       7.164  23.526  54.589  1.00  0.00    -0.021 A 
HETATM   31  C   UNL     1       7.426  22.544  55.560  1.00  0.00     0.010 A 
HETATM   32  C   UNL     1       7.942  21.295  55.203  1.00  0.00     0.001 A 
HETATM   33  C   UNL     1       8.212  21.004  53.869  1.00  0.00     0.000 A 
HETATM   34  C   UNL     1       7.968  21.961  52.891  1.00  0.00     0.001 A 
HETATM   35  C   UNL     1       7.450  23.208  53.247  1.00  0.00     0.010 A 
ENDBRANCH  25  30
ENDBRANCH   2  21
TORSDOF 6
ENDMDL
MODEL 9
REMARK VINA RESULT:      -9.2      1.522      2.099
REMARK  6 active torsions:
REMARK  status: ('A' for Active; 'I' for Inactive)
REMARK    1  A    between atoms: C_7  and  C_8 
REMARK    2  A    between atoms: C_8  and  O_9 
REMARK    3  A    between atoms: O_9  and  C_10 
REMARK    4  A    between atoms: C_10  and  C_11 
REMARK       I    between atoms: C_11  and  N_12 
REMARK    5  A    between atoms: N_12  and  N_13 
REMARK    6  A    between atoms: C_17  and  C_18 
ROOT
HETATM    1  C   UNL     1       8.294  29.651  57.855  1.00  0.00     0.261 C 
HETATM    2  N   UNL     1       7.556  29.919  56.722  1.00  0.00    -0.255 N 
HETATM    3  O   UNL     1       8.255  28.580  58.459  1.00  0.00    -0.269 OA
HETATM    4  H   UNL     1       7.765  30.733  56.143  1.00  0.00     0.191 HD
ENDROOT
BRANCH   1   5
HETATM    5  C   UNL     1       9.218  30.795  58.281  1.00  0.00     0.283 C 
BRANCH   5   6
HETATM    6  O   UNL     1       8.553  31.934  58.830  1.00  0.00    -0.308 OA
BRANCH   6   7
HETATM    7  C   UNL     1       8.272  31.867  60.153  1.00  0.00     0.293 C 
HETATM    8  O   UNL     1       9.081  31.589  61.027  1.00  0.00    -0.259 OA
BRANCH   7   9
HETATM    9  C   UNL     1       6.866  32.266  60.424  1.00  0.00     0.040 A 
HETATM   10  C   UNL     1       5.927  32.092  59.401  1.00  0.00     0.020 A 
HETATM   11  C   UNL     1       4.577  32.396  59.598  1.00  0.00     0.031 A 
HETATM   12  C   UNL     1       4.201  32.879  60.856  1.00  0.00     0.043 A 
HETATM   13  C   UNL     1       5.109  33.086  61.893  1.00  0.00    -0.001 A 
HETATM   14  N   UNL     1       2.959  33.224  61.332  1.00  0.00    -0.359 N 
HETATM   15  C   UNL     1       4.373  33.588  63.015  1.00  0.00    -0.027 A 
HETATM   16  C   UNL     1       6.468  32.778  61.670  1.00  0.00     0.032 A 
HETATM   17  C   UNL     1       4.923  33.966  64.346  1.00  0.00     0.051 C 
HETATM   18  C   UNL     1       3.040  33.636  62.638  1.00  0.00     0.012 A 
HETATM   19  C   UNL     1       1.832  34.031  63.408  1.00  0.00     0.068 C 
HETATM   20  H   UNL     1       2.106  33.160  60.795  1.00  0.00     0.166 HD
ENDBRANCH   7   9
ENDBRANCH   6   7
ENDBRANCH   5   6
ENDBRANCH   1   5
BRANCH   2  21
HETATM   21  N   UNL     1       6.853  28.887  56.139  1.00  0.00    -0.167 N 
HETATM   22  C   UNL     1       5.596  28.503  56.519  1.00  0.00     0.345 A 
HETATM   23  O   UNL     1       4.880  28.977  57.387  1.00  0.00    -0.245 OA
HETATM   24  N   UNL     1       5.206  27.473  55.685  1.00  0.00    -0.319 N 
HETATM   25  C   UNL     1       6.212  27.145  54.687  1.00  0.00     0.141 A 
HETATM   26  H   UNL     1       4.297  27.040  55.775  1.00  0.00     0.166 HD
HETATM   27  C   UNL     1       7.286  28.211  55.028  1.00  0.00     0.279 A 
HETATM   28  C   UNL     1       5.645  27.420  53.292  1.00  0.00     0.055 C 
HETATM   29  O   UNL     1       8.311  28.438  54.392  1.00  0.00    -0.268 OA
BRANCH  25  30
HETATM   30  C   UNL     1       6.759  25.728  54.828  1.00  0.00    -0.021 A 
HETATM   31  C   UNL     1       6.568  24.744  53.842  1.00  0.00     0.010 A 
HETATM   32  C   UNL     1       7.080  23.453  54.001  1.00  0.00     0.001 A 
HETATM   33  C   UNL     1       7.789  23.118  55.151  1.00  0.00     0.000 A 
HETATM   34  C   UNL     1       7.985  24.071  56.143  1.00  0.00     0.001 A 
HETATM   35  C   UNL     1       7.476  25.362  55.984  1.00  0.00     0.010 A 
ENDBRANCH  25  30
ENDBRANCH   2  21
TORSDOF 6
ENDMDL
MODEL 10
REMARK VINA RESULT:      -9.2      2.552     10.472
REMARK  6 active torsions:
REMARK  status: ('A' for Active; 'I' for Inactive)
REMARK    1  A    between atoms: C_7  and  C_8 
REMARK    2  A    between atoms: C_8  and  O_9 
REMARK    3  A    between atoms: O_9  and  C_10 
REMARK    4  A    between atoms: C_10  and  C_11 
REMARK       I    between atoms: C_11  and  N_12 
REMARK    5  A    between atoms: N_12  and  N_13 
REMARK    6  A    between atoms: C_17  and  C_18 
ROOT
HETATM    1  C   UNL     1       4.953  31.254  58.567  1.00  0.00     0.261 C 
HETATM    2  N   UNL     1       3.818  31.846  59.079  1.00  0.00    -0.255 N 
HETATM    3  O   UNL     1       6.096  31.582  58.879  1.00  0.00    -0.269 OA
HETATM    4  H   UNL     1       2.901  31.415  58.951  1.00  0.00     0.191 HD
ENDROOT
BRANCH   1   5
HETATM    5  C   UNL     1       4.670  30.101  57.599  1.00  0.00     0.283 C 
BRANCH   5   6
HETATM    6  O   UNL     1       5.626  29.040  57.630  1.00  0.00    -0.308 OA
BRANCH   6   7
HETATM    7  C   UNL     1       6.258  28.784  56.460  1.00  0.00     0.293 C 
HETATM    8  O   UNL     1       6.441  29.603  55.571  1.00  0.00    -0.259 OA
BRANCH   7   9
HETATM    9  C   UNL     1       6.786  27.395  56.428  1.00  0.00     0.040 A 
HETATM   10  C   UNL     1       7.437  26.916  57.570  1.00  0.00     0.020 A 
HETATM   11  C   UNL     1       7.914  25.603  57.634  1.00  0.00     0.031 A 
HETATM   12  C   UNL     1       7.716  24.789  56.513  1.00  0.00     0.043 A 
HETATM   13  C   UNL     1       7.092  25.236  55.350  1.00  0.00    -0.001 A 
HETATM   14  N   UNL     1       8.049  23.471  56.311  1.00  0.00    -0.359 N 
HETATM   15  C   UNL     1       7.074  24.143  54.425  1.00  0.00    -0.027 A 
HETATM   16  C   UNL     1       6.622  26.567  55.306  1.00  0.00     0.032 A 
HETATM   17  C   UNL     1       6.518  24.152  53.044  1.00  0.00     0.051 C 
HETATM   18  C   UNL     1       7.652  23.058  55.065  1.00  0.00     0.012 A 
HETATM   19  C   UNL     1       7.857  21.661  54.604  1.00  0.00     0.068 C 
HETATM   20  H   UNL     1       8.503  22.887  57.000  1.00  0.00     0.166 HD
ENDBRANCH   7   9
ENDBRANCH   6   7
ENDBRANCH   5   6
ENDBRANCH   1   5
BRANCH   2  21
HETATM   21  N   UNL     1       3.959  32.749  60.111  1.00  0.00    -0.167 N 
HETATM   22  C   UNL     1       4.156  34.090  59.934  1.00  0.00     0.345 A 
HETATM   23  O   UNL     1       4.227  34.724  58.894  1.00  0.00    -0.245 OA
HETATM   24  N   UNL     1       4.208  34.670  61.188  1.00  0.00    -0.319 N 
HETATM   25  C   UNL     1       4.023  33.707  62.262  1.00  0.00     0.141 A 
HETATM   26  H   UNL     1       4.334  35.667  61.301  1.00  0.00     0.166 HD
HETATM   27  C   UNL     1       3.791  32.418  61.431  1.00  0.00     0.279 A 
HETATM   28  C   UNL     1       2.747  34.054  63.034  1.00  0.00     0.055 C 
HETATM   29  O   UNL     1       3.471  31.319  61.871  1.00  0.00    -0.268 OA
BRANCH  25  30
HETATM   30  C   UNL     1       5.241  33.580  63.172  1.00  0.00    -0.021 A 
HETATM   31  C   UNL     1       6.487  33.127  62.705  1.00  0.00     0.010 A 
HETATM   32  C   UNL     1       7.585  33.020  63.565  1.00  0.00     0.001 A 
HETATM   33  C   UNL     1       7.457  33.358  64.909  1.00  0.00     0.000 A 
HETATM   34  C   UNL     1       6.233  33.803  65.395  1.00  0.00     0.001 A 
HETATM   35  C   UNL     1       5.137  33.912  64.537  1.00  0.00     0.010 A 
ENDBRANCH  25  30
ENDBRANCH   2  21
TORSDOF 6
ENDMDL
