MODEL 1
REMARK VINA RESULT:      -9.7      0.000      0.000
REMARK  9 active torsions:
REMARK  status: ('A' for Active; 'I' for Inactive)
REMARK    1  A    between atoms: C_4  and  C_5 
REMARK    2  A    between atoms: C_7  and  O_8 
REMARK    3  A    between atoms: C_10  and  O_11 
REMARK    4  A    between atoms: C_16  and  C_17 
REMARK    5  A    between atoms: C_20  and  C_21 
REMARK    6  A    between atoms: C_21  and  N_22 
REMARK    7  A    between atoms: N_22  and  C_23 
REMARK    8  A    between atoms: C_23  and  N_24 
REMARK    9  A    between atoms: N_24  and  C_25 
ROOT
HETATM    1  C   UNL     1       7.487  24.530  54.104  1.00  0.00     0.034 A 
HETATM    2  C   UNL     1       6.090  24.477  54.157  1.00  0.00     0.031 A 
HETATM    3  C   UNL     1       5.321  24.900  53.068  1.00  0.00     0.025 A 
HETATM    4  C   UNL     1       5.940  25.373  51.908  1.00  0.00     0.044 A 
HETATM    5  C   UNL     1       5.147  25.810  50.797  1.00  0.00     0.099 C 
HETATM    6  N   UNL     1       4.486  26.170  49.915  1.00  0.00    -0.191 NA
HETATM    7  C   UNL     1       7.335  25.402  51.838  1.00  0.00     0.025 A 
HETATM    8  C   UNL     1       8.101  24.971  52.927  1.00  0.00     0.031 A 
ENDROOT
BRANCH   1   9
HETATM    9  N   UNL     1       8.325  24.089  55.147  1.00  0.00    -0.333 N 
HETATM   10  H   UNL     1       9.315  24.027  54.916  1.00  0.00     0.168 HD
BRANCH   9  11
HETATM   11  C   UNL     1       8.033  23.595  56.387  1.00  0.00     0.172 C 
HETATM   12  S   UNL     1       8.124  21.946  56.626  1.00  0.00    -0.041 SA
BRANCH  11  13
HETATM   13  N   UNL     1       7.740  24.519  57.358  1.00  0.00    -0.365 N 
HETATM   14  H   UNL     1       6.849  24.315  57.803  1.00  0.00     0.161 HD
BRANCH  13  15
HETATM   15  C   UNL     1       8.188  25.909  57.350  1.00  0.00     0.155 C 
BRANCH  15  16
HETATM   16  C   UNL     1       7.284  26.827  56.498  1.00  0.00     0.206 C 
HETATM   17  C   UNL     1       6.290  27.659  57.326  1.00  0.00     0.040 C 
HETATM   18  C   UNL     1       6.252  29.133  56.867  1.00  0.00     0.001 C 
HETATM   19  C   UNL     1       7.617  29.837  57.019  1.00  0.00     0.067 C 
HETATM   20  C   UNL     1       5.973  29.078  55.339  1.00  0.00     0.033 C 
HETATM   21  C   UNL     1       8.732  28.910  56.492  1.00  0.00     0.246 C 
HETATM   22  N   UNL     1       8.084  27.808  55.646  1.00  0.00    -0.065 N 
HETATM   23  C   UNL     1       7.160  28.433  54.604  1.00  0.00     0.236 C 
HETATM   24  H   UNL     1       8.833  27.301  55.153  1.00  0.00     0.280 HD
BRANCH  19  25
HETATM   25  C   UNL     1       8.005  30.532  58.295  1.00  0.00     0.038 C 
HETATM   26  N   UNL     1       9.159  31.182  58.664  1.00  0.00    -0.277 N 
HETATM   27  C   UNL     1      10.448  31.272  58.022  1.00  0.00     0.179 C 
HETATM   28  N   UNL     1       9.038  31.862  59.813  1.00  0.00    -0.172 NA
HETATM   29  C   UNL     1       7.846  31.530  60.313  1.00  0.00     0.089 C 
HETATM   30  C   UNL     1       7.172  30.688  59.399  1.00  0.00     0.061 C 
BRANCH  29  31
HETATM   31  C   UNL     1       7.370  32.053  61.592  1.00  0.00    -0.003 A 
HETATM   32  C   UNL     1       5.992  32.168  61.835  1.00  0.00     0.053 A 
HETATM   33  C   UNL     1       5.515  32.636  63.065  1.00  0.00     0.102 A 
HETATM   34  C   UNL     1       6.429  33.014  64.068  1.00  0.00     0.101 A 
HETATM   35  C   UNL     1       7.802  32.909  63.824  1.00  0.00     0.040 A 
HETATM   36  C   UNL     1       8.269  32.431  62.596  1.00  0.00     0.017 A 
BRANCH  33  37
HETATM   37  O   UNL     1       4.185  32.757  63.383  1.00  0.00    -0.353 OA
HETATM   38  C   UNL     1       3.335  33.402  62.447  1.00  0.00     0.210 C 
ENDBRANCH  33  37
BRANCH  34  39
HETATM   39  O   UNL     1       5.883  33.455  65.247  1.00  0.00    -0.353 OA
HETATM   40  C   UNL     1       5.672  34.851  65.395  1.00  0.00     0.210 C 
ENDBRANCH  34  39
ENDBRANCH  29  31
ENDBRANCH  19  25
ENDBRANCH  15  16
ENDBRANCH  13  15
ENDBRANCH  11  13
ENDBRANCH   9  11
ENDBRANCH   1   9
TORSDOF 9
ENDMDL
MODEL 2
REMARK VINA RESULT:      -9.2      3.725      6.632
REMARK  9 active torsions:
REMARK  status: ('A' for Active; 'I' for Inactive)
REMARK    1  A    between atoms: C_4  and  C_5 
REMARK    2  A    between atoms: C_7  and  O_8 
REMARK    3  A    between atoms: C_10  and  O_11 
REMARK    4  A    between atoms: C_16  and  C_17 
REMARK    5  A    between atoms: C_20  and  C_21 
REMARK    6  A    between atoms: C_21  and  N_22 
REMARK    7  A    between atoms: N_22  and  C_23 
REMARK    8  A    between atoms: C_23  and  N_24 
REMARK    9  A    between atoms: N_24  and  C_25 
ROOT
HETATM    1  C   UNL     1       3.535  28.181  47.974  1.00  0.00     0.034 A 
HETATM    2  C   UNL     1       2.844  26.965  47.997  1.00  0.00     0.031 A 
HETATM    3  C   UNL     1       1.568  26.862  47.432  1.00  0.00     0.025 A 
HETATM    4  C   UNL     1       0.973  27.971  46.827  1.00  0.00     0.044 A 
HETATM    5  C   UNL     1      -0.336  27.861  46.255  1.00  0.00     0.099 C 
HETATM    6  N   UNL     1      -1.401  27.752  45.808  1.00  0.00    -0.191 NA
HETATM    7  C   UNL     1       1.669  29.181  46.776  1.00  0.00     0.025 A 
HETATM    8  C   UNL     1       2.949  29.279  47.336  1.00  0.00     0.031 A 
ENDROOT
BRANCH   1   9
HETATM    9  N   UNL     1       4.835  28.350  48.492  1.00  0.00    -0.333 N 
HETATM   10  H   UNL     1       5.570  28.465  47.797  1.00  0.00     0.168 HD
BRANCH   9  11
HETATM   11  C   UNL     1       5.314  28.253  49.768  1.00  0.00     0.172 C 
HETATM   12  S   UNL     1       5.431  29.647  50.678  1.00  0.00    -0.041 SA
BRANCH  11  13
HETATM   13  N   UNL     1       5.608  26.990  50.215  1.00  0.00    -0.365 N 
HETATM   14  H   UNL     1       5.425  26.294  49.497  1.00  0.00     0.161 HD
BRANCH  13  15
HETATM   15  C   UNL     1       5.531  26.558  51.608  1.00  0.00     0.155 C 
BRANCH  15  16
HETATM   16  C   UNL     1       6.482  25.383  51.926  1.00  0.00     0.206 C 
HETATM   17  C   UNL     1       7.788  25.813  52.615  1.00  0.00     0.040 C 
HETATM   18  C   UNL     1       8.132  24.903  53.815  1.00  0.00     0.001 C 
HETATM   19  C   UNL     1       7.048  24.935  54.914  1.00  0.00     0.067 C 
HETATM   20  C   UNL     1       8.116  23.456  53.247  1.00  0.00     0.033 C 
HETATM   21  C   UNL     1       5.655  24.830  54.260  1.00  0.00     0.246 C 
HETATM   22  N   UNL     1       5.832  24.332  52.821  1.00  0.00    -0.065 N 
HETATM   23  C   UNL     1       6.691  23.070  52.813  1.00  0.00     0.236 C 
HETATM   24  H   UNL     1       4.902  24.093  52.448  1.00  0.00     0.280 HD
BRANCH  19  25
HETATM   25  C   UNL     1       7.085  25.947  56.025  1.00  0.00     0.038 C 
HETATM   26  N   UNL     1       7.831  26.005  57.180  1.00  0.00    -0.277 N 
HETATM   27  C   UNL     1       8.702  25.037  57.800  1.00  0.00     0.179 C 
HETATM   28  N   UNL     1       7.733  27.183  57.812  1.00  0.00    -0.172 NA
HETATM   29  C   UNL     1       6.780  27.865  57.173  1.00  0.00     0.089 C 
HETATM   30  C   UNL     1       6.339  27.121  56.055  1.00  0.00     0.061 C 
BRANCH  29  31
HETATM   31  C   UNL     1       6.363  29.199  57.602  1.00  0.00    -0.003 A 
HETATM   32  C   UNL     1       7.291  30.066  58.202  1.00  0.00     0.053 A 
HETATM   33  C   UNL     1       6.921  31.359  58.590  1.00  0.00     0.102 A 
HETATM   34  C   UNL     1       5.595  31.793  58.392  1.00  0.00     0.101 A 
HETATM   35  C   UNL     1       4.668  30.927  57.804  1.00  0.00     0.040 A 
HETATM   36  C   UNL     1       5.049  29.640  57.410  1.00  0.00     0.017 A 
BRANCH  33  37
HETATM   37  O   UNL     1       7.775  32.269  59.163  1.00  0.00    -0.353 OA
HETATM   38  C   UNL     1       9.096  31.842  59.458  1.00  0.00     0.210 C 
ENDBRANCH  33  37
BRANCH  34  39
HETATM   39  O   UNL     1       5.314  33.074  58.792  1.00  0.00    -0.353 OA
HETATM   40  C   UNL     1       4.825  33.979  57.813  1.00  0.00     0.210 C 
ENDBRANCH  34  39
ENDBRANCH  29  31
ENDBRANCH  19  25
ENDBRANCH  15  16
ENDBRANCH  13  15
ENDBRANCH  11  13
ENDBRANCH   9  11
ENDBRANCH   1   9
TORSDOF 9
ENDMDL
MODEL 3
REMARK VINA RESULT:      -9.0      6.905     11.405
REMARK  9 active torsions:
REMARK  status: ('A' for Active; 'I' for Inactive)
REMARK    1  A    between atoms: C_4  and  C_5 
REMARK    2  A    between atoms: C_7  and  O_8 
REMARK    3  A    between atoms: C_10  and  O_11 
REMARK    4  A    between atoms: C_16  and  C_17 
REMARK    5  A    between atoms: C_20  and  C_21 
REMARK    6  A    between atoms: C_21  and  N_22 
REMARK    7  A    between atoms: N_22  and  C_23 
REMARK    8  A    between atoms: C_23  and  N_24 
REMARK    9  A    between atoms: N_24  and  C_25 
ROOT
HETATM    1  C   UNL     1       6.227  33.279  46.432  1.00  0.00     0.034 A 
HETATM    2  C   UNL     1       7.186  33.844  45.586  1.00  0.00     0.031 A 
HETATM    3  C   UNL     1       8.246  34.591  46.111  1.00  0.00     0.025 A 
HETATM    4  C   UNL     1       8.365  34.772  47.492  1.00  0.00     0.044 A 
HETATM    5  C   UNL     1       9.450  35.542  48.024  1.00  0.00     0.099 C 
HETATM    6  N   UNL     1      10.329  36.179  48.433  1.00  0.00    -0.191 NA
HETATM    7  C   UNL     1       7.427  34.186  48.344  1.00  0.00     0.025 A 
HETATM    8  C   UNL     1       6.371  33.434  47.815  1.00  0.00     0.031 A 
ENDROOT
BRANCH   1   9
HETATM    9  N   UNL     1       5.154  32.487  45.977  1.00  0.00    -0.333 N 
HETATM   10  H   UNL     1       5.346  31.923  45.151  1.00  0.00     0.168 HD
BRANCH   9  11
HETATM   11  C   UNL     1       3.845  32.437  46.366  1.00  0.00     0.172 C 
HETATM   12  S   UNL     1       2.797  33.592  45.770  1.00  0.00    -0.041 SA
BRANCH  11  13
HETATM   13  N   UNL     1       3.490  31.393  47.180  1.00  0.00    -0.365 N 
HETATM   14  H   UNL     1       2.730  31.654  47.803  1.00  0.00     0.161 HD
BRANCH  13  15
HETATM   15  C   UNL     1       4.395  30.336  47.625  1.00  0.00     0.155 C 
BRANCH  15  16
HETATM   16  C   UNL     1       3.915  28.924  47.222  1.00  0.00     0.206 C 
HETATM   17  C   UNL     1       5.012  27.849  47.310  1.00  0.00     0.040 C 
HETATM   18  C   UNL     1       4.503  26.565  48.001  1.00  0.00     0.001 C 
HETATM   19  C   UNL     1       4.044  26.815  49.453  1.00  0.00     0.067 C 
HETATM   20  C   UNL     1       3.224  26.158  47.217  1.00  0.00     0.033 C 
HETATM   21  C   UNL     1       3.180  28.092  49.503  1.00  0.00     0.246 C 
HETATM   22  N   UNL     1       2.747  28.439  48.074  1.00  0.00    -0.065 N 
HETATM   23  C   UNL     1       2.122  27.213  47.412  1.00  0.00     0.236 C 
HETATM   24  H   UNL     1       2.031  29.178  48.128  1.00  0.00     0.280 HD
BRANCH  19  25
HETATM   25  C   UNL     1       5.003  26.726  50.608  1.00  0.00     0.038 C 
HETATM   26  N   UNL     1       5.526  27.692  51.435  1.00  0.00    -0.277 N 
HETATM   27  C   UNL     1       5.467  29.132  51.372  1.00  0.00     0.179 C 
HETATM   28  N   UNL     1       6.182  27.187  52.488  1.00  0.00    -0.172 NA
HETATM   29  C   UNL     1       6.252  25.870  52.281  1.00  0.00     0.089 C 
HETATM   30  C   UNL     1       5.537  25.542  51.107  1.00  0.00     0.061 C 
BRANCH  29  31
HETATM   31  C   UNL     1       6.935  24.975  53.213  1.00  0.00    -0.003 A 
HETATM   32  C   UNL     1       6.873  25.219  54.595  1.00  0.00     0.053 A 
HETATM   33  C   UNL     1       7.493  24.356  55.506  1.00  0.00     0.102 A 
HETATM   34  C   UNL     1       8.203  23.235  55.032  1.00  0.00     0.101 A 
HETATM   35  C   UNL     1       8.274  22.997  53.656  1.00  0.00     0.040 A 
HETATM   36  C   UNL     1       7.644  23.859  52.753  1.00  0.00     0.017 A 
BRANCH  33  37
HETATM   37  O   UNL     1       7.459  24.517  56.869  1.00  0.00    -0.353 OA
HETATM   38  C   UNL     1       8.218  25.577  57.430  1.00  0.00     0.210 C 
ENDBRANCH  33  37
BRANCH  34  39
HETATM   39  O   UNL     1       8.775  22.435  55.987  1.00  0.00    -0.353 OA
HETATM   40  C   UNL     1       9.159  21.122  55.606  1.00  0.00     0.210 C 
ENDBRANCH  34  39
ENDBRANCH  29  31
ENDBRANCH  19  25
ENDBRANCH  15  16
ENDBRANCH  13  15
ENDBRANCH  11  13
ENDBRANCH   9  11
ENDBRANCH   1   9
TORSDOF 9
ENDMDL
MODEL 4
REMARK VINA RESULT:      -8.9      2.767      3.836
REMARK  9 active torsions:
REMARK  status: ('A' for Active; 'I' for Inactive)
REMARK    1  A    between atoms: C_4  and  C_5 
REMARK    2  A    between atoms: C_7  and  O_8 
REMARK    3  A    between atoms: C_10  and  O_11 
REMARK    4  A    between atoms: C_16  and  C_17 
REMARK    5  A    between atoms: C_20  and  C_21 
REMARK    6  A    between atoms: C_21  and  N_22 
REMARK    7  A    between atoms: N_22  and  C_23 
REMARK    8  A    between atoms: C_23  and  N_24 
REMARK    9  A    between atoms: N_24  and  C_25 
ROOT
HETATM    1  C   UNL     1       7.283  24.843  54.149  1.00  0.00     0.034 A 
HETATM    2  C   UNL     1       7.098  24.002  55.250  1.00  0.00     0.031 A 
HETATM    3  C   UNL     1       7.500  22.663  55.198  1.00  0.00     0.025 A 
HETATM    4  C   UNL     1       8.102  22.153  54.045  1.00  0.00     0.044 A 
HETATM    5  C   UNL     1       8.507  20.779  53.995  1.00  0.00     0.099 C 
HETATM    6  N   UNL     1       8.817  19.661  53.972  1.00  0.00    -0.191 NA
HETATM    7  C   UNL     1       8.315  22.995  52.952  1.00  0.00     0.025 A 
HETATM    8  C   UNL     1       7.918  24.336  53.010  1.00  0.00     0.031 A 
ENDROOT
BRANCH   1   9
HETATM    9  N   UNL     1       6.934  26.209  54.142  1.00  0.00    -0.333 N 
HETATM   10  H   UNL     1       7.687  26.853  54.376  1.00  0.00     0.168 HD
BRANCH   9  11
HETATM   11  C   UNL     1       5.723  26.827  54.007  1.00  0.00     0.172 C 
HETATM   12  S   UNL     1       4.610  26.170  52.952  1.00  0.00    -0.041 SA
BRANCH  11  13
HETATM   13  N   UNL     1       5.505  27.920  54.807  1.00  0.00    -0.365 N 
HETATM   14  H   UNL     1       4.881  27.693  55.577  1.00  0.00     0.161 HD
BRANCH  13  15
HETATM   15  C   UNL     1       5.538  29.308  54.352  1.00  0.00     0.155 C 
BRANCH  15  16
HETATM   16  C   UNL     1       4.254  30.089  54.709  1.00  0.00     0.206 C 
HETATM   17  C   UNL     1       3.703  29.768  56.108  1.00  0.00     0.040 C 
HETATM   18  C   UNL     1       3.310  31.048  56.879  1.00  0.00     0.001 C 
HETATM   19  C   UNL     1       4.509  31.993  57.107  1.00  0.00     0.067 C 
HETATM   20  C   UNL     1       2.342  31.812  55.934  1.00  0.00     0.033 C 
HETATM   21  C   UNL     1       5.319  32.117  55.800  1.00  0.00     0.246 C 
HETATM   22  N   UNL     1       4.454  31.600  54.645  1.00  0.00    -0.065 N 
HETATM   23  C   UNL     1       3.089  32.285  54.675  1.00  0.00     0.236 C 
HETATM   24  H   UNL     1       4.920  31.847  53.760  1.00  0.00     0.280 HD
BRANCH  19  25
HETATM   25  C   UNL     1       5.391  31.866  58.319  1.00  0.00     0.038 C 
HETATM   26  N   UNL     1       6.539  31.141  58.537  1.00  0.00    -0.277 N 
HETATM   27  C   UNL     1       7.192  30.129  57.743  1.00  0.00     0.179 C 
HETATM   28  N   UNL     1       7.154  31.461  59.684  1.00  0.00    -0.172 NA
HETATM   29  C   UNL     1       6.326  32.285  60.329  1.00  0.00     0.089 C 
HETATM   30  C   UNL     1       5.203  32.554  59.513  1.00  0.00     0.061 C 
BRANCH  29  31
HETATM   31  C   UNL     1       6.644  32.825  61.650  1.00  0.00    -0.003 A 
HETATM   32  C   UNL     1       6.046  34.019  62.084  1.00  0.00     0.053 A 
HETATM   33  C   UNL     1       6.311  34.535  63.357  1.00  0.00     0.102 A 
HETATM   34  C   UNL     1       7.203  33.858  64.211  1.00  0.00     0.101 A 
HETATM   35  C   UNL     1       7.807  32.674  63.777  1.00  0.00     0.040 A 
HETATM   36  C   UNL     1       7.528  32.160  62.507  1.00  0.00     0.017 A 
BRANCH  33  37
HETATM   37  O   UNL     1       5.750  35.684  63.858  1.00  0.00    -0.353 OA
HETATM   38  C   UNL     1       5.519  36.756  62.957  1.00  0.00     0.210 C 
ENDBRANCH  33  37
BRANCH  34  39
HETATM   39  O   UNL     1       7.404  34.423  65.445  1.00  0.00    -0.353 OA
HETATM   40  C   UNL     1       6.650  33.915  66.535  1.00  0.00     0.210 C 
ENDBRANCH  34  39
ENDBRANCH  29  31
ENDBRANCH  19  25
ENDBRANCH  15  16
ENDBRANCH  13  15
ENDBRANCH  11  13
ENDBRANCH   9  11
ENDBRANCH   1   9
TORSDOF 9
ENDMDL
MODEL 5
REMARK VINA RESULT:      -8.8      8.075     11.539
REMARK  9 active torsions:
REMARK  status: ('A' for Active; 'I' for Inactive)
REMARK    1  A    between atoms: C_4  and  C_5 
REMARK    2  A    between atoms: C_7  and  O_8 
REMARK    3  A    between atoms: C_10  and  O_11 
REMARK    4  A    between atoms: C_16  and  C_17 
REMARK    5  A    between atoms: C_20  and  C_21 
REMARK    6  A    between atoms: C_21  and  N_22 
REMARK    7  A    between atoms: N_22  and  C_23 
REMARK    8  A    between atoms: C_23  and  N_24 
REMARK    9  A    between atoms: N_24  and  C_25 
ROOT
HETATM    1  C   UNL     1       6.945  25.048  53.519  1.00  0.00     0.034 A 
HETATM    2  C   UNL     1       6.841  24.434  54.771  1.00  0.00     0.031 A 
HETATM    3  C   UNL     1       7.268  23.114  54.953  1.00  0.00     0.025 A 
HETATM    4  C   UNL     1       7.813  22.396  53.886  1.00  0.00     0.044 A 
HETATM    5  C   UNL     1       8.243  21.042  54.078  1.00  0.00     0.099 C 
HETATM    6  N   UNL     1       8.574  19.944  54.252  1.00  0.00    -0.191 NA
HETATM    7  C   UNL     1       7.945  23.012  52.641  1.00  0.00     0.025 A 
HETATM    8  C   UNL     1       7.524  24.335  52.464  1.00  0.00     0.031 A 
ENDROOT
BRANCH   1   9
HETATM    9  N   UNL     1       6.569  26.383  53.270  1.00  0.00    -0.333 N 
HETATM   10  H   UNL     1       7.328  27.062  53.289  1.00  0.00     0.168 HD
BRANCH   9  11
HETATM   11  C   UNL     1       5.337  26.960  53.138  1.00  0.00     0.172 C 
HETATM   12  S   UNL     1       4.818  28.002  54.334  1.00  0.00    -0.041 SA
BRANCH  11  13
HETATM   13  N   UNL     1       4.649  26.672  51.988  1.00  0.00    -0.365 N 
HETATM   14  H   UNL     1       4.070  25.844  52.103  1.00  0.00     0.161 HD
BRANCH  13  15
HETATM   15  C   UNL     1       5.106  26.992  50.638  1.00  0.00     0.155 C 
BRANCH  15  16
HETATM   16  C   UNL     1       3.948  27.122  49.625  1.00  0.00     0.206 C 
HETATM   17  C   UNL     1       3.154  28.433  49.757  1.00  0.00     0.040 C 
HETATM   18  C   UNL     1       2.894  29.089  48.383  1.00  0.00     0.001 C 
HETATM   19  C   UNL     1       4.199  29.461  47.647  1.00  0.00     0.067 C 
HETATM   20  C   UNL     1       2.224  27.981  47.523  1.00  0.00     0.033 C 
HETATM   21  C   UNL     1       5.195  28.287  47.749  1.00  0.00     0.246 C 
HETATM   22  N   UNL     1       4.424  27.034  48.179  1.00  0.00    -0.065 N 
HETATM   23  C   UNL     1       3.216  26.833  47.267  1.00  0.00     0.236 C 
HETATM   24  H   UNL     1       5.049  26.222  48.072  1.00  0.00     0.280 HD
BRANCH  19  25
HETATM   25  C   UNL     1       4.862  30.795  47.850  1.00  0.00     0.038 C 
HETATM   26  N   UNL     1       5.452  31.361  48.956  1.00  0.00    -0.277 N 
HETATM   27  C   UNL     1       5.485  30.942  50.336  1.00  0.00     0.179 C 
HETATM   28  N   UNL     1       6.126  32.486  48.678  1.00  0.00    -0.172 NA
HETATM   29  C   UNL     1       5.847  32.776  47.405  1.00  0.00     0.089 C 
HETATM   30  C   UNL     1       5.047  31.749  46.854  1.00  0.00     0.061 C 
BRANCH  29  31
HETATM   31  C   UNL     1       6.380  33.968  46.749  1.00  0.00    -0.003 A 
HETATM   32  C   UNL     1       5.886  35.238  47.087  1.00  0.00     0.053 A 
HETATM   33  C   UNL     1       6.406  36.394  46.494  1.00  0.00     0.102 A 
HETATM   34  C   UNL     1       7.429  36.283  45.532  1.00  0.00     0.101 A 
HETATM   35  C   UNL     1       7.916  35.019  45.187  1.00  0.00     0.040 A 
HETATM   36  C   UNL     1       7.397  33.870  45.791  1.00  0.00     0.017 A 
BRANCH  33  37
HETATM   37  O   UNL     1       5.989  37.669  46.788  1.00  0.00    -0.353 OA
HETATM   38  C   UNL     1       5.800  38.006  48.154  1.00  0.00     0.210 C 
ENDBRANCH  33  37
BRANCH  34  39
HETATM   39  O   UNL     1       7.891  37.462  45.003  1.00  0.00    -0.353 OA
HETATM   40  C   UNL     1       7.682  37.691  43.617  1.00  0.00     0.210 C 
ENDBRANCH  34  39
ENDBRANCH  29  31
ENDBRANCH  19  25
ENDBRANCH  15  16
ENDBRANCH  13  15
ENDBRANCH  11  13
ENDBRANCH   9  11
ENDBRANCH   1   9
TORSDOF 9
ENDMDL
MODEL 6
REMARK VINA RESULT:      -8.6      4.082      6.944
REMARK  9 active torsions:
REMARK  status: ('A' for Active; 'I' for Inactive)
REMARK    1  A    between atoms: C_4  and  C_5 
REMARK    2  A    between atoms: C_7  and  O_8 
REMARK    3  A    between atoms: C_10  and  O_11 
REMARK    4  A    between atoms: C_16  and  C_17 
REMARK    5  A    between atoms: C_20  and  C_21 
REMARK    6  A    between atoms: C_21  and  N_22 
REMARK    7  A    between atoms: N_22  and  C_23 
REMARK    8  A    between atoms: C_23  and  N_24 
REMARK    9  A    between atoms: N_24  and  C_25 
ROOT
HETATM    1  C   UNL     1       3.550  28.108  47.882  1.00  0.00     0.034 A 
HETATM    2  C   UNL     1       2.897  26.878  47.764  1.00  0.00     0.031 A 
HETATM    3  C   UNL     1       1.623  26.801  47.190  1.00  0.00     0.025 A 
HETATM    4  C   UNL     1       0.993  27.954  46.717  1.00  0.00     0.044 A 
HETATM    5  C   UNL     1      -0.314  27.870  46.135  1.00  0.00     0.099 C 
HETATM    6  N   UNL     1      -1.376  27.781  45.677  1.00  0.00    -0.191 NA
HETATM    7  C   UNL     1       1.651  29.182  46.806  1.00  0.00     0.025 A 
HETATM    8  C   UNL     1       2.929  29.254  47.374  1.00  0.00     0.031 A 
ENDROOT
BRANCH   1   9
HETATM    9  N   UNL     1       4.846  28.256  48.417  1.00  0.00    -0.333 N 
HETATM   10  H   UNL     1       5.582  28.433  47.736  1.00  0.00     0.168 HD
BRANCH   9  11
HETATM   11  C   UNL     1       5.322  28.071  49.684  1.00  0.00     0.172 C 
HETATM   12  S   UNL     1       5.326  29.374  50.727  1.00  0.00    -0.041 SA
BRANCH  11  13
HETATM   13  N   UNL     1       5.709  26.796  50.010  1.00  0.00    -0.365 N 
HETATM   14  H   UNL     1       5.963  26.266  49.181  1.00  0.00     0.161 HD
BRANCH  13  15
HETATM   15  C   UNL     1       5.227  26.047  51.167  1.00  0.00     0.155 C 
BRANCH  15  16
HETATM   16  C   UNL     1       6.341  25.237  51.866  1.00  0.00     0.206 C 
HETATM   17  C   UNL     1       7.403  26.111  52.555  1.00  0.00     0.040 C 
HETATM   18  C   UNL     1       7.738  25.597  53.973  1.00  0.00     0.001 C 
HETATM   19  C   UNL     1       6.512  25.608  54.912  1.00  0.00     0.067 C 
HETATM   20  C   UNL     1       8.115  24.101  53.787  1.00  0.00     0.033 C 
HETATM   21  C   UNL     1       5.293  25.028  54.166  1.00  0.00     0.246 C 
HETATM   22  N   UNL     1       5.794  24.284  52.923  1.00  0.00    -0.065 N 
HETATM   23  C   UNL     1       6.890  23.297  53.320  1.00  0.00     0.236 C 
HETATM   24  H   UNL     1       5.006  23.751  52.530  1.00  0.00     0.280 HD
BRANCH  19  25
HETATM   25  C   UNL     1       6.161  26.818  55.732  1.00  0.00     0.038 C 
HETATM   26  N   UNL     1       6.704  27.322  56.891  1.00  0.00    -0.277 N 
HETATM   27  C   UNL     1       7.678  26.774  57.803  1.00  0.00     0.179 C 
HETATM   28  N   UNL     1       6.252  28.547  57.196  1.00  0.00    -0.172 NA
HETATM   29  C   UNL     1       5.267  28.801  56.332  1.00  0.00     0.089 C 
HETATM   30  C   UNL     1       5.169  27.738  55.406  1.00  0.00     0.061 C 
BRANCH  29  31
HETATM   31  C   UNL     1       4.501  30.045  56.376  1.00  0.00    -0.003 A 
HETATM   32  C   UNL     1       4.221  30.655  57.610  1.00  0.00     0.053 A 
HETATM   33  C   UNL     1       3.517  31.863  57.673  1.00  0.00     0.102 A 
HETATM   34  C   UNL     1       3.068  32.469  56.483  1.00  0.00     0.101 A 
HETATM   35  C   UNL     1       3.337  31.858  55.255  1.00  0.00     0.040 A 
HETATM   36  C   UNL     1       4.049  30.657  55.201  1.00  0.00     0.017 A 
BRANCH  33  37
HETATM   37  O   UNL     1       3.224  32.528  58.838  1.00  0.00    -0.353 OA
HETATM   38  C   UNL     1       3.316  31.803  60.055  1.00  0.00     0.210 C 
ENDBRANCH  33  37
BRANCH  34  39
HETATM   39  O   UNL     1       2.392  33.654  56.628  1.00  0.00    -0.353 OA
HETATM   40  C   UNL     1       2.300  34.504  55.495  1.00  0.00     0.210 C 
ENDBRANCH  34  39
ENDBRANCH  29  31
ENDBRANCH  19  25
ENDBRANCH  15  16
ENDBRANCH  13  15
ENDBRANCH  11  13
ENDBRANCH   9  11
ENDBRANCH   1   9
TORSDOF 9
ENDMDL
MODEL 7
REMARK VINA RESULT:      -8.6      6.171      9.138
REMARK  9 active torsions:
REMARK  status: ('A' for Active; 'I' for Inactive)
REMARK    1  A    between atoms: C_4  and  C_5 
REMARK    2  A    between atoms: C_7  and  O_8 
REMARK    3  A    between atoms: C_10  and  O_11 
REMARK    4  A    between atoms: C_16  and  C_17 
REMARK    5  A    between atoms: C_20  and  C_21 
REMARK    6  A    between atoms: C_21  and  N_22 
REMARK    7  A    between atoms: N_22  and  C_23 
REMARK    8  A    between atoms: C_23  and  N_24 
REMARK    9  A    between atoms: N_24  and  C_25 
ROOT
HETATM    1  C   UNL     1       7.389  25.273  54.078  1.00  0.00     0.034 A 
HETATM    2  C   UNL     1       7.734  24.859  52.788  1.00  0.00     0.031 A 
HETATM    3  C   UNL     1       7.987  23.510  52.518  1.00  0.00     0.025 A 
HETATM    4  C   UNL     1       7.887  22.556  53.534  1.00  0.00     0.044 A 
HETATM    5  C   UNL     1       8.153  21.176  53.253  1.00  0.00     0.099 C 
HETATM    6  N   UNL     1       8.384  20.067  53.006  1.00  0.00    -0.191 NA
HETATM    7  C   UNL     1       7.516  22.959  54.818  1.00  0.00     0.025 A 
HETATM    8  C   UNL     1       7.256  24.309  55.083  1.00  0.00     0.031 A 
ENDROOT
BRANCH   1   9
HETATM    9  N   UNL     1       7.087  26.607  54.415  1.00  0.00    -0.333 N 
HETATM   10  H   UNL     1       7.881  27.177  54.699  1.00  0.00     0.168 HD
BRANCH   9  11
HETATM   11  C   UNL     1       5.889  27.249  54.561  1.00  0.00     0.172 C 
HETATM   12  S   UNL     1       5.551  27.974  56.025  1.00  0.00    -0.041 SA
BRANCH  11  13
HETATM   13  N   UNL     1       5.080  27.289  53.454  1.00  0.00    -0.365 N 
HETATM   14  H   UNL     1       4.554  26.425  53.351  1.00  0.00     0.161 HD
BRANCH  13  15
HETATM   15  C   UNL     1       5.360  28.056  52.243  1.00  0.00     0.155 C 
BRANCH  15  16
HETATM   16  C   UNL     1       4.418  27.697  51.072  1.00  0.00     0.206 C 
HETATM   17  C   UNL     1       3.407  28.803  50.729  1.00  0.00     0.040 C 
HETATM   18  C   UNL     1       3.317  29.048  49.206  1.00  0.00     0.001 C 
HETATM   19  C   UNL     1       4.661  29.505  48.599  1.00  0.00     0.067 C 
HETATM   20  C   UNL     1       3.025  27.653  48.585  1.00  0.00     0.033 C 
HETATM   21  C   UNL     1       5.799  28.626  49.158  1.00  0.00     0.246 C 
HETATM   22  N   UNL     1       5.179  27.375  49.790  1.00  0.00    -0.065 N 
HETATM   23  C   UNL     1       4.225  26.714  48.797  1.00  0.00     0.236 C 
HETATM   24  H   UNL     1       5.939  26.712  49.998  1.00  0.00     0.280 HD
BRANCH  19  25
HETATM   25  C   UNL     1       5.039  30.959  48.532  1.00  0.00     0.038 C 
HETATM   26  N   UNL     1       4.831  31.910  47.560  1.00  0.00    -0.277 N 
HETATM   27  C   UNL     1       4.333  31.800  46.211  1.00  0.00     0.179 C 
HETATM   28  N   UNL     1       5.128  33.153  47.966  1.00  0.00    -0.172 NA
HETATM   29  C   UNL     1       5.704  33.021  49.163  1.00  0.00     0.089 C 
HETATM   30  C   UNL     1       5.680  31.661  49.548  1.00  0.00     0.061 C 
BRANCH  29  31
HETATM   31  C   UNL     1       6.202  34.172  49.913  1.00  0.00    -0.003 A 
HETATM   32  C   UNL     1       6.185  34.156  51.317  1.00  0.00     0.053 A 
HETATM   33  C   UNL     1       6.687  35.234  52.055  1.00  0.00     0.102 A 
HETATM   34  C   UNL     1       7.202  36.359  51.382  1.00  0.00     0.101 A 
HETATM   35  C   UNL     1       7.210  36.381  49.984  1.00  0.00     0.040 A 
HETATM   36  C   UNL     1       6.716  35.295  49.255  1.00  0.00     0.017 A 
BRANCH  33  37
HETATM   37  O   UNL     1       6.722  35.283  53.427  1.00  0.00    -0.353 OA
HETATM   38  C   UNL     1       5.515  35.032  54.131  1.00  0.00     0.210 C 
ENDBRANCH  33  37
BRANCH  34  39
HETATM   39  O   UNL     1       7.681  37.370  52.175  1.00  0.00    -0.353 OA
HETATM   40  C   UNL     1       8.469  38.378  51.558  1.00  0.00     0.210 C 
ENDBRANCH  34  39
ENDBRANCH  29  31
ENDBRANCH  19  25
ENDBRANCH  15  16
ENDBRANCH  13  15
ENDBRANCH  11  13
ENDBRANCH   9  11
ENDBRANCH   1   9
TORSDOF 9
ENDMDL
MODEL 8
REMARK VINA RESULT:      -8.5      4.888     10.800
REMARK  9 active torsions:
REMARK  status: ('A' for Active; 'I' for Inactive)
REMARK    1  A    between atoms: C_4  and  C_5 
REMARK    2  A    between atoms: C_7  and  O_8 
REMARK    3  A    between atoms: C_10  and  O_11 
REMARK    4  A    between atoms: C_16  and  C_17 
REMARK    5  A    between atoms: C_20  and  C_21 
REMARK    6  A    between atoms: C_21  and  N_22 
REMARK    7  A    between atoms: N_22  and  C_23 
REMARK    8  A    between atoms: C_23  and  N_24 
REMARK    9  A    between atoms: N_24  and  C_25 
ROOT
HETATM    1  C   UNL     1       7.977  31.127  59.515  1.00  0.00     0.034 A 
HETATM    2  C   UNL     1       6.956  32.018  59.858  1.00  0.00     0.031 A 
HETATM    3  C   UNL     1       6.870  32.535  61.156  1.00  0.00     0.025 A 
HETATM    4  C   UNL     1       7.811  32.173  62.123  1.00  0.00     0.044 A 
HETATM    5  C   UNL     1       7.715  32.700  63.452  1.00  0.00     0.099 C 
HETATM    6  N   UNL     1       7.611  33.130  64.524  1.00  0.00    -0.191 NA
HETATM    7  C   UNL     1       8.849  31.305  61.779  1.00  0.00     0.025 A 
HETATM    8  C   UNL     1       8.937  30.796  60.477  1.00  0.00     0.031 A 
ENDROOT
BRANCH   1   9
HETATM    9  N   UNL     1       8.147  30.595  58.221  1.00  0.00    -0.333 N 
HETATM   10  H   UNL     1       7.378  30.764  57.575  1.00  0.00     0.168 HD
BRANCH   9  11
HETATM   11  C   UNL     1       9.106  29.768  57.707  1.00  0.00     0.172 C 
HETATM   12  S   UNL     1      10.618  30.405  57.398  1.00  0.00    -0.041 SA
BRANCH  11  13
HETATM   13  N   UNL     1       8.752  28.454  57.540  1.00  0.00    -0.365 N 
HETATM   14  H   UNL     1       9.321  28.008  56.825  1.00  0.00     0.161 HD
BRANCH  13  15
HETATM   15  C   UNL     1       7.416  27.912  57.774  1.00  0.00     0.155 C 
BRANCH  15  16
HETATM   16  C   UNL     1       7.278  26.439  57.331  1.00  0.00     0.206 C 
HETATM   17  C   UNL     1       5.832  26.017  57.023  1.00  0.00     0.040 C 
HETATM   18  C   UNL     1       5.735  25.215  55.706  1.00  0.00     0.001 C 
HETATM   19  C   UNL     1       6.206  26.027  54.481  1.00  0.00     0.067 C 
HETATM   20  C   UNL     1       6.755  24.052  55.861  1.00  0.00     0.033 C 
HETATM   21  C   UNL     1       7.520  26.757  54.826  1.00  0.00     0.246 C 
HETATM   22  N   UNL     1       8.108  26.122  56.091  1.00  0.00    -0.065 N 
HETATM   23  C   UNL     1       8.189  24.607  55.918  1.00  0.00     0.236 C 
HETATM   24  H   UNL     1       9.064  26.485  56.216  1.00  0.00     0.280 HD
BRANCH  19  25
HETATM   25  C   UNL     1       5.256  26.892  53.700  1.00  0.00     0.038 C 
HETATM   26  N   UNL     1       4.505  27.984  54.069  1.00  0.00    -0.277 N 
HETATM   27  C   UNL     1       4.242  28.564  55.363  1.00  0.00     0.179 C 
HETATM   28  N   UNL     1       3.947  28.617  53.028  1.00  0.00    -0.172 NA
HETATM   29  C   UNL     1       4.180  27.849  51.962  1.00  0.00     0.089 C 
HETATM   30  C   UNL     1       4.986  26.751  52.342  1.00  0.00     0.061 C 
BRANCH  29  31
HETATM   31  C   UNL     1       3.687  28.200  50.632  1.00  0.00    -0.003 A 
HETATM   32  C   UNL     1       3.043  29.430  50.423  1.00  0.00     0.053 A 
HETATM   33  C   UNL     1       2.593  29.800  49.151  1.00  0.00     0.102 A 
HETATM   34  C   UNL     1       2.773  28.920  48.065  1.00  0.00     0.101 A 
HETATM   35  C   UNL     1       3.405  27.691  48.273  1.00  0.00     0.040 A 
HETATM   36  C   UNL     1       3.860  27.333  49.546  1.00  0.00     0.017 A 
BRANCH  33  37
HETATM   37  O   UNL     1       1.973  30.992  48.865  1.00  0.00    -0.353 OA
HETATM   38  C   UNL     1       0.880  31.383  49.683  1.00  0.00     0.210 C 
ENDBRANCH  33  37
BRANCH  34  39
HETATM   39  O   UNL     1       2.311  29.358  46.850  1.00  0.00    -0.353 OA
HETATM   40  C   UNL     1       1.004  28.963  46.459  1.00  0.00     0.210 C 
ENDBRANCH  34  39
ENDBRANCH  29  31
ENDBRANCH  19  25
ENDBRANCH  15  16
ENDBRANCH  13  15
ENDBRANCH  11  13
ENDBRANCH   9  11
ENDBRANCH   1   9
TORSDOF 9
ENDMDL
MODEL 9
REMARK VINA RESULT:      -8.5      5.429      9.345
REMARK  9 active torsions:
REMARK  status: ('A' for Active; 'I' for Inactive)
REMARK    1  A    between atoms: C_4  and  C_5 
REMARK    2  A    between atoms: C_7  and  O_8 
REMARK    3  A    between atoms: C_10  and  O_11 
REMARK    4  A    between atoms: C_16  and  C_17 
REMARK    5  A    between atoms: C_20  and  C_21 
REMARK    6  A    between atoms: C_21  and  N_22 
REMARK    7  A    between atoms: N_22  and  C_23 
REMARK    8  A    between atoms: C_23  and  N_24 
REMARK    9  A    between atoms: N_24  and  C_25 
ROOT
HETATM    1  C   UNL     1       4.254  30.134  50.273  1.00  0.00     0.034 A 
HETATM    2  C   UNL     1       5.159  29.095  50.507  1.00  0.00     0.031 A 
HETATM    3  C   UNL     1       4.959  27.835  49.932  1.00  0.00     0.025 A 
HETATM    4  C   UNL     1       3.856  27.604  49.108  1.00  0.00     0.044 A 
HETATM    5  C   UNL     1       3.653  26.309  48.526  1.00  0.00     0.099 C 
HETATM    6  N   UNL     1       3.502  25.252  48.075  1.00  0.00    -0.191 NA
HETATM    7  C   UNL     1       2.963  28.645  48.848  1.00  0.00     0.025 A 
HETATM    8  C   UNL     1       3.170  29.907  49.419  1.00  0.00     0.031 A 
ENDROOT
BRANCH   1   9
HETATM    9  N   UNL     1       4.409  31.437  50.790  1.00  0.00    -0.333 N 
HETATM   10  H   UNL     1       5.080  32.025  50.298  1.00  0.00     0.168 HD
BRANCH   9  11
HETATM   11  C   UNL     1       3.918  32.018  51.924  1.00  0.00     0.172 C 
HETATM   12  S   UNL     1       2.563  32.984  51.797  1.00  0.00    -0.041 SA
BRANCH  11  13
HETATM   13  N   UNL     1       4.560  31.707  53.096  1.00  0.00    -0.365 N 
HETATM   14  H   UNL     1       4.431  30.728  53.336  1.00  0.00     0.161 HD
BRANCH  13  15
HETATM   15  C   UNL     1       4.803  32.644  54.190  1.00  0.00     0.155 C 
BRANCH  15  16
HETATM   16  C   UNL     1       4.200  32.171  55.531  1.00  0.00     0.206 C 
HETATM   17  C   UNL     1       3.167  31.041  55.383  1.00  0.00     0.040 C 
HETATM   18  C   UNL     1       3.396  29.914  56.414  1.00  0.00     0.001 C 
HETATM   19  C   UNL     1       4.777  29.242  56.261  1.00  0.00     0.067 C 
HETATM   20  C   UNL     1       3.421  30.624  57.796  1.00  0.00     0.033 C 
HETATM   21  C   UNL     1       5.856  30.328  56.078  1.00  0.00     0.246 C 
HETATM   22  N   UNL     1       5.264  31.676  56.506  1.00  0.00    -0.065 N 
HETATM   23  C   UNL     1       4.646  31.549  57.897  1.00  0.00     0.236 C 
HETATM   24  H   UNL     1       6.031  32.362  56.555  1.00  0.00     0.280 HD
BRANCH  19  25
HETATM   25  C   UNL     1       4.983  28.068  55.344  1.00  0.00     0.038 C 
HETATM   26  N   UNL     1       4.436  27.761  54.120  1.00  0.00    -0.277 N 
HETATM   27  C   UNL     1       3.358  28.370  53.380  1.00  0.00     0.179 C 
HETATM   28  N   UNL     1       5.039  26.727  53.517  1.00  0.00    -0.172 NA
HETATM   29  C   UNL     1       5.887  26.221  54.415  1.00  0.00     0.089 C 
HETATM   30  C   UNL     1       5.873  27.024  55.578  1.00  0.00     0.061 C 
BRANCH  29  31
HETATM   31  C   UNL     1       6.707  25.046  54.128  1.00  0.00    -0.003 A 
HETATM   32  C   UNL     1       7.337  24.355  55.176  1.00  0.00     0.053 A 
HETATM   33  C   UNL     1       8.100  23.209  54.926  1.00  0.00     0.102 A 
HETATM   34  C   UNL     1       8.254  22.749  53.604  1.00  0.00     0.101 A 
HETATM   35  C   UNL     1       7.636  23.442  52.558  1.00  0.00     0.040 A 
HETATM   36  C   UNL     1       6.867  24.580  52.818  1.00  0.00     0.017 A 
BRANCH  33  37
HETATM   37  O   UNL     1       8.728  22.470  55.899  1.00  0.00    -0.353 OA
HETATM   38  C   UNL     1       8.409  22.752  57.254  1.00  0.00     0.210 C 
ENDBRANCH  33  37
BRANCH  34  39
HETATM   39  O   UNL     1       9.010  21.616  53.443  1.00  0.00    -0.353 OA
HETATM   40  C   UNL     1       8.383  20.480  52.866  1.00  0.00     0.210 C 
ENDBRANCH  34  39
ENDBRANCH  29  31
ENDBRANCH  19  25
ENDBRANCH  15  16
ENDBRANCH  13  15
ENDBRANCH  11  13
ENDBRANCH   9  11
ENDBRANCH   1   9
TORSDOF 9
ENDMDL
MODEL 10
REMARK VINA RESULT:      -8.4      4.224      8.451
REMARK  9 active torsions:
REMARK  status: ('A' for Active; 'I' for Inactive)
REMARK    1  A    between atoms: C_4  and  C_5 
REMARK    2  A    between atoms: C_7  and  O_8 
REMARK    3  A    between atoms: C_10  and  O_11 
REMARK    4  A    between atoms: C_16  and  C_17 
REMARK    5  A    between atoms: C_20  and  C_21 
REMARK    6  A    between atoms: C_21  and  N_22 
REMARK    7  A    between atoms: N_22  and  C_23 
REMARK    8  A    between atoms: C_23  and  N_24 
REMARK    9  A    between atoms: N_24  and  C_25 
ROOT
HETATM    1  C   UNL     1       8.335  30.686  58.501  1.00  0.00     0.034 A 
HETATM    2  C   UNL     1       9.453  30.123  57.878  1.00  0.00     0.031 A 
HETATM    3  C   UNL     1       9.313  29.384  56.698  1.00  0.00     0.025 A 
HETATM    4  C   UNL     1       8.052  29.209  56.122  1.00  0.00     0.044 A 
HETATM    5  C   UNL     1       7.914  28.447  54.916  1.00  0.00     0.099 C 
HETATM    6  N   UNL     1       7.823  27.818  53.946  1.00  0.00    -0.191 NA
HETATM    7  C   UNL     1       6.936  29.793  56.724  1.00  0.00     0.025 A 
HETATM    8  C   UNL     1       7.081  30.537  57.901  1.00  0.00     0.031 A 
ENDROOT
BRANCH   1   9
HETATM    9  N   UNL     1       8.405  31.469  59.671  1.00  0.00    -0.333 N 
HETATM   10  H   UNL     1       8.848  32.380  59.561  1.00  0.00     0.168 HD
BRANCH   9  11
HETATM   11  C   UNL     1       8.103  31.174  60.970  1.00  0.00     0.172 C 
HETATM   12  S   UNL     1       9.269  30.431  61.905  1.00  0.00    -0.041 SA
BRANCH  11  13
HETATM   13  N   UNL     1       6.869  31.573  61.415  1.00  0.00    -0.365 N 
HETATM   14  H   UNL     1       6.477  32.295  60.816  1.00  0.00     0.161 HD
BRANCH  13  15
HETATM   15  C   UNL     1       6.434  31.544  62.809  1.00  0.00     0.155 C 
BRANCH  15  16
HETATM   16  C   UNL     1       5.973  32.925  63.324  1.00  0.00     0.206 C 
HETATM   17  C   UNL     1       6.364  34.092  62.402  1.00  0.00     0.040 C 
HETATM   18  C   UNL     1       5.188  35.069  62.181  1.00  0.00     0.001 C 
HETATM   19  C   UNL     1       3.973  34.394  61.510  1.00  0.00     0.067 C 
HETATM   20  C   UNL     1       4.716  35.469  63.607  1.00  0.00     0.033 C 
HETATM   21  C   UNL     1       3.708  33.033  62.185  1.00  0.00     0.246 C 
HETATM   22  N   UNL     1       4.461  33.000  63.520  1.00  0.00    -0.065 N 
HETATM   23  C   UNL     1       4.125  34.248  64.333  1.00  0.00     0.236 C 
HETATM   24  H   UNL     1       4.143  32.175  64.047  1.00  0.00     0.280 HD
BRANCH  19  25
HETATM   25  C   UNL     1       3.838  34.327  60.013  1.00  0.00     0.038 C 
HETATM   26  N   UNL     1       3.920  35.303  59.047  1.00  0.00    -0.277 N 
HETATM   27  C   UNL     1       3.992  36.740  59.149  1.00  0.00     0.179 C 
HETATM   28  N   UNL     1       3.959  34.809  57.801  1.00  0.00    -0.172 NA
HETATM   29  C   UNL     1       3.728  33.500  57.917  1.00  0.00     0.089 C 
HETATM   30  C   UNL     1       3.634  33.159  59.286  1.00  0.00     0.061 C 
BRANCH  29  31
HETATM   31  C   UNL     1       3.660  32.620  56.752  1.00  0.00    -0.003 A 
HETATM   32  C   UNL     1       3.843  33.146  55.463  1.00  0.00     0.053 A 
HETATM   33  C   UNL     1       3.814  32.316  54.336  1.00  0.00     0.102 A 
HETATM   34  C   UNL     1       3.582  30.935  54.494  1.00  0.00     0.101 A 
HETATM   35  C   UNL     1       3.390  30.412  55.776  1.00  0.00     0.040 A 
HETATM   36  C   UNL     1       3.430  31.247  56.897  1.00  0.00     0.017 A 
BRANCH  33  37
HETATM   37  O   UNL     1       4.004  32.753  53.048  1.00  0.00    -0.353 OA
HETATM   38  C   UNL     1       3.005  33.583  52.476  1.00  0.00     0.210 C 
ENDBRANCH  33  37
BRANCH  34  39
HETATM   39  O   UNL     1       3.576  30.189  53.343  1.00  0.00    -0.353 OA
HETATM   40  C   UNL     1       4.542  29.155  53.222  1.00  0.00     0.210 C 
ENDBRANCH  34  39
ENDBRANCH  29  31
ENDBRANCH  19  25
ENDBRANCH  15  16
ENDBRANCH  13  15
ENDBRANCH  11  13
ENDBRANCH   9  11
ENDBRANCH   1   9
TORSDOF 9
ENDMDL
