MODEL 1
REMARK VINA RESULT:      -9.3      0.000      0.000
REMARK  4 active torsions:
REMARK  status: ('A' for Active; 'I' for Inactive)
REMARK    1  A    between atoms: C_3  and  N_4 
REMARK       I    between atoms: N_4  and  C_5 
REMARK       I    between atoms: C_5  and  N_6 
REMARK    2  A    between atoms: N_6  and  C_7 
REMARK    3  A    between atoms: C_7  and  C_8 
REMARK    4  A    between atoms: C_11  and  C_12 
ROOT
HETATM    1  N   UNL     1       7.348  29.163  57.045  1.00  0.00    -0.309 N 
HETATM    2  C   UNL     1       7.048  27.867  57.412  1.00  0.00     0.321 C 
HETATM    3  N   UNL     1       5.857  27.469  56.842  1.00  0.00    -0.335 N 
HETATM    4  O   UNL     1       7.742  27.112  58.075  1.00  0.00    -0.247 OA
HETATM    5  H   UNL     1       7.013  29.377  56.117  1.00  0.00     0.170 HD
HETATM    6  H   UNL     1       5.159  28.190  56.716  1.00  0.00     0.164 HD
ENDROOT
BRANCH   3   7
HETATM    7  C   UNL     1       5.402  26.099  56.983  1.00  0.00     0.213 C 
BRANCH   7   8
HETATM    8  C   UNL     1       5.944  25.187  55.943  1.00  0.00     0.190 A 
HETATM    9  O   UNL     1       5.757  25.503  54.630  1.00  0.00    -0.194 OA
HETATM   10  N   UNL     1       6.359  24.488  53.887  1.00  0.00    -0.106 NA
HETATM   11  C   UNL     1       6.833  23.644  54.817  1.00  0.00     0.189 A 
HETATM   12  N   UNL     1       6.609  24.065  56.112  1.00  0.00    -0.202 NA
BRANCH  11  13
HETATM   13  C   UNL     1       7.516  22.387  54.523  1.00  0.00     0.014 A 
HETATM   14  C   UNL     1       7.839  22.024  53.208  1.00  0.00     0.015 A 
HETATM   15  C   UNL     1       8.482  20.812  52.942  1.00  0.00     0.001 A 
HETATM   16  C   UNL     1       8.810  19.949  53.986  1.00  0.00     0.000 A 
HETATM   17  C   UNL     1       8.497  20.297  55.299  1.00  0.00     0.001 A 
HETATM   18  C   UNL     1       7.855  21.509  55.564  1.00  0.00     0.015 A 
ENDBRANCH  11  13
ENDBRANCH   7   8
ENDBRANCH   3   7
BRANCH   1  19
HETATM   19  C   UNL     1       8.523  29.850  57.435  1.00  0.00     0.042 A 
HETATM   20  C   UNL     1       8.571  30.852  58.420  1.00  0.00    -0.035 A 
HETATM   21  C   UNL     1       7.361  31.398  59.127  1.00  0.00     0.050 C 
HETATM   22  C   UNL     1       9.822  31.408  58.758  1.00  0.00     0.009 A 
HETATM   23  C   UNL     1      10.988  31.022  58.098  1.00  0.00     0.001 A 
HETATM   24  C   UNL     1      10.923  30.081  57.080  1.00  0.00     0.002 A 
HETATM   25  C   UNL     1       9.697  29.507  56.744  1.00  0.00     0.030 A 
ENDBRANCH   1  19
TORSDOF 4
ENDMDL
MODEL 2
REMARK VINA RESULT:      -9.2      1.212      2.152
REMARK  4 active torsions:
REMARK  status: ('A' for Active; 'I' for Inactive)
REMARK    1  A    between atoms: C_3  and  N_4 
REMARK       I    between atoms: N_4  and  C_5 
REMARK       I    between atoms: C_5  and  N_6 
REMARK    2  A    between atoms: N_6  and  C_7 
REMARK    3  A    between atoms: C_7  and  C_8 
REMARK    4  A    between atoms: C_11  and  C_12 
ROOT
HETATM    1  N   UNL     1       8.119  28.642  57.799  1.00  0.00    -0.309 N 
HETATM    2  C   UNL     1       7.386  28.587  56.631  1.00  0.00     0.321 C 
HETATM    3  N   UNL     1       6.972  27.296  56.383  1.00  0.00    -0.335 N 
HETATM    4  O   UNL     1       7.055  29.529  55.927  1.00  0.00    -0.247 OA
HETATM    5  H   UNL     1       7.800  27.962  58.474  1.00  0.00     0.170 HD
HETATM    6  H   UNL     1       7.597  26.561  56.685  1.00  0.00     0.164 HD
ENDROOT
BRANCH   3   7
HETATM    7  C   UNL     1       6.078  27.016  55.276  1.00  0.00     0.213 C 
BRANCH   7   8
HETATM    8  C   UNL     1       6.351  25.716  54.610  1.00  0.00     0.190 A 
HETATM    9  O   UNL     1       5.818  25.486  53.376  1.00  0.00    -0.194 OA
HETATM   10  N   UNL     1       6.229  24.208  52.997  1.00  0.00    -0.106 NA
HETATM   11  C   UNL     1       6.950  23.777  54.045  1.00  0.00     0.189 A 
HETATM   12  N   UNL     1       7.063  24.706  55.059  1.00  0.00    -0.202 NA
BRANCH  11  13
HETATM   13  C   UNL     1       7.563  22.455  54.140  1.00  0.00     0.014 A 
HETATM   14  C   UNL     1       7.814  21.855  55.382  1.00  0.00     0.015 A 
HETATM   15  C   UNL     1       8.413  20.594  55.456  1.00  0.00     0.001 A 
HETATM   16  C   UNL     1       8.767  19.918  54.289  1.00  0.00     0.000 A 
HETATM   17  C   UNL     1       8.522  20.501  53.047  1.00  0.00     0.001 A 
HETATM   18  C   UNL     1       7.923  21.761  52.974  1.00  0.00     0.015 A 
ENDBRANCH  11  13
ENDBRANCH   7   8
ENDBRANCH   3   7
BRANCH   1  19
HETATM   19  C   UNL     1       8.654  29.832  58.349  1.00  0.00     0.042 A 
HETATM   20  C   UNL     1       9.887  30.398  57.979  1.00  0.00    -0.035 A 
HETATM   21  C   UNL     1      10.849  29.763  57.013  1.00  0.00     0.050 C 
HETATM   22  C   UNL     1      10.269  31.624  58.559  1.00  0.00     0.009 A 
HETATM   23  C   UNL     1       9.479  32.246  59.524  1.00  0.00     0.001 A 
HETATM   24  C   UNL     1       8.295  31.647  59.935  1.00  0.00     0.002 A 
HETATM   25  C   UNL     1       7.892  30.442  59.359  1.00  0.00     0.030 A 
ENDBRANCH   1  19
TORSDOF 4
ENDMDL
MODEL 3
REMARK VINA RESULT:      -9.2      3.621      5.605
REMARK  4 active torsions:
REMARK  status: ('A' for Active; 'I' for Inactive)
REMARK    1  A    between atoms: C_3  and  N_4 
REMARK       I    between atoms: N_4  and  C_5 
REMARK       I    between atoms: C_5  and  N_6 
REMARK    2  A    between atoms: N_6  and  C_7 
REMARK    3  A    between atoms: C_7  and  C_8 
REMARK    4  A    between atoms: C_11  and  C_12 
ROOT
HETATM    1  N   UNL     1       7.300  31.083  62.105  1.00  0.00    -0.309 N 
HETATM    2  C   UNL     1       7.705  31.335  60.811  1.00  0.00     0.321 C 
HETATM    3  N   UNL     1       8.044  30.161  60.174  1.00  0.00    -0.335 N 
HETATM    4  O   UNL     1       7.704  32.415  60.238  1.00  0.00    -0.247 OA
HETATM    5  H   UNL     1       6.837  30.188  62.185  1.00  0.00     0.170 HD
HETATM    6  H   UNL     1       8.449  29.439  60.754  1.00  0.00     0.164 HD
ENDROOT
BRANCH   3   7
HETATM    7  C   UNL     1       8.378  30.165  58.762  1.00  0.00     0.213 C 
BRANCH   7   8
HETATM    8  C   UNL     1       7.809  29.014  58.016  1.00  0.00     0.190 A 
HETATM    9  O   UNL     1       6.532  29.104  57.544  1.00  0.00    -0.194 OA
HETATM   10  N   UNL     1       6.262  27.900  56.895  1.00  0.00    -0.106 NA
HETATM   11  C   UNL     1       7.389  27.186  57.056  1.00  0.00     0.189 A 
HETATM   12  N   UNL     1       8.382  27.865  57.732  1.00  0.00    -0.202 NA
BRANCH  11  13
HETATM   13  C   UNL     1       7.577  25.819  56.580  1.00  0.00     0.014 A 
HETATM   14  C   UNL     1       8.419  24.922  57.254  1.00  0.00     0.015 A 
HETATM   15  C   UNL     1       8.598  23.620  56.779  1.00  0.00     0.001 A 
HETATM   16  C   UNL     1       7.938  23.199  55.625  1.00  0.00     0.000 A 
HETATM   17  C   UNL     1       7.097  24.078  54.946  1.00  0.00     0.001 A 
HETATM   18  C   UNL     1       6.918  25.379  55.422  1.00  0.00     0.015 A 
ENDBRANCH  11  13
ENDBRANCH   7   8
ENDBRANCH   3   7
BRANCH   1  19
HETATM   19  C   UNL     1       6.852  32.076  63.009  1.00  0.00     0.042 A 
HETATM   20  C   UNL     1       5.516  32.494  63.138  1.00  0.00    -0.035 A 
HETATM   21  C   UNL     1       4.393  32.006  62.265  1.00  0.00     0.050 C 
HETATM   22  C   UNL     1       5.198  33.446  64.127  1.00  0.00     0.009 A 
HETATM   23  C   UNL     1       6.186  34.014  64.929  1.00  0.00     0.001 A 
HETATM   24  C   UNL     1       7.513  33.648  64.751  1.00  0.00     0.002 A 
HETATM   25  C   UNL     1       7.844  32.693  63.788  1.00  0.00     0.030 A 
ENDBRANCH   1  19
TORSDOF 4
ENDMDL
MODEL 4
REMARK VINA RESULT:      -9.1      1.778      9.142
REMARK  4 active torsions:
REMARK  status: ('A' for Active; 'I' for Inactive)
REMARK    1  A    between atoms: C_3  and  N_4 
REMARK       I    between atoms: N_4  and  C_5 
REMARK       I    between atoms: C_5  and  N_6 
REMARK    2  A    between atoms: N_6  and  C_7 
REMARK    3  A    between atoms: C_7  and  C_8 
REMARK    4  A    between atoms: C_11  and  C_12 
ROOT
HETATM    1  N   UNL     1       8.397  24.203  55.493  1.00  0.00    -0.309 N 
HETATM    2  C   UNL     1       7.415  25.145  55.720  1.00  0.00     0.321 C 
HETATM    3  N   UNL     1       7.951  26.263  56.324  1.00  0.00    -0.335 N 
HETATM    4  O   UNL     1       6.243  25.082  55.380  1.00  0.00    -0.247 OA
HETATM    5  H   UNL     1       9.292  24.632  55.302  1.00  0.00     0.170 HD
HETATM    6  H   UNL     1       8.726  26.104  56.952  1.00  0.00     0.164 HD
ENDROOT
BRANCH   3   7
HETATM    7  C   UNL     1       7.129  27.439  56.542  1.00  0.00     0.213 C 
BRANCH   7   8
HETATM    8  C   UNL     1       7.793  28.478  57.372  1.00  0.00     0.190 A 
HETATM    9  O   UNL     1       9.090  28.802  57.103  1.00  0.00    -0.194 OA
HETATM   10  N   UNL     1       9.452  29.788  58.021  1.00  0.00    -0.106 NA
HETATM   11  C   UNL     1       8.350  29.949  58.772  1.00  0.00     0.189 A 
HETATM   12  N   UNL     1       7.289  29.161  58.376  1.00  0.00    -0.202 NA
BRANCH  11  13
HETATM   13  C   UNL     1       8.252  30.857  59.912  1.00  0.00     0.014 A 
HETATM   14  C   UNL     1       9.185  30.818  60.957  1.00  0.00     0.015 A 
HETATM   15  C   UNL     1       9.070  31.686  62.047  1.00  0.00     0.001 A 
HETATM   16  C   UNL     1       8.021  32.602  62.105  1.00  0.00     0.000 A 
HETATM   17  C   UNL     1       7.086  32.653  61.072  1.00  0.00     0.001 A 
HETATM   18  C   UNL     1       7.202  31.786  59.983  1.00  0.00     0.015 A 
ENDBRANCH  11  13
ENDBRANCH   7   8
ENDBRANCH   3   7
BRANCH   1  19
HETATM   19  C   UNL     1       8.177  22.960  54.854  1.00  0.00     0.042 A 
HETATM   20  C   UNL     1       8.038  22.789  53.466  1.00  0.00    -0.035 A 
HETATM   21  C   UNL     1       8.012  23.921  52.476  1.00  0.00     0.050 C 
HETATM   22  C   UNL     1       7.889  21.483  52.957  1.00  0.00     0.009 A 
HETATM   23  C   UNL     1       7.821  20.379  53.805  1.00  0.00     0.001 A 
HETATM   24  C   UNL     1       7.890  20.561  55.179  1.00  0.00     0.002 A 
HETATM   25  C   UNL     1       8.055  21.845  55.700  1.00  0.00     0.030 A 
ENDBRANCH   1  19
TORSDOF 4
ENDMDL
MODEL 5
REMARK VINA RESULT:      -8.9      5.050      8.001
REMARK  4 active torsions:
REMARK  status: ('A' for Active; 'I' for Inactive)
REMARK    1  A    between atoms: C_3  and  N_4 
REMARK       I    between atoms: N_4  and  C_5 
REMARK       I    between atoms: C_5  and  N_6 
REMARK    2  A    between atoms: N_6  and  C_7 
REMARK    3  A    between atoms: C_7  and  C_8 
REMARK    4  A    between atoms: C_11  and  C_12 
ROOT
HETATM    1  N   UNL     1       8.026  24.614  53.919  1.00  0.00    -0.309 N 
HETATM    2  C   UNL     1       6.903  25.412  53.994  1.00  0.00     0.321 C 
HETATM    3  N   UNL     1       7.209  26.708  53.639  1.00  0.00    -0.335 N 
HETATM    4  O   UNL     1       5.764  25.054  54.253  1.00  0.00    -0.247 OA
HETATM    5  H   UNL     1       8.652  24.916  53.186  1.00  0.00     0.170 HD
HETATM    6  H   UNL     1       8.137  27.029  53.876  1.00  0.00     0.164 HD
ENDROOT
BRANCH   3   7
HETATM    7  C   UNL     1       6.156  27.700  53.521  1.00  0.00     0.213 C 
BRANCH   7   8
HETATM    8  C   UNL     1       5.678  27.890  52.127  1.00  0.00     0.190 A 
HETATM    9  O   UNL     1       6.018  29.033  51.466  1.00  0.00    -0.194 OA
HETATM   10  N   UNL     1       5.442  28.945  50.199  1.00  0.00    -0.106 NA
HETATM   11  C   UNL     1       4.790  27.771  50.220  1.00  0.00     0.189 A 
HETATM   12  N   UNL     1       4.938  27.078  51.404  1.00  0.00    -0.202 NA
BRANCH  11  13
HETATM   13  C   UNL     1       3.986  27.251  49.118  1.00  0.00     0.014 A 
HETATM   14  C   UNL     1       3.981  25.886  48.800  1.00  0.00     0.015 A 
HETATM   15  C   UNL     1       3.215  25.406  47.733  1.00  0.00     0.001 A 
HETATM   16  C   UNL     1       2.446  26.285  46.973  1.00  0.00     0.000 A 
HETATM   17  C   UNL     1       2.440  27.645  47.278  1.00  0.00     0.001 A 
HETATM   18  C   UNL     1       3.205  28.124  48.344  1.00  0.00     0.015 A 
ENDBRANCH  11  13
ENDBRANCH   7   8
ENDBRANCH   3   7
BRANCH   1  19
HETATM   19  C   UNL     1       8.036  23.224  54.185  1.00  0.00     0.042 A 
HETATM   20  C   UNL     1       8.139  22.657  55.468  1.00  0.00    -0.035 A 
HETATM   21  C   UNL     1       8.347  23.454  56.726  1.00  0.00     0.050 C 
HETATM   22  C   UNL     1       8.069  21.256  55.595  1.00  0.00     0.009 A 
HETATM   23  C   UNL     1       7.958  20.431  54.477  1.00  0.00     0.001 A 
HETATM   24  C   UNL     1       7.925  20.994  53.208  1.00  0.00     0.002 A 
HETATM   25  C   UNL     1       7.976  22.380  53.063  1.00  0.00     0.030 A 
ENDBRANCH   1  19
TORSDOF 4
ENDMDL
MODEL 6
REMARK VINA RESULT:      -8.9      3.363     10.026
REMARK  4 active torsions:
REMARK  status: ('A' for Active; 'I' for Inactive)
REMARK    1  A    between atoms: C_3  and  N_4 
REMARK       I    between atoms: N_4  and  C_5 
REMARK       I    between atoms: C_5  and  N_6 
REMARK    2  A    between atoms: N_6  and  C_7 
REMARK    3  A    between atoms: C_7  and  C_8 
REMARK    4  A    between atoms: C_11  and  C_12 
ROOT
HETATM    1  N   UNL     1       7.082  26.902  57.335  1.00  0.00    -0.309 N 
HETATM    2  C   UNL     1       7.790  28.076  57.189  1.00  0.00     0.321 C 
HETATM    3  N   UNL     1       7.629  28.877  58.299  1.00  0.00    -0.335 N 
HETATM    4  O   UNL     1       8.533  28.377  56.266  1.00  0.00    -0.247 OA
HETATM    5  H   UNL     1       7.039  26.607  58.300  1.00  0.00     0.170 HD
HETATM    6  H   UNL     1       6.734  28.820  58.765  1.00  0.00     0.164 HD
ENDROOT
BRANCH   3   7
HETATM    7  C   UNL     1       8.385  30.109  58.427  1.00  0.00     0.213 C 
BRANCH   7   8
HETATM    8  C   UNL     1       8.383  30.663  59.806  1.00  0.00     0.190 A 
HETATM    9  O   UNL     1       9.168  30.071  60.751  1.00  0.00    -0.194 OA
HETATM   10  N   UNL     1       8.973  30.785  61.933  1.00  0.00    -0.106 NA
HETATM   11  C   UNL     1       8.073  31.724  61.599  1.00  0.00     0.189 A 
HETATM   12  N   UNL     1       7.703  31.688  60.270  1.00  0.00    -0.202 NA
BRANCH  11  13
HETATM   13  C   UNL     1       7.512  32.701  62.528  1.00  0.00     0.014 A 
HETATM   14  C   UNL     1       7.885  32.718  63.880  1.00  0.00     0.015 A 
HETATM   15  C   UNL     1       7.330  33.652  64.759  1.00  0.00     0.001 A 
HETATM   16  C   UNL     1       6.396  34.578  64.299  1.00  0.00     0.000 A 
HETATM   17  C   UNL     1       6.016  34.574  62.958  1.00  0.00     0.001 A 
HETATM   18  C   UNL     1       6.572  33.641  62.079  1.00  0.00     0.015 A 
ENDBRANCH  11  13
ENDBRANCH   7   8
ENDBRANCH   3   7
BRANCH   1  19
HETATM   19  C   UNL     1       7.072  25.853  56.384  1.00  0.00     0.042 A 
HETATM   20  C   UNL     1       7.932  24.741  56.412  1.00  0.00    -0.035 A 
HETATM   21  C   UNL     1       9.045  24.563  57.406  1.00  0.00     0.050 C 
HETATM   22  C   UNL     1       7.768  23.736  55.438  1.00  0.00     0.009 A 
HETATM   23  C   UNL     1       6.816  23.854  54.428  1.00  0.00     0.001 A 
HETATM   24  C   UNL     1       6.015  24.987  54.365  1.00  0.00     0.002 A 
HETATM   25  C   UNL     1       6.151  25.984  55.331  1.00  0.00     0.030 A 
ENDBRANCH   1  19
TORSDOF 4
ENDMDL
MODEL 7
REMARK VINA RESULT:      -8.9      2.039      8.755
REMARK  4 active torsions:
REMARK  status: ('A' for Active; 'I' for Inactive)
REMARK    1  A    between atoms: C_3  and  N_4 
REMARK       I    between atoms: N_4  and  C_5 
REMARK       I    between atoms: C_5  and  N_6 
REMARK    2  A    between atoms: N_6  and  C_7 
REMARK    3  A    between atoms: C_7  and  C_8 
REMARK    4  A    between atoms: C_11  and  C_12 
ROOT
HETATM    1  N   UNL     1       7.718  25.393  55.154  1.00  0.00    -0.309 N 
HETATM    2  C   UNL     1       6.587  26.180  55.200  1.00  0.00     0.321 C 
HETATM    3  N   UNL     1       6.889  27.429  55.700  1.00  0.00    -0.335 N 
HETATM    4  O   UNL     1       5.472  25.889  54.792  1.00  0.00    -0.247 OA
HETATM    5  H   UNL     1       8.548  25.939  54.973  1.00  0.00     0.170 HD
HETATM    6  H   UNL     1       7.623  27.467  56.394  1.00  0.00     0.164 HD
ENDROOT
BRANCH   3   7
HETATM    7  C   UNL     1       5.879  28.471  55.721  1.00  0.00     0.213 C 
BRANCH   7   8
HETATM    8  C   UNL     1       6.156  29.542  56.713  1.00  0.00     0.190 A 
HETATM    9  O   UNL     1       5.607  30.774  56.518  1.00  0.00    -0.194 OA
HETATM   10  N   UNL     1       6.026  31.569  57.585  1.00  0.00    -0.106 NA
HETATM   11  C   UNL     1       6.808  30.752  58.309  1.00  0.00     0.189 A 
HETATM   12  N   UNL     1       6.889  29.471  57.802  1.00  0.00    -0.202 NA
BRANCH  11  13
HETATM   13  C   UNL     1       7.524  31.149  59.518  1.00  0.00     0.014 A 
HETATM   14  C   UNL     1       7.139  32.277  60.256  1.00  0.00     0.015 A 
HETATM   15  C   UNL     1       7.843  32.651  61.405  1.00  0.00     0.001 A 
HETATM   16  C   UNL     1       8.940  31.902  61.828  1.00  0.00     0.000 A 
HETATM   17  C   UNL     1       9.334  30.778  61.105  1.00  0.00     0.001 A 
HETATM   18  C   UNL     1       8.629  30.404  59.958  1.00  0.00     0.015 A 
ENDBRANCH  11  13
ENDBRANCH   7   8
ENDBRANCH   3   7
BRANCH   1  19
HETATM   19  C   UNL     1       7.748  24.068  54.655  1.00  0.00     0.042 A 
HETATM   20  C   UNL     1       7.839  23.730  53.293  1.00  0.00    -0.035 A 
HETATM   21  C   UNL     1       7.823  24.733  52.173  1.00  0.00     0.050 C 
HETATM   22  C   UNL     1       7.928  22.369  52.939  1.00  0.00     0.009 A 
HETATM   23  C   UNL     1       7.870  21.364  53.904  1.00  0.00     0.001 A 
HETATM   24  C   UNL     1       7.711  21.703  55.242  1.00  0.00     0.002 A 
HETATM   25  C   UNL     1       7.639  23.046  55.612  1.00  0.00     0.030 A 
ENDBRANCH   1  19
TORSDOF 4
ENDMDL
MODEL 8
REMARK VINA RESULT:      -8.8      1.746      2.325
REMARK  4 active torsions:
REMARK  status: ('A' for Active; 'I' for Inactive)
REMARK    1  A    between atoms: C_3  and  N_4 
REMARK       I    between atoms: N_4  and  C_5 
REMARK       I    between atoms: C_5  and  N_6 
REMARK    2  A    between atoms: N_6  and  C_7 
REMARK    3  A    between atoms: C_7  and  C_8 
REMARK    4  A    between atoms: C_11  and  C_12 
ROOT
HETATM    1  N   UNL     1       6.941  29.982  56.759  1.00  0.00    -0.309 N 
HETATM    2  C   UNL     1       6.088  28.920  56.539  1.00  0.00     0.321 C 
HETATM    3  N   UNL     1       6.072  28.584  55.202  1.00  0.00    -0.335 N 
HETATM    4  O   UNL     1       5.476  28.282  57.383  1.00  0.00    -0.247 OA
HETATM    5  H   UNL     1       7.725  29.973  56.122  1.00  0.00     0.170 HD
HETATM    6  H   UNL     1       6.195  29.346  54.549  1.00  0.00     0.164 HD
ENDROOT
BRANCH   3   7
HETATM    7  C   UNL     1       5.344  27.413  54.753  1.00  0.00     0.213 C 
BRANCH   7   8
HETATM    8  C   UNL     1       6.227  26.291  54.340  1.00  0.00     0.190 A 
HETATM    9  O   UNL     1       7.188  26.524  53.400  1.00  0.00    -0.194 OA
HETATM   10  N   UNL     1       7.856  25.316  53.208  1.00  0.00    -0.106 NA
HETATM   11  C   UNL     1       7.223  24.462  54.029  1.00  0.00     0.189 A 
HETATM   12  N   UNL     1       6.216  25.048  54.767  1.00  0.00    -0.202 NA
BRANCH  11  13
HETATM   13  C   UNL     1       7.540  23.041  54.149  1.00  0.00     0.014 A 
HETATM   14  C   UNL     1       7.562  22.402  55.397  1.00  0.00     0.015 A 
HETATM   15  C   UNL     1       7.879  21.044  55.496  1.00  0.00     0.001 A 
HETATM   16  C   UNL     1       8.178  20.310  54.350  1.00  0.00     0.000 A 
HETATM   17  C   UNL     1       8.159  20.931  53.102  1.00  0.00     0.001 A 
HETATM   18  C   UNL     1       7.841  22.288  53.004  1.00  0.00     0.015 A 
ENDBRANCH  11  13
ENDBRANCH   7   8
ENDBRANCH   3   7
BRANCH   1  19
HETATM   19  C   UNL     1       7.207  30.541  58.032  1.00  0.00     0.042 A 
HETATM   20  C   UNL     1       6.488  31.607  58.602  1.00  0.00    -0.035 A 
HETATM   21  C   UNL     1       5.396  32.360  57.894  1.00  0.00     0.050 C 
HETATM   22  C   UNL     1       6.816  32.021  59.908  1.00  0.00     0.009 A 
HETATM   23  C   UNL     1       7.867  31.435  60.612  1.00  0.00     0.001 A 
HETATM   24  C   UNL     1       8.617  30.429  60.018  1.00  0.00     0.002 A 
HETATM   25  C   UNL     1       8.295  29.994  58.732  1.00  0.00     0.030 A 
ENDBRANCH   1  19
TORSDOF 4
ENDMDL
MODEL 9
REMARK VINA RESULT:      -8.8      3.080      9.729
REMARK  4 active torsions:
REMARK  status: ('A' for Active; 'I' for Inactive)
REMARK    1  A    between atoms: C_3  and  N_4 
REMARK       I    between atoms: N_4  and  C_5 
REMARK       I    between atoms: C_5  and  N_6 
REMARK    2  A    between atoms: N_6  and  C_7 
REMARK    3  A    between atoms: C_7  and  C_8 
REMARK    4  A    between atoms: C_11  and  C_12 
ROOT
HETATM    1  N   UNL     1       6.950  26.640  57.103  1.00  0.00    -0.309 N 
HETATM    2  C   UNL     1       7.472  27.897  56.879  1.00  0.00     0.321 C 
HETATM    3  N   UNL     1       6.934  28.807  57.764  1.00  0.00    -0.335 N 
HETATM    4  O   UNL     1       8.347  28.198  56.081  1.00  0.00    -0.247 OA
HETATM    5  H   UNL     1       6.736  26.490  58.078  1.00  0.00     0.170 HD
HETATM    6  H   UNL     1       5.977  28.643  58.047  1.00  0.00     0.164 HD
ENDROOT
BRANCH   3   7
HETATM    7  C   UNL     1       7.430  30.169  57.803  1.00  0.00     0.213 C 
BRANCH   7   8
HETATM    8  C   UNL     1       7.705  30.659  59.178  1.00  0.00     0.190 A 
HETATM    9  O   UNL     1       8.689  30.056  59.905  1.00  0.00    -0.194 OA
HETATM   10  N   UNL     1       8.729  30.707  61.137  1.00  0.00    -0.106 NA
HETATM   11  C   UNL     1       7.752  31.625  61.049  1.00  0.00     0.189 A 
HETATM   12  N   UNL     1       7.110  31.635  59.828  1.00  0.00    -0.202 NA
BRANCH  11  13
HETATM   13  C   UNL     1       7.374  32.537  62.126  1.00  0.00     0.014 A 
HETATM   14  C   UNL     1       6.435  33.557  61.920  1.00  0.00     0.015 A 
HETATM   15  C   UNL     1       6.093  34.429  62.958  1.00  0.00     0.001 A 
HETATM   16  C   UNL     1       6.685  34.291  64.212  1.00  0.00     0.000 A 
HETATM   17  C   UNL     1       7.619  33.280  64.432  1.00  0.00     0.001 A 
HETATM   18  C   UNL     1       7.960  32.409  63.395  1.00  0.00     0.015 A 
ENDBRANCH  11  13
ENDBRANCH   7   8
ENDBRANCH   3   7
BRANCH   1  19
HETATM   19  C   UNL     1       7.327  25.480  56.384  1.00  0.00     0.042 A 
HETATM   20  C   UNL     1       6.715  25.043  55.195  1.00  0.00    -0.035 A 
HETATM   21  C   UNL     1       5.513  25.700  54.576  1.00  0.00     0.050 C 
HETATM   22  C   UNL     1       7.236  23.906  54.546  1.00  0.00     0.009 A 
HETATM   23  C   UNL     1       8.298  23.185  55.089  1.00  0.00     0.001 A 
HETATM   24  C   UNL     1       8.854  23.582  56.298  1.00  0.00     0.002 A 
HETATM   25  C   UNL     1       8.363  24.716  56.946  1.00  0.00     0.030 A 
ENDBRANCH   1  19
TORSDOF 4
ENDMDL
MODEL 10
REMARK VINA RESULT:      -8.6      9.925     13.578
REMARK  4 active torsions:
REMARK  status: ('A' for Active; 'I' for Inactive)
REMARK    1  A    between atoms: C_3  and  N_4 
REMARK       I    between atoms: N_4  and  C_5 
REMARK       I    between atoms: C_5  and  N_6 
REMARK    2  A    between atoms: N_6  and  C_7 
REMARK    3  A    between atoms: C_7  and  C_8 
REMARK    4  A    between atoms: C_11  and  C_12 
ROOT
HETATM    1  N   UNL     1       7.632  34.653  69.287  1.00  0.00    -0.309 N 
HETATM    2  C   UNL     1       6.373  34.596  68.728  1.00  0.00     0.321 C 
HETATM    3  N   UNL     1       6.458  34.550  67.353  1.00  0.00    -0.335 N 
HETATM    4  O   UNL     1       5.308  34.512  69.322  1.00  0.00    -0.247 OA
HETATM    5  H   UNL     1       8.312  34.152  68.733  1.00  0.00     0.170 HD
HETATM    6  H   UNL     1       7.230  35.051  66.936  1.00  0.00     0.164 HD
ENDROOT
BRANCH   3   7
HETATM    7  C   UNL     1       5.262  34.357  66.554  1.00  0.00     0.213 C 
BRANCH   7   8
HETATM    8  C   UNL     1       5.518  33.656  65.269  1.00  0.00     0.190 A 
HETATM    9  O   UNL     1       4.539  32.861  64.749  1.00  0.00    -0.194 OA
HETATM   10  N   UNL     1       5.043  32.337  63.559  1.00  0.00    -0.106 NA
HETATM   11  C   UNL     1       6.284  32.844  63.483  1.00  0.00     0.189 A 
HETATM   12  N   UNL     1       6.601  33.691  64.525  1.00  0.00    -0.202 NA
BRANCH  11  13
HETATM   13  C   UNL     1       7.236  32.543  62.417  1.00  0.00     0.014 A 
HETATM   14  C   UNL     1       6.881  32.666  61.066  1.00  0.00     0.015 A 
HETATM   15  C   UNL     1       7.801  32.362  60.058  1.00  0.00     0.001 A 
HETATM   16  C   UNL     1       9.085  31.932  60.388  1.00  0.00     0.000 A 
HETATM   17  C   UNL     1       9.453  31.807  61.727  1.00  0.00     0.001 A 
HETATM   18  C   UNL     1       8.534  32.111  62.734  1.00  0.00     0.015 A 
ENDBRANCH  11  13
ENDBRANCH   7   8
ENDBRANCH   3   7
BRANCH   1  19
HETATM   19  C   UNL     1       7.887  34.672  70.680  1.00  0.00     0.042 A 
HETATM   20  C   UNL     1       8.062  35.839  71.443  1.00  0.00    -0.035 A 
HETATM   21  C   UNL     1       8.096  37.227  70.864  1.00  0.00     0.050 C 
HETATM   22  C   UNL     1       8.243  35.716  72.835  1.00  0.00     0.009 A 
HETATM   23  C   UNL     1       8.306  34.466  73.449  1.00  0.00     0.001 A 
HETATM   24  C   UNL     1       8.200  33.315  72.680  1.00  0.00     0.002 A 
HETATM   25  C   UNL     1       8.003  33.418  71.303  1.00  0.00     0.030 A 
ENDBRANCH   1  19
TORSDOF 4
ENDMDL
