MODEL 1
REMARK VINA RESULT:      -9.5      0.000      0.000
REMARK  5 active torsions:
REMARK  status: ('A' for Active; 'I' for Inactive)
REMARK    1  A    between atoms: O_2  and  C_3 
REMARK    2  A    between atoms: C_4  and  C_5 
REMARK    3  A    between atoms: C_5  and  C_6 
REMARK       I    between atoms: C_6  and  N_7 
REMARK    4  A    between atoms: N_7  and  C_8 
REMARK    5  A    between atoms: C_9  and  O_10 
ROOT
HETATM    1  C   UNL     1       7.760  26.959  56.454  1.00  0.00     0.071 A 
HETATM    2  C   UNL     1       7.459  26.702  55.102  1.00  0.00     0.096 A 
HETATM    3  C   UNL     1       7.434  25.400  54.582  1.00  0.00     0.054 A 
HETATM    4  C   UNL     1       7.785  24.337  55.429  1.00  0.00     0.014 A 
HETATM    5  C   UNL     1       8.142  24.625  56.742  1.00  0.00     0.089 A 
HETATM    6  O   UNL     1       8.459  23.477  57.407  1.00  0.00    -0.309 OA
HETATM    7  C   UNL     1       8.308  22.449  56.526  1.00  0.00     0.087 A 
HETATM    8  C   UNL     1       7.897  22.924  55.286  1.00  0.00     0.011 A 
HETATM    9  C   UNL     1       8.531  21.102  56.808  1.00  0.00     0.038 A 
HETATM   10  C   UNL     1       8.325  20.199  55.758  1.00  0.00     0.003 A 
HETATM   11  C   UNL     1       7.918  20.639  54.495  1.00  0.00     0.001 A 
HETATM   12  C   UNL     1       7.700  22.000  54.242  1.00  0.00     0.015 A 
HETATM   13  C   UNL     1       8.164  25.909  57.290  1.00  0.00     0.070 A 
ENDROOT
BRANCH   1  14
HETATM   14  N   UNL     1       7.754  28.266  56.989  1.00  0.00    -0.324 N 
HETATM   15  C   UNL     1       6.600  28.938  57.360  1.00  0.00     0.226 C 
HETATM   16  O   UNL     1       5.509  28.408  57.567  1.00  0.00    -0.273 OA
HETATM   17  H   UNL     1       8.622  28.631  57.365  1.00  0.00     0.169 HD
BRANCH  15  18
HETATM   18  C   UNL     1       6.755  30.443  57.445  1.00  0.00     0.144 C 
BRANCH  18  19
HETATM   19  C   UNL     1       7.702  30.950  58.502  1.00  0.00    -0.016 A 
HETATM   20  C   UNL     1       9.087  30.988  58.291  1.00  0.00     0.074 A 
HETATM   21  C   UNL     1       9.952  31.480  59.270  1.00  0.00     0.037 A 
HETATM   22  C   UNL     1       9.435  31.975  60.465  1.00  0.00     0.003 A 
HETATM   23  C   UNL     1       8.060  31.949  60.692  1.00  0.00     0.001 A 
HETATM   24  C   UNL     1       7.198  31.432  59.720  1.00  0.00     0.010 A 
BRANCH  20  25
HETATM   25  O   UNL     1       9.605  30.445  57.145  1.00  0.00    -0.355 OA
HETATM   26  C   UNL     1      10.965  30.053  57.347  1.00  0.00     0.210 C 
ENDBRANCH  20  25
ENDBRANCH  18  19
ENDBRANCH  15  18
ENDBRANCH   1  14
BRANCH   2  27
HETATM   27  O   UNL     1       7.236  27.720  54.204  1.00  0.00    -0.354 OA
HETATM   28  C   UNL     1       5.872  27.708  53.779  1.00  0.00     0.210 C 
ENDBRANCH   2  27
TORSDOF 5
ENDMDL
MODEL 2
REMARK VINA RESULT:      -9.2      3.992      7.784
REMARK  5 active torsions:
REMARK  status: ('A' for Active; 'I' for Inactive)
REMARK    1  A    between atoms: O_2  and  C_3 
REMARK    2  A    between atoms: C_4  and  C_5 
REMARK    3  A    between atoms: C_5  and  C_6 
REMARK       I    between atoms: C_6  and  N_7 
REMARK    4  A    between atoms: N_7  and  C_8 
REMARK    5  A    between atoms: C_9  and  O_10 
ROOT
HETATM    1  C   UNL     1       6.996  25.837  52.576  1.00  0.00     0.071 A 
HETATM    2  C   UNL     1       7.125  26.196  53.932  1.00  0.00     0.096 A 
HETATM    3  C   UNL     1       7.476  25.261  54.916  1.00  0.00     0.054 A 
HETATM    4  C   UNL     1       7.635  23.919  54.535  1.00  0.00     0.014 A 
HETATM    5  C   UNL     1       7.436  23.580  53.200  1.00  0.00     0.089 A 
HETATM    6  O   UNL     1       7.623  22.242  53.020  1.00  0.00    -0.309 OA
HETATM    7  C   UNL     1       7.940  21.714  54.236  1.00  0.00     0.087 A 
HETATM    8  C   UNL     1       7.957  22.707  55.210  1.00  0.00     0.011 A 
HETATM    9  C   UNL     1       8.212  20.371  54.491  1.00  0.00     0.038 A 
HETATM   10  C   UNL     1       8.511  20.031  55.815  1.00  0.00     0.003 A 
HETATM   11  C   UNL     1       8.532  20.999  56.823  1.00  0.00     0.001 A 
HETATM   12  C   UNL     1       8.256  22.344  56.537  1.00  0.00     0.015 A 
HETATM   13  C   UNL     1       7.099  24.492  52.197  1.00  0.00     0.070 A 
ENDROOT
BRANCH   1  14
HETATM   14  N   UNL     1       6.677  26.783  51.576  1.00  0.00    -0.324 N 
HETATM   15  C   UNL     1       5.383  27.189  51.289  1.00  0.00     0.226 C 
HETATM   16  O   UNL     1       4.414  27.039  52.031  1.00  0.00    -0.273 OA
HETATM   17  H   UNL     1       7.419  27.384  51.234  1.00  0.00     0.169 HD
BRANCH  15  18
HETATM   18  C   UNL     1       5.215  27.809  49.916  1.00  0.00     0.144 C 
BRANCH  18  19
HETATM   19  C   UNL     1       4.061  27.290  49.095  1.00  0.00    -0.016 A 
HETATM   20  C   UNL     1       2.891  28.040  48.915  1.00  0.00     0.074 A 
HETATM   21  C   UNL     1       1.839  27.558  48.135  1.00  0.00     0.037 A 
HETATM   22  C   UNL     1       1.961  26.326  47.494  1.00  0.00     0.003 A 
HETATM   23  C   UNL     1       3.119  25.568  47.658  1.00  0.00     0.001 A 
HETATM   24  C   UNL     1       4.160  26.043  48.461  1.00  0.00     0.010 A 
BRANCH  20  25
HETATM   25  O   UNL     1       2.741  29.221  49.594  1.00  0.00    -0.355 OA
HETATM   26  C   UNL     1       1.648  29.135  50.511  1.00  0.00     0.210 C 
ENDBRANCH  20  25
ENDBRANCH  18  19
ENDBRANCH  15  18
ENDBRANCH   1  14
BRANCH   2  27
HETATM   27  O   UNL     1       6.853  27.470  54.373  1.00  0.00    -0.354 OA
HETATM   28  C   UNL     1       5.833  27.435  55.373  1.00  0.00     0.210 C 
ENDBRANCH   2  27
TORSDOF 5
ENDMDL
MODEL 3
REMARK VINA RESULT:      -9.2      1.350      1.978
REMARK  5 active torsions:
REMARK  status: ('A' for Active; 'I' for Inactive)
REMARK    1  A    between atoms: O_2  and  C_3 
REMARK    2  A    between atoms: C_4  and  C_5 
REMARK    3  A    between atoms: C_5  and  C_6 
REMARK       I    between atoms: C_6  and  N_7 
REMARK    4  A    between atoms: N_7  and  C_8 
REMARK    5  A    between atoms: C_9  and  O_10 
ROOT
HETATM    1  C   UNL     1       7.668  27.057  55.929  1.00  0.00     0.071 A 
HETATM    2  C   UNL     1       7.501  26.921  54.537  1.00  0.00     0.096 A 
HETATM    3  C   UNL     1       7.491  25.668  53.909  1.00  0.00     0.054 A 
HETATM    4  C   UNL     1       7.721  24.527  54.695  1.00  0.00     0.014 A 
HETATM    5  C   UNL     1       7.949  24.694  56.057  1.00  0.00     0.089 A 
HETATM    6  O   UNL     1       8.161  23.486  56.652  1.00  0.00    -0.309 OA
HETATM    7  C   UNL     1       8.072  22.538  55.677  1.00  0.00     0.087 A 
HETATM    8  C   UNL     1       7.806  23.127  54.446  1.00  0.00     0.011 A 
HETATM    9  C   UNL     1       8.225  21.165  55.865  1.00  0.00     0.038 A 
HETATM   10  C   UNL     1       8.102  20.359  54.728  1.00  0.00     0.003 A 
HETATM   11  C   UNL     1       7.842  20.914  53.472  1.00  0.00     0.001 A 
HETATM   12  C   UNL     1       7.690  22.299  53.313  1.00  0.00     0.015 A 
HETATM   13  C   UNL     1       7.952  25.929  56.710  1.00  0.00     0.070 A 
ENDROOT
BRANCH   1  14
HETATM   14  N   UNL     1       7.644  28.316  56.569  1.00  0.00    -0.324 N 
HETATM   15  C   UNL     1       6.513  28.857  57.158  1.00  0.00     0.226 C 
HETATM   16  O   UNL     1       5.508  28.220  57.475  1.00  0.00    -0.273 OA
HETATM   17  H   UNL     1       8.530  28.727  56.845  1.00  0.00     0.169 HD
BRANCH  15  18
HETATM   18  C   UNL     1       6.565  30.359  57.348  1.00  0.00     0.144 C 
BRANCH  18  19
HETATM   19  C   UNL     1       7.244  30.842  58.605  1.00  0.00    -0.016 A 
HETATM   20  C   UNL     1       6.870  32.040  59.228  1.00  0.00     0.074 A 
HETATM   21  C   UNL     1       7.491  32.466  60.403  1.00  0.00     0.037 A 
HETATM   22  C   UNL     1       8.477  31.675  60.990  1.00  0.00     0.003 A 
HETATM   23  C   UNL     1       8.860  30.478  60.386  1.00  0.00     0.001 A 
HETATM   24  C   UNL     1       8.253  30.068  59.196  1.00  0.00     0.010 A 
BRANCH  20  25
HETATM   25  O   UNL     1       5.947  32.852  58.621  1.00  0.00    -0.355 OA
HETATM   26  C   UNL     1       4.772  32.964  59.429  1.00  0.00     0.210 C 
ENDBRANCH  20  25
ENDBRANCH  18  19
ENDBRANCH  15  18
ENDBRANCH   1  14
BRANCH   2  27
HETATM   27  O   UNL     1       7.402  28.016  53.710  1.00  0.00    -0.354 OA
HETATM   28  C   UNL     1       6.048  28.193  53.291  1.00  0.00     0.210 C 
ENDBRANCH   2  27
TORSDOF 5
ENDMDL
MODEL 4
REMARK VINA RESULT:      -9.2      4.798      9.480
REMARK  5 active torsions:
REMARK  status: ('A' for Active; 'I' for Inactive)
REMARK    1  A    between atoms: O_2  and  C_3 
REMARK    2  A    between atoms: C_4  and  C_5 
REMARK    3  A    between atoms: C_5  and  C_6 
REMARK       I    between atoms: C_6  and  N_7 
REMARK    4  A    between atoms: N_7  and  C_8 
REMARK    5  A    between atoms: C_9  and  O_10 
ROOT
HETATM    1  C   UNL     1       5.363  26.523  50.773  1.00  0.00     0.071 A 
HETATM    2  C   UNL     1       5.091  27.866  51.095  1.00  0.00     0.096 A 
HETATM    3  C   UNL     1       4.076  28.592  50.457  1.00  0.00     0.054 A 
HETATM    4  C   UNL     1       3.361  27.968  49.422  1.00  0.00     0.014 A 
HETATM    5  C   UNL     1       3.694  26.662  49.078  1.00  0.00     0.089 A 
HETATM    6  O   UNL     1       2.906  26.228  48.053  1.00  0.00    -0.309 OA
HETATM    7  C   UNL     1       2.066  27.251  47.733  1.00  0.00     0.087 A 
HETATM    8  C   UNL     1       2.307  28.354  48.545  1.00  0.00     0.011 A 
HETATM    9  C   UNL     1       1.094  27.219  46.734  1.00  0.00     0.038 A 
HETATM   10  C   UNL     1       0.336  28.382  46.558  1.00  0.00     0.003 A 
HETATM   11  C   UNL     1       0.553  29.514  47.350  1.00  0.00     0.001 A 
HETATM   12  C   UNL     1       1.536  29.516  48.349  1.00  0.00     0.015 A 
HETATM   13  C   UNL     1       4.691  25.912  49.705  1.00  0.00     0.070 A 
ENDROOT
BRANCH   1  14
HETATM   14  N   UNL     1       6.362  25.778  51.438  1.00  0.00    -0.324 N 
HETATM   15  C   UNL     1       6.150  25.096  52.625  1.00  0.00     0.226 C 
HETATM   16  O   UNL     1       5.047  24.790  53.076  1.00  0.00    -0.273 OA
HETATM   17  H   UNL     1       7.186  25.508  50.911  1.00  0.00     0.169 HD
BRANCH  15  18
HETATM   18  C   UNL     1       7.414  24.783  53.400  1.00  0.00     0.144 C 
BRANCH  18  19
HETATM   19  C   UNL     1       7.604  23.341  53.797  1.00  0.00    -0.016 A 
HETATM   20  C   UNL     1       7.445  22.916  55.122  1.00  0.00     0.074 A 
HETATM   21  C   UNL     1       7.602  21.574  55.473  1.00  0.00     0.037 A 
HETATM   22  C   UNL     1       7.891  20.631  54.489  1.00  0.00     0.003 A 
HETATM   23  C   UNL     1       8.050  21.035  53.164  1.00  0.00     0.001 A 
HETATM   24  C   UNL     1       7.916  22.383  52.821  1.00  0.00     0.010 A 
BRANCH  20  25
HETATM   25  O   UNL     1       7.224  23.847  56.103  1.00  0.00    -0.355 OA
HETATM   26  C   UNL     1       8.357  23.940  56.969  1.00  0.00     0.210 C 
ENDBRANCH  20  25
ENDBRANCH  18  19
ENDBRANCH  15  18
ENDBRANCH   1  14
BRANCH   2  27
HETATM   27  O   UNL     1       5.850  28.559  52.011  1.00  0.00    -0.354 OA
HETATM   28  C   UNL     1       5.096  28.781  53.203  1.00  0.00     0.210 C 
ENDBRANCH   2  27
TORSDOF 5
ENDMDL
MODEL 5
REMARK VINA RESULT:      -9.1      1.403      2.388
REMARK  5 active torsions:
REMARK  status: ('A' for Active; 'I' for Inactive)
REMARK    1  A    between atoms: O_2  and  C_3 
REMARK    2  A    between atoms: C_4  and  C_5 
REMARK    3  A    between atoms: C_5  and  C_6 
REMARK       I    between atoms: C_6  and  N_7 
REMARK    4  A    between atoms: N_7  and  C_8 
REMARK    5  A    between atoms: C_9  and  O_10 
ROOT
HETATM    1  C   UNL     1       7.516  26.588  56.841  1.00  0.00     0.071 A 
HETATM    2  C   UNL     1       7.077  26.574  55.503  1.00  0.00     0.096 A 
HETATM    3  C   UNL     1       7.121  25.413  54.719  1.00  0.00     0.054 A 
HETATM    4  C   UNL     1       7.683  24.253  55.277  1.00  0.00     0.014 A 
HETATM    5  C   UNL     1       8.170  24.312  56.578  1.00  0.00     0.089 A 
HETATM    6  O   UNL     1       8.684  23.103  56.945  1.00  0.00    -0.309 OA
HETATM    7  C   UNL     1       8.532  22.264  55.882  1.00  0.00     0.087 A 
HETATM    8  C   UNL     1       7.923  22.925  54.821  1.00  0.00     0.011 A 
HETATM    9  C   UNL     1       8.926  20.928  55.842  1.00  0.00     0.038 A 
HETATM   10  C   UNL     1       8.686  20.238  54.648  1.00  0.00     0.003 A 
HETATM   11  C   UNL     1       8.081  20.870  53.557  1.00  0.00     0.001 A 
HETATM   12  C   UNL     1       7.693  22.215  53.627  1.00  0.00     0.015 A 
HETATM   13  C   UNL     1       8.127  25.451  57.386  1.00  0.00     0.070 A 
ENDROOT
BRANCH   1  14
HETATM   14  N   UNL     1       7.441  27.747  57.644  1.00  0.00    -0.324 N 
HETATM   15  C   UNL     1       8.383  28.763  57.617  1.00  0.00     0.226 C 
HETATM   16  O   UNL     1       9.198  28.946  56.714  1.00  0.00    -0.273 OA
HETATM   17  H   UNL     1       6.546  27.981  58.061  1.00  0.00     0.169 HD
BRANCH  15  18
HETATM   18  C   UNL     1       8.387  29.644  58.849  1.00  0.00     0.144 C 
BRANCH  18  19
HETATM   19  C   UNL     1       7.354  30.742  58.879  1.00  0.00    -0.016 A 
HETATM   20  C   UNL     1       7.215  31.592  59.985  1.00  0.00     0.074 A 
HETATM   21  C   UNL     1       6.270  32.619  59.991  1.00  0.00     0.037 A 
HETATM   22  C   UNL     1       5.470  32.830  58.870  1.00  0.00     0.003 A 
HETATM   23  C   UNL     1       5.596  31.997  57.759  1.00  0.00     0.001 A 
HETATM   24  C   UNL     1       6.527  30.954  57.766  1.00  0.00     0.010 A 
BRANCH  20  25
HETATM   25  O   UNL     1       7.955  31.349  61.113  1.00  0.00    -0.355 OA
HETATM   26  C   UNL     1       7.122  31.387  62.274  1.00  0.00     0.210 C 
ENDBRANCH  20  25
ENDBRANCH  18  19
ENDBRANCH  15  18
ENDBRANCH   1  14
BRANCH   2  27
HETATM   27  O   UNL     1       6.639  27.717  54.873  1.00  0.00    -0.354 OA
HETATM   28  C   UNL     1       7.382  27.929  53.672  1.00  0.00     0.210 C 
ENDBRANCH   2  27
TORSDOF 5
ENDMDL
MODEL 6
REMARK VINA RESULT:      -9.0      1.673      7.949
REMARK  5 active torsions:
REMARK  status: ('A' for Active; 'I' for Inactive)
REMARK    1  A    between atoms: O_2  and  C_3 
REMARK    2  A    between atoms: C_4  and  C_5 
REMARK    3  A    between atoms: C_5  and  C_6 
REMARK       I    between atoms: C_6  and  N_7 
REMARK    4  A    between atoms: N_7  and  C_8 
REMARK    5  A    between atoms: C_9  and  O_10 
ROOT
HETATM    1  C   UNL     1       7.318  27.500  54.831  1.00  0.00     0.071 A 
HETATM    2  C   UNL     1       6.225  28.378  54.700  1.00  0.00     0.096 A 
HETATM    3  C   UNL     1       5.974  29.395  55.632  1.00  0.00     0.054 A 
HETATM    4  C   UNL     1       6.809  29.488  56.758  1.00  0.00     0.014 A 
HETATM    5  C   UNL     1       7.842  28.567  56.896  1.00  0.00     0.089 A 
HETATM    6  O   UNL     1       8.535  28.804  58.046  1.00  0.00    -0.309 OA
HETATM    7  C   UNL     1       7.952  29.876  58.652  1.00  0.00     0.087 A 
HETATM    8  C   UNL     1       6.875  30.335  57.900  1.00  0.00     0.011 A 
HETATM    9  C   UNL     1       8.358  30.446  59.857  1.00  0.00     0.038 A 
HETATM   10  C   UNL     1       7.618  31.542  60.314  1.00  0.00     0.003 A 
HETATM   11  C   UNL     1       6.525  32.029  59.591  1.00  0.00     0.001 A 
HETATM   12  C   UNL     1       6.140  31.436  58.380  1.00  0.00     0.015 A 
HETATM   13  C   UNL     1       8.122  27.552  55.978  1.00  0.00     0.070 A 
ENDROOT
BRANCH   1  14
HETATM   14  N   UNL     1       7.593  26.496  53.876  1.00  0.00    -0.324 N 
HETATM   15  C   UNL     1       7.030  25.230  53.909  1.00  0.00     0.226 C 
HETATM   16  O   UNL     1       6.025  24.920  54.547  1.00  0.00    -0.273 OA
HETATM   17  H   UNL     1       8.003  26.778  52.992  1.00  0.00     0.169 HD
BRANCH  15  18
HETATM   18  C   UNL     1       7.795  24.187  53.119  1.00  0.00     0.144 C 
BRANCH  18  19
HETATM   19  C   UNL     1       8.066  22.887  53.833  1.00  0.00    -0.016 A 
HETATM   20  C   UNL     1       8.578  22.857  55.137  1.00  0.00     0.074 A 
HETATM   21  C   UNL     1       8.804  21.648  55.796  1.00  0.00     0.037 A 
HETATM   22  C   UNL     1       8.487  20.447  55.164  1.00  0.00     0.003 A 
HETATM   23  C   UNL     1       7.973  20.456  53.868  1.00  0.00     0.001 A 
HETATM   24  C   UNL     1       7.772  21.669  53.203  1.00  0.00     0.010 A 
BRANCH  20  25
HETATM   25  O   UNL     1       8.951  24.032  55.737  1.00  0.00    -0.355 OA
HETATM   26  C   UNL     1       8.723  23.967  57.147  1.00  0.00     0.210 C 
ENDBRANCH  20  25
ENDBRANCH  18  19
ENDBRANCH  15  18
ENDBRANCH   1  14
BRANCH   2  27
HETATM   27  O   UNL     1       5.305  28.243  53.685  1.00  0.00    -0.354 OA
HETATM   28  C   UNL     1       4.563  29.454  53.533  1.00  0.00     0.210 C 
ENDBRANCH   2  27
TORSDOF 5
ENDMDL
MODEL 7
REMARK VINA RESULT:      -9.0      3.692      6.725
REMARK  5 active torsions:
REMARK  status: ('A' for Active; 'I' for Inactive)
REMARK    1  A    between atoms: O_2  and  C_3 
REMARK    2  A    between atoms: C_4  and  C_5 
REMARK    3  A    between atoms: C_5  and  C_6 
REMARK       I    between atoms: C_6  and  N_7 
REMARK    4  A    between atoms: N_7  and  C_8 
REMARK    5  A    between atoms: C_9  and  O_10 
ROOT
HETATM    1  C   UNL     1       6.867  26.332  53.576  1.00  0.00     0.071 A 
HETATM    2  C   UNL     1       7.102  26.241  54.962  1.00  0.00     0.096 A 
HETATM    3  C   UNL     1       7.555  25.057  55.561  1.00  0.00     0.054 A 
HETATM    4  C   UNL     1       7.710  23.919  54.754  1.00  0.00     0.014 A 
HETATM    5  C   UNL     1       7.407  24.018  53.400  1.00  0.00     0.089 A 
HETATM    6  O   UNL     1       7.607  22.819  52.782  1.00  0.00    -0.309 OA
HETATM    7  C   UNL     1       8.037  21.944  53.735  1.00  0.00     0.087 A 
HETATM    8  C   UNL     1       8.114  22.571  54.974  1.00  0.00     0.011 A 
HETATM    9  C   UNL     1       8.358  20.606  53.519  1.00  0.00     0.038 A 
HETATM   10  C   UNL     1       8.775  19.872  54.635  1.00  0.00     0.003 A 
HETATM   11  C   UNL     1       8.860  20.464  55.899  1.00  0.00     0.001 A 
HETATM   12  C   UNL     1       8.532  21.814  56.086  1.00  0.00     0.015 A 
HETATM   13  C   UNL     1       6.967  25.187  52.775  1.00  0.00     0.070 A 
ENDROOT
BRANCH   1  14
HETATM   14  N   UNL     1       6.444  27.533  52.964  1.00  0.00    -0.324 N 
HETATM   15  C   UNL     1       5.113  27.880  52.792  1.00  0.00     0.226 C 
HETATM   16  O   UNL     1       4.168  27.377  53.398  1.00  0.00    -0.273 OA
HETATM   17  H   UNL     1       7.115  28.289  52.884  1.00  0.00     0.169 HD
BRANCH  15  18
HETATM   18  C   UNL     1       4.875  28.925  51.721  1.00  0.00     0.144 C 
BRANCH  18  19
HETATM   19  C   UNL     1       4.930  28.435  50.296  1.00  0.00    -0.016 A 
HETATM   20  C   UNL     1       5.640  29.128  49.307  1.00  0.00     0.074 A 
HETATM   21  C   UNL     1       5.702  28.652  47.996  1.00  0.00     0.037 A 
HETATM   22  C   UNL     1       5.076  27.452  47.666  1.00  0.00     0.003 A 
HETATM   23  C   UNL     1       4.368  26.747  48.638  1.00  0.00     0.001 A 
HETATM   24  C   UNL     1       4.287  27.239  49.943  1.00  0.00     0.010 A 
BRANCH  20  25
HETATM   25  O   UNL     1       6.203  30.340  49.612  1.00  0.00    -0.355 OA
HETATM   26  C   UNL     1       5.473  31.401  48.989  1.00  0.00     0.210 C 
ENDBRANCH  20  25
ENDBRANCH  18  19
ENDBRANCH  15  18
ENDBRANCH   1  14
BRANCH   2  27
HETATM   27  O   UNL     1       6.840  27.291  55.812  1.00  0.00    -0.354 OA
HETATM   28  C   UNL     1       5.687  27.004  56.603  1.00  0.00     0.210 C 
ENDBRANCH   2  27
TORSDOF 5
ENDMDL
MODEL 8
REMARK VINA RESULT:      -8.7      2.663      8.819
REMARK  5 active torsions:
REMARK  status: ('A' for Active; 'I' for Inactive)
REMARK    1  A    between atoms: O_2  and  C_3 
REMARK    2  A    between atoms: C_4  and  C_5 
REMARK    3  A    between atoms: C_5  and  C_6 
REMARK       I    between atoms: C_6  and  N_7 
REMARK    4  A    between atoms: N_7  and  C_8 
REMARK    5  A    between atoms: C_9  and  O_10 
ROOT
HETATM    1  C   UNL     1       7.551  30.262  57.405  1.00  0.00     0.071 A 
HETATM    2  C   UNL     1       8.731  29.966  58.114  1.00  0.00     0.096 A 
HETATM    3  C   UNL     1       8.937  30.406  59.429  1.00  0.00     0.054 A 
HETATM    4  C   UNL     1       7.957  31.219  60.021  1.00  0.00     0.014 A 
HETATM    5  C   UNL     1       6.831  31.551  59.275  1.00  0.00     0.089 A 
HETATM    6  O   UNL     1       6.000  32.350  60.004  1.00  0.00    -0.309 OA
HETATM    7  C   UNL     1       6.588  32.536  61.219  1.00  0.00     0.087 A 
HETATM    8  C   UNL     1       7.803  31.862  61.282  1.00  0.00     0.011 A 
HETATM    9  C   UNL     1       6.064  33.292  62.266  1.00  0.00     0.038 A 
HETATM   10  C   UNL     1       6.830  33.363  63.434  1.00  0.00     0.003 A 
HETATM   11  C   UNL     1       8.060  32.705  63.534  1.00  0.00     0.001 A 
HETATM   12  C   UNL     1       8.561  31.950  62.465  1.00  0.00     0.015 A 
HETATM   13  C   UNL     1       6.594  31.117  57.968  1.00  0.00     0.070 A 
ENDROOT
BRANCH   1  14
HETATM   14  N   UNL     1       7.325  29.792  56.092  1.00  0.00    -0.324 N 
HETATM   15  C   UNL     1       7.172  28.453  55.771  1.00  0.00     0.226 C 
HETATM   16  O   UNL     1       6.903  27.561  56.574  1.00  0.00    -0.273 OA
HETATM   17  H   UNL     1       7.001  30.456  55.397  1.00  0.00     0.169 HD
BRANCH  15  18
HETATM   18  C   UNL     1       7.422  28.127  54.312  1.00  0.00     0.144 C 
BRANCH  18  19
HETATM   19  C   UNL     1       6.816  26.841  53.810  1.00  0.00    -0.016 A 
HETATM   20  C   UNL     1       5.438  26.713  53.594  1.00  0.00     0.074 A 
HETATM   21  C   UNL     1       4.892  25.524  53.107  1.00  0.00     0.037 A 
HETATM   22  C   UNL     1       5.729  24.454  52.798  1.00  0.00     0.003 A 
HETATM   23  C   UNL     1       7.103  24.564  53.003  1.00  0.00     0.001 A 
HETATM   24  C   UNL     1       7.644  25.748  53.514  1.00  0.00     0.010 A 
BRANCH  20  25
HETATM   25  O   UNL     1       4.605  27.739  53.956  1.00  0.00    -0.355 OA
HETATM   26  C   UNL     1       3.711  28.059  52.887  1.00  0.00     0.210 C 
ENDBRANCH  20  25
ENDBRANCH  18  19
ENDBRANCH  15  18
ENDBRANCH   1  14
BRANCH   2  27
HETATM   27  O   UNL     1       9.774  29.282  57.531  1.00  0.00    -0.354 OA
HETATM   28  C   UNL     1      10.812  30.192  57.166  1.00  0.00     0.210 C 
ENDBRANCH   2  27
TORSDOF 5
ENDMDL
MODEL 9
REMARK VINA RESULT:      -8.6      4.370     10.356
REMARK  5 active torsions:
REMARK  status: ('A' for Active; 'I' for Inactive)
REMARK    1  A    between atoms: O_2  and  C_3 
REMARK    2  A    between atoms: C_4  and  C_5 
REMARK    3  A    between atoms: C_5  and  C_6 
REMARK       I    between atoms: C_6  and  N_7 
REMARK    4  A    between atoms: N_7  and  C_8 
REMARK    5  A    between atoms: C_9  and  O_10 
ROOT
HETATM    1  C   UNL     1       6.676  31.931  61.788  1.00  0.00     0.071 A 
HETATM    2  C   UNL     1       7.882  32.208  62.459  1.00  0.00     0.096 A 
HETATM    3  C   UNL     1       7.905  32.756  63.749  1.00  0.00     0.054 A 
HETATM    4  C   UNL     1       6.682  33.094  64.351  1.00  0.00     0.014 A 
HETATM    5  C   UNL     1       5.508  32.872  63.640  1.00  0.00     0.089 A 
HETATM    6  O   UNL     1       4.429  33.268  64.373  1.00  0.00    -0.309 OA
HETATM    7  C   UNL     1       4.904  33.747  65.557  1.00  0.00     0.087 A 
HETATM    8  C   UNL     1       6.292  33.668  65.595  1.00  0.00     0.011 A 
HETATM    9  C   UNL     1       4.125  34.252  66.597  1.00  0.00     0.038 A 
HETATM   10  C   UNL     1       4.809  34.704  67.731  1.00  0.00     0.003 A 
HETATM   11  C   UNL     1       6.205  34.647  67.805  1.00  0.00     0.001 A 
HETATM   12  C   UNL     1       6.961  34.131  66.743  1.00  0.00     0.015 A 
HETATM   13  C   UNL     1       5.455  32.316  62.359  1.00  0.00     0.070 A 
ENDROOT
BRANCH   1  14
HETATM   14  N   UNL     1       6.649  31.347  60.502  1.00  0.00    -0.324 N 
HETATM   15  C   UNL     1       6.287  32.034  59.354  1.00  0.00     0.226 C 
HETATM   16  O   UNL     1       6.251  33.259  59.246  1.00  0.00    -0.273 OA
HETATM   17  H   UNL     1       7.158  30.482  60.360  1.00  0.00     0.169 HD
BRANCH  15  18
HETATM   18  C   UNL     1       5.863  31.145  58.202  1.00  0.00     0.144 C 
BRANCH  18  19
HETATM   19  C   UNL     1       6.815  30.033  57.843  1.00  0.00    -0.016 A 
HETATM   20  C   UNL     1       8.205  30.206  57.901  1.00  0.00     0.074 A 
HETATM   21  C   UNL     1       9.076  29.162  57.587  1.00  0.00     0.037 A 
HETATM   22  C   UNL     1       8.562  27.913  57.242  1.00  0.00     0.003 A 
HETATM   23  C   UNL     1       7.183  27.721  57.182  1.00  0.00     0.001 A 
HETATM   24  C   UNL     1       6.314  28.776  57.473  1.00  0.00     0.010 A 
BRANCH  20  25
HETATM   25  O   UNL     1       8.714  31.448  58.178  1.00  0.00    -0.355 OA
HETATM   26  C   UNL     1      10.137  31.389  58.302  1.00  0.00     0.210 C 
ENDBRANCH  20  25
ENDBRANCH  18  19
ENDBRANCH  15  18
ENDBRANCH   1  14
BRANCH   2  27
HETATM   27  O   UNL     1       9.106  32.015  61.859  1.00  0.00    -0.354 OA
HETATM   28  C   UNL     1       9.464  30.633  61.912  1.00  0.00     0.210 C 
ENDBRANCH   2  27
TORSDOF 5
ENDMDL
MODEL 10
REMARK VINA RESULT:      -8.6      1.487      2.102
REMARK  5 active torsions:
REMARK  status: ('A' for Active; 'I' for Inactive)
REMARK    1  A    between atoms: O_2  and  C_3 
REMARK    2  A    between atoms: C_4  and  C_5 
REMARK    3  A    between atoms: C_5  and  C_6 
REMARK       I    between atoms: C_6  and  N_7 
REMARK    4  A    between atoms: N_7  and  C_8 
REMARK    5  A    between atoms: C_9  and  O_10 
ROOT
HETATM    1  C   UNL     1       6.970  26.941  55.306  1.00  0.00     0.071 A 
HETATM    2  C   UNL     1       6.894  26.576  53.948  1.00  0.00     0.096 A 
HETATM    3  C   UNL     1       7.074  25.252  53.524  1.00  0.00     0.054 A 
HETATM    4  C   UNL     1       7.402  24.283  54.486  1.00  0.00     0.014 A 
HETATM    5  C   UNL     1       7.536  24.682  55.812  1.00  0.00     0.089 A 
HETATM    6  O   UNL     1       7.865  23.616  56.595  1.00  0.00    -0.309 OA
HETATM    7  C   UNL     1       7.946  22.528  55.778  1.00  0.00     0.087 A 
HETATM    8  C   UNL     1       7.674  22.885  54.461  1.00  0.00     0.011 A 
HETATM    9  C   UNL     1       8.259  21.232  56.183  1.00  0.00     0.038 A 
HETATM   10  C   UNL     1       8.298  20.254  55.183  1.00  0.00     0.003 A 
HETATM   11  C   UNL     1       8.036  20.574  53.847  1.00  0.00     0.001 A 
HETATM   12  C   UNL     1       7.722  21.887  53.469  1.00  0.00     0.015 A 
HETATM   13  C   UNL     1       7.351  25.991  56.264  1.00  0.00     0.070 A 
ENDROOT
BRANCH   1  14
HETATM   14  N   UNL     1       6.756  28.268  55.741  1.00  0.00    -0.324 N 
HETATM   15  C   UNL     1       5.500  28.814  55.952  1.00  0.00     0.226 C 
HETATM   16  O   UNL     1       4.463  28.167  56.095  1.00  0.00    -0.273 OA
HETATM   17  H   UNL     1       7.533  28.761  56.167  1.00  0.00     0.169 HD
BRANCH  15  18
HETATM   18  C   UNL     1       5.468  30.329  55.939  1.00  0.00     0.144 C 
BRANCH  18  19
HETATM   19  C   UNL     1       5.393  30.999  57.288  1.00  0.00    -0.016 A 
HETATM   20  C   UNL     1       6.520  31.119  58.112  1.00  0.00     0.074 A 
HETATM   21  C   UNL     1       6.444  31.761  59.349  1.00  0.00     0.037 A 
HETATM   22  C   UNL     1       5.238  32.322  59.764  1.00  0.00     0.003 A 
HETATM   23  C   UNL     1       4.107  32.215  58.956  1.00  0.00     0.001 A 
HETATM   24  C   UNL     1       4.181  31.550  57.729  1.00  0.00     0.010 A 
BRANCH  20  25
HETATM   25  O   UNL     1       7.692  30.514  57.738  1.00  0.00    -0.355 OA
HETATM   26  C   UNL     1       8.347  29.947  58.875  1.00  0.00     0.210 C 
ENDBRANCH  20  25
ENDBRANCH  18  19
ENDBRANCH  15  18
ENDBRANCH   1  14
BRANCH   2  27
HETATM   27  O   UNL     1       6.703  27.511  52.957  1.00  0.00    -0.354 OA
HETATM   28  C   UNL     1       5.383  27.399  52.425  1.00  0.00     0.210 C 
ENDBRANCH   2  27
TORSDOF 5
ENDMDL
