MODEL 1
REMARK VINA RESULT:      -8.6      0.000      0.000
REMARK  6 active torsions:
REMARK  status: ('A' for Active; 'I' for Inactive)
REMARK    1  A    between atoms: N_2  and  C_4 
REMARK    2  A    between atoms: N_2  and  C_14 
REMARK    3  A    between atoms: C_5  and  O_6 
REMARK    4  A    between atoms: C_14  and  C_15 
REMARK    5  A    between atoms: C_15  and  O_16 
REMARK    6  A    between atoms: C_15  and  C_17 
ROOT
HETATM    1  C   UNL     1       5.157  24.729  53.076  1.00  0.00     0.270 C 
HETATM    2  N   UNL     1       6.002  25.531  54.029  1.00  0.00    -0.065 N 
HETATM    3  H   UNL     1       5.668  25.247  54.973  1.00  0.00     0.280 HD
ENDROOT
BRANCH   2   4
HETATM    4  C   UNL     1       7.512  25.193  54.073  1.00  0.00     0.225 C 
HETATM    5  C   UNL     1       7.893  24.436  55.385  1.00  0.00     0.183 C 
HETATM    6  C   UNL     1       7.858  23.007  54.926  1.00  0.00    -0.021 A 
HETATM    7  C   UNL     1       7.899  22.934  53.524  1.00  0.00    -0.047 A 
HETATM    8  C   UNL     1       7.829  21.853  55.693  1.00  0.00     0.010 A 
HETATM    9  C   UNL     1       7.955  24.297  52.902  1.00  0.00     0.075 C 
HETATM   10  C   UNL     1       7.911  21.716  52.867  1.00  0.00     0.008 A 
HETATM   11  C   UNL     1       7.864  20.552  53.634  1.00  0.00     0.001 A 
HETATM   12  C   UNL     1       7.824  20.620  55.036  1.00  0.00     0.001 A 
BRANCH   5  13
HETATM   13  O   UNL     1       6.961  24.738  56.415  1.00  0.00    -0.389 OA
HETATM   14  H   UNL     1       6.077  24.491  56.078  1.00  0.00     0.210 HD
ENDBRANCH   5  13
ENDBRANCH   2   4
BRANCH   2  15
HETATM   15  C   UNL     1       5.736  27.029  53.942  1.00  0.00     0.271 C 
BRANCH  15  16
HETATM   16  C   UNL     1       5.374  27.598  55.331  1.00  0.00     0.177 C 
BRANCH  16  17
HETATM   17  O   UNL     1       4.772  26.547  56.096  1.00  0.00    -0.389 OA
HETATM   18  H   UNL     1       4.291  25.973  55.466  1.00  0.00     0.210 HD
ENDBRANCH  16  17
BRANCH  16  19
HETATM   19  C   UNL     1       6.588  28.180  56.019  1.00  0.00    -0.028 A 
HETATM   20  C   UNL     1       7.665  28.647  55.245  1.00  0.00     0.013 A 
HETATM   21  C   UNL     1       8.816  29.144  55.860  1.00  0.00     0.043 A 
HETATM   22  C   UNL     1       8.895  29.177  57.246  1.00  0.00     0.116 A 
HETATM   23  F   UNL     1      10.000  29.649  57.833  1.00  0.00    -0.206 F 
HETATM   24  C   UNL     1       7.843  28.722  58.030  1.00  0.00     0.043 A 
HETATM   25  C   UNL     1       6.691  28.219  57.420  1.00  0.00     0.013 A 
ENDBRANCH  16  19
ENDBRANCH  15  16
ENDBRANCH   2  15
TORSDOF 6
ENDMDL
MODEL 2
REMARK VINA RESULT:      -8.0      2.259      3.450
REMARK  6 active torsions:
REMARK  status: ('A' for Active; 'I' for Inactive)
REMARK    1  A    between atoms: N_2  and  C_4 
REMARK    2  A    between atoms: N_2  and  C_14 
REMARK    3  A    between atoms: C_5  and  O_6 
REMARK    4  A    between atoms: C_14  and  C_15 
REMARK    5  A    between atoms: C_15  and  O_16 
REMARK    6  A    between atoms: C_15  and  C_17 
ROOT
HETATM    1  C   UNL     1       8.807  25.334  57.360  1.00  0.00     0.270 C 
HETATM    2  N   UNL     1       7.996  26.262  56.496  1.00  0.00    -0.065 N 
HETATM    3  H   UNL     1       8.617  26.472  55.688  1.00  0.00     0.280 HD
ENDROOT
BRANCH   2   4
HETATM    4  C   UNL     1       6.736  25.662  55.824  1.00  0.00     0.225 C 
HETATM    5  C   UNL     1       6.845  25.696  54.267  1.00  0.00     0.183 C 
HETATM    6  C   UNL     1       7.336  24.309  53.971  1.00  0.00    -0.021 A 
HETATM    7  C   UNL     1       7.131  23.464  55.074  1.00  0.00    -0.047 A 
HETATM    8  C   UNL     1       7.891  23.820  52.799  1.00  0.00     0.010 A 
HETATM    9  C   UNL     1       6.494  24.194  56.218  1.00  0.00     0.075 C 
HETATM   10  C   UNL     1       7.475  22.124  55.027  1.00  0.00     0.008 A 
HETATM   11  C   UNL     1       8.050  21.631  53.856  1.00  0.00     0.001 A 
HETATM   12  C   UNL     1       8.256  22.472  52.751  1.00  0.00     0.001 A 
BRANCH   5  13
HETATM   13  O   UNL     1       7.735  26.727  53.858  1.00  0.00    -0.389 OA
HETATM   14  H   UNL     1       8.287  26.356  53.142  1.00  0.00     0.210 HD
ENDBRANCH   5  13
ENDBRANCH   2   4
BRANCH   2  15
HETATM   15  C   UNL     1       7.728  27.607  57.158  1.00  0.00     0.271 C 
BRANCH  15  16
HETATM   16  C   UNL     1       8.746  28.663  56.676  1.00  0.00     0.177 C 
BRANCH  16  17
HETATM   17  O   UNL     1       8.242  29.241  55.466  1.00  0.00    -0.389 OA
HETATM   18  H   UNL     1       7.783  28.529  54.977  1.00  0.00     0.210 HD
ENDBRANCH  16  17
BRANCH  16  19
HETATM   19  C   UNL     1       9.003  29.705  57.740  1.00  0.00    -0.028 A 
HETATM   20  C   UNL     1       8.124  29.810  58.833  1.00  0.00     0.013 A 
HETATM   21  C   UNL     1       8.314  30.796  59.803  1.00  0.00     0.043 A 
HETATM   22  C   UNL     1       9.380  31.678  59.686  1.00  0.00     0.116 A 
HETATM   23  F   UNL     1       9.557  32.625  60.614  1.00  0.00    -0.206 F 
HETATM   24  C   UNL     1      10.260  31.593  58.615  1.00  0.00     0.043 A 
HETATM   25  C   UNL     1      10.071  30.612  57.640  1.00  0.00     0.013 A 
ENDBRANCH  16  19
ENDBRANCH  15  16
ENDBRANCH   2  15
TORSDOF 6
ENDMDL
MODEL 3
REMARK VINA RESULT:      -7.8      1.180      1.789
REMARK  6 active torsions:
REMARK  status: ('A' for Active; 'I' for Inactive)
REMARK    1  A    between atoms: N_2  and  C_4 
REMARK    2  A    between atoms: N_2  and  C_14 
REMARK    3  A    between atoms: C_5  and  O_6 
REMARK    4  A    between atoms: C_14  and  C_15 
REMARK    5  A    between atoms: C_15  and  O_16 
REMARK    6  A    between atoms: C_15  and  C_17 
ROOT
HETATM    1  C   UNL     1       5.082  24.472  52.791  1.00  0.00     0.270 C 
HETATM    2  N   UNL     1       5.955  25.604  53.260  1.00  0.00    -0.065 N 
HETATM    3  H   UNL     1       5.638  25.789  54.234  1.00  0.00     0.280 HD
ENDROOT
BRANCH   2   4
HETATM    4  C   UNL     1       7.463  25.294  53.433  1.00  0.00     0.225 C 
HETATM    5  C   UNL     1       7.780  24.773  54.871  1.00  0.00     0.183 C 
HETATM    6  C   UNL     1       7.771  23.287  54.660  1.00  0.00    -0.021 A 
HETATM    7  C   UNL     1       7.880  22.979  53.294  1.00  0.00    -0.047 A 
HETATM    8  C   UNL     1       7.707  22.279  55.609  1.00  0.00     0.010 A 
HETATM    9  C   UNL     1       7.965  24.218  52.454  1.00  0.00     0.075 C 
HETATM   10  C   UNL     1       7.927  21.667  52.854  1.00  0.00     0.008 A 
HETATM   11  C   UNL     1       7.846  20.650  53.804  1.00  0.00     0.001 A 
HETATM   12  C   UNL     1       7.736  20.953  55.171  1.00  0.00     0.001 A 
BRANCH   5  13
HETATM   13  O   UNL     1       6.797  25.235  55.789  1.00  0.00    -0.389 OA
HETATM   14  H   UNL     1       6.529  26.127  55.491  1.00  0.00     0.210 HD
ENDBRANCH   5  13
ENDBRANCH   2   4
BRANCH   2  15
HETATM   15  C   UNL     1       5.704  26.901  52.501  1.00  0.00     0.271 C 
BRANCH  15  16
HETATM   16  C   UNL     1       4.847  27.868  53.347  1.00  0.00     0.177 C 
BRANCH  16  17
HETATM   17  O   UNL     1       3.546  27.287  53.498  1.00  0.00    -0.389 OA
HETATM   18  H   UNL     1       3.615  26.604  54.193  1.00  0.00     0.210 HD
ENDBRANCH  16  17
BRANCH  16  19
HETATM   19  C   UNL     1       5.499  28.157  54.680  1.00  0.00    -0.028 A 
HETATM   20  C   UNL     1       4.749  28.021  55.862  1.00  0.00     0.013 A 
HETATM   21  C   UNL     1       5.316  28.330  57.100  1.00  0.00     0.043 A 
HETATM   22  C   UNL     1       6.630  28.773  57.163  1.00  0.00     0.116 A 
HETATM   23  F   UNL     1       7.170  29.072  58.349  1.00  0.00    -0.206 F 
HETATM   24  C   UNL     1       7.390  28.915  56.008  1.00  0.00     0.043 A 
HETATM   25  C   UNL     1       6.825  28.612  54.766  1.00  0.00     0.013 A 
ENDBRANCH  16  19
ENDBRANCH  15  16
ENDBRANCH   2  15
TORSDOF 6
ENDMDL
MODEL 4
REMARK VINA RESULT:      -7.7      4.632      7.098
REMARK  6 active torsions:
REMARK  status: ('A' for Active; 'I' for Inactive)
REMARK    1  A    between atoms: N_2  and  C_4 
REMARK    2  A    between atoms: N_2  and  C_14 
REMARK    3  A    between atoms: C_5  and  O_6 
REMARK    4  A    between atoms: C_14  and  C_15 
REMARK    5  A    between atoms: C_15  and  O_16 
REMARK    6  A    between atoms: C_15  and  C_17 
ROOT
HETATM    1  C   UNL     1       3.771  29.096  51.743  1.00  0.00     0.270 C 
HETATM    2  N   UNL     1       4.631  27.873  51.565  1.00  0.00    -0.065 N 
HETATM    3  H   UNL     1       3.967  27.076  51.645  1.00  0.00     0.280 HD
ENDROOT
BRANCH   2   4
HETATM    4  C   UNL     1       5.262  27.666  50.166  1.00  0.00     0.225 C 
HETATM    5  C   UNL     1       4.722  26.372  49.479  1.00  0.00     0.183 C 
HETATM    6  C   UNL     1       3.632  26.927  48.610  1.00  0.00    -0.021 A 
HETATM    7  C   UNL     1       3.780  28.316  48.453  1.00  0.00    -0.047 A 
HETATM    8  C   UNL     1       2.603  26.251  47.974  1.00  0.00     0.010 A 
HETATM    9  C   UNL     1       4.972  28.831  49.203  1.00  0.00     0.075 C 
HETATM   10  C   UNL     1       2.909  29.048  47.664  1.00  0.00     0.008 A 
HETATM   11  C   UNL     1       1.863  28.373  47.037  1.00  0.00     0.001 A 
HETATM   12  C   UNL     1       1.711  26.986  47.190  1.00  0.00     0.001 A 
BRANCH   5  13
HETATM   13  O   UNL     1       4.269  25.447  50.459  1.00  0.00    -0.389 OA
HETATM   14  H   UNL     1       3.630  24.856  50.016  1.00  0.00     0.210 HD
ENDBRANCH   5  13
ENDBRANCH   2   4
BRANCH   2  15
HETATM   15  C   UNL     1       5.631  27.681  52.697  1.00  0.00     0.271 C 
BRANCH  15  16
HETATM   16  C   UNL     1       5.220  26.489  53.589  1.00  0.00     0.177 C 
BRANCH  16  17
HETATM   17  O   UNL     1       3.937  26.029  53.146  1.00  0.00    -0.389 OA
HETATM   18  H   UNL     1       3.420  26.820  52.893  1.00  0.00     0.210 HD
ENDBRANCH  16  17
BRANCH  16  19
HETATM   19  C   UNL     1       6.260  25.393  53.555  1.00  0.00    -0.028 A 
HETATM   20  C   UNL     1       7.078  25.249  52.420  1.00  0.00     0.013 A 
HETATM   21  C   UNL     1       8.013  24.214  52.347  1.00  0.00     0.043 A 
HETATM   22  C   UNL     1       8.134  23.322  53.403  1.00  0.00     0.116 A 
HETATM   23  F   UNL     1       9.027  22.329  53.329  1.00  0.00    -0.206 F 
HETATM   24  C   UNL     1       7.336  23.445  54.534  1.00  0.00     0.043 A 
HETATM   25  C   UNL     1       6.396  24.475  54.610  1.00  0.00     0.013 A 
ENDBRANCH  16  19
ENDBRANCH  15  16
ENDBRANCH   2  15
TORSDOF 6
ENDMDL
MODEL 5
REMARK VINA RESULT:      -7.6      2.167      2.908
REMARK  6 active torsions:
REMARK  status: ('A' for Active; 'I' for Inactive)
REMARK    1  A    between atoms: N_2  and  C_4 
REMARK    2  A    between atoms: N_2  and  C_14 
REMARK    3  A    between atoms: C_5  and  O_6 
REMARK    4  A    between atoms: C_14  and  C_15 
REMARK    5  A    between atoms: C_15  and  O_16 
REMARK    6  A    between atoms: C_15  and  C_17 
ROOT
HETATM    1  C   UNL     1       5.122  25.852  56.459  1.00  0.00     0.270 C 
HETATM    2  N   UNL     1       6.302  26.600  57.018  1.00  0.00    -0.065 N 
HETATM    3  H   UNL     1       6.421  26.217  57.978  1.00  0.00     0.280 HD
ENDROOT
BRANCH   2   4
HETATM    4  C   UNL     1       7.676  26.326  56.357  1.00  0.00     0.225 C 
HETATM    5  C   UNL     1       8.527  25.322  57.198  1.00  0.00     0.183 C 
HETATM    6  C   UNL     1       8.232  24.025  56.503  1.00  0.00    -0.021 A 
HETATM    7  C   UNL     1       7.684  24.256  55.230  1.00  0.00    -0.047 A 
HETATM    8  C   UNL     1       8.465  22.733  56.948  1.00  0.00     0.010 A 
HETATM    9  C   UNL     1       7.547  25.722  54.947  1.00  0.00     0.075 C 
HETATM   10  C   UNL     1       7.360  23.208  54.385  1.00  0.00     0.008 A 
HETATM   11  C   UNL     1       7.576  21.907  54.836  1.00  0.00     0.001 A 
HETATM   12  C   UNL     1       8.125  21.671  56.106  1.00  0.00     0.001 A 
BRANCH   5  13
HETATM   13  O   UNL     1       8.123  25.356  58.560  1.00  0.00    -0.389 OA
HETATM   14  H   UNL     1       7.341  25.940  58.609  1.00  0.00     0.210 HD
ENDBRANCH   5  13
ENDBRANCH   2   4
BRANCH   2  15
HETATM   15  C   UNL     1       6.027  28.087  57.208  1.00  0.00     0.271 C 
BRANCH  15  16
HETATM   16  C   UNL     1       7.173  28.932  56.611  1.00  0.00     0.177 C 
BRANCH  16  17
HETATM   17  O   UNL     1       6.661  29.623  55.466  1.00  0.00    -0.389 OA
HETATM   18  H   UNL     1       5.716  29.808  55.640  1.00  0.00     0.210 HD
ENDBRANCH  16  17
BRANCH  16  19
HETATM   19  C   UNL     1       7.748  29.881  57.638  1.00  0.00    -0.028 A 
HETATM   20  C   UNL     1       6.892  30.763  58.322  1.00  0.00     0.013 A 
HETATM   21  C   UNL     1       7.406  31.681  59.239  1.00  0.00     0.043 A 
HETATM   22  C   UNL     1       8.774  31.722  59.477  1.00  0.00     0.116 A 
HETATM   23  F   UNL     1       9.265  32.605  60.353  1.00  0.00    -0.206 F 
HETATM   24  C   UNL     1       9.638  30.861  58.813  1.00  0.00     0.043 A 
HETATM   25  C   UNL     1       9.128  29.943  57.891  1.00  0.00     0.013 A 
ENDBRANCH  16  19
ENDBRANCH  15  16
ENDBRANCH   2  15
TORSDOF 6
ENDMDL
MODEL 6
REMARK VINA RESULT:      -7.4      2.099      2.546
REMARK  6 active torsions:
REMARK  status: ('A' for Active; 'I' for Inactive)
REMARK    1  A    between atoms: N_2  and  C_4 
REMARK    2  A    between atoms: N_2  and  C_14 
REMARK    3  A    between atoms: C_5  and  O_6 
REMARK    4  A    between atoms: C_14  and  C_15 
REMARK    5  A    between atoms: C_15  and  O_16 
REMARK    6  A    between atoms: C_15  and  C_17 
ROOT
HETATM    1  C   UNL     1       4.911  26.356  53.329  1.00  0.00     0.270 C 
HETATM    2  N   UNL     1       5.626  26.949  54.514  1.00  0.00    -0.065 N 
HETATM    3  H   UNL     1       5.247  26.429  55.331  1.00  0.00     0.280 HD
ENDROOT
BRANCH   2   4
HETATM    4  C   UNL     1       7.150  26.689  54.607  1.00  0.00     0.225 C 
HETATM    5  C   UNL     1       7.490  25.672  55.742  1.00  0.00     0.183 C 
HETATM    6  C   UNL     1       7.588  24.387  54.973  1.00  0.00    -0.021 A 
HETATM    7  C   UNL     1       7.732  24.641  53.598  1.00  0.00    -0.047 A 
HETATM    8  C   UNL     1       7.587  23.087  55.454  1.00  0.00     0.010 A 
HETATM    9  C   UNL     1       7.736  26.111  53.306  1.00  0.00     0.075 C 
HETATM   10  C   UNL     1       7.875  23.608  52.687  1.00  0.00     0.008 A 
HETATM   11  C   UNL     1       7.857  22.299  53.166  1.00  0.00     0.001 A 
HETATM   12  C   UNL     1       7.714  22.041  54.538  1.00  0.00     0.001 A 
BRANCH   5  13
HETATM   13  O   UNL     1       6.469  25.679  56.731  1.00  0.00    -0.389 OA
HETATM   14  H   UNL     1       5.644  25.400  56.288  1.00  0.00     0.210 HD
ENDBRANCH   5  13
ENDBRANCH   2   4
BRANCH   2  15
HETATM   15  C   UNL     1       5.261  28.408  54.758  1.00  0.00     0.271 C 
BRANCH  15  16
HETATM   16  C   UNL     1       4.371  28.541  56.014  1.00  0.00     0.177 C 
BRANCH  16  17
HETATM   17  O   UNL     1       4.277  27.250  56.627  1.00  0.00    -0.389 OA
HETATM   18  H   UNL     1       3.466  26.826  56.281  1.00  0.00     0.210 HD
ENDBRANCH  16  17
BRANCH  16  19
HETATM   19  C   UNL     1       4.914  29.585  56.963  1.00  0.00    -0.028 A 
HETATM   20  C   UNL     1       4.042  30.540  57.515  1.00  0.00     0.013 A 
HETATM   21  C   UNL     1       4.529  31.542  58.356  1.00  0.00     0.043 A 
HETATM   22  C   UNL     1       5.886  31.594  58.649  1.00  0.00     0.116 A 
HETATM   23  F   UNL     1       6.351  32.558  59.451  1.00  0.00    -0.206 F 
HETATM   24  C   UNL     1       6.766  30.661  58.114  1.00  0.00     0.043 A 
HETATM   25  C   UNL     1       6.284  29.660  57.268  1.00  0.00     0.013 A 
ENDBRANCH  16  19
ENDBRANCH  15  16
ENDBRANCH   2  15
TORSDOF 6
ENDMDL
MODEL 7
REMARK VINA RESULT:      -7.4      2.861      7.285
REMARK  6 active torsions:
REMARK  status: ('A' for Active; 'I' for Inactive)
REMARK    1  A    between atoms: N_2  and  C_4 
REMARK    2  A    between atoms: N_2  and  C_14 
REMARK    3  A    between atoms: C_5  and  O_6 
REMARK    4  A    between atoms: C_14  and  C_15 
REMARK    5  A    between atoms: C_15  and  O_16 
REMARK    6  A    between atoms: C_15  and  C_17 
ROOT
HETATM    1  C   UNL     1       8.343  26.777  57.246  1.00  0.00     0.270 C 
HETATM    2  N   UNL     1       7.379  27.418  56.285  1.00  0.00    -0.065 N 
HETATM    3  H   UNL     1       6.506  27.542  56.837  1.00  0.00     0.280 HD
ENDROOT
BRANCH   2   4
HETATM    4  C   UNL     1       7.711  28.858  55.822  1.00  0.00     0.225 C 
HETATM    5  C   UNL     1       6.717  29.899  56.428  1.00  0.00     0.183 C 
HETATM    6  C   UNL     1       7.485  30.389  57.620  1.00  0.00    -0.021 A 
HETATM    7  C   UNL     1       8.845  30.055  57.506  1.00  0.00    -0.047 A 
HETATM    8  C   UNL     1       7.024  31.110  58.710  1.00  0.00     0.010 A 
HETATM    9  C   UNL     1       9.125  29.304  56.238  1.00  0.00     0.075 C 
HETATM   10  C   UNL     1       9.762  30.432  58.472  1.00  0.00     0.008 A 
HETATM   11  C   UNL     1       9.299  31.142  59.579  1.00  0.00     0.001 A 
HETATM   12  C   UNL     1       7.941  31.478  59.697  1.00  0.00     0.001 A 
BRANCH   5  13
HETATM   13  O   UNL     1       5.483  29.270  56.751  1.00  0.00    -0.389 OA
HETATM   14  H   UNL     1       5.373  28.526  56.127  1.00  0.00     0.210 HD
ENDBRANCH   5  13
ENDBRANCH   2   4
BRANCH   2  15
HETATM   15  C   UNL     1       6.997  26.501  55.129  1.00  0.00     0.271 C 
BRANCH  15  16
HETATM   16  C   UNL     1       6.463  25.153  55.658  1.00  0.00     0.177 C 
BRANCH  16  17
HETATM   17  O   UNL     1       5.032  25.209  55.645  1.00  0.00    -0.389 OA
HETATM   18  H   UNL     1       4.775  26.084  55.998  1.00  0.00     0.210 HD
ENDBRANCH  16  17
BRANCH  16  19
HETATM   19  C   UNL     1       6.995  23.994  54.846  1.00  0.00    -0.028 A 
HETATM   20  C   UNL     1       7.353  22.799  55.496  1.00  0.00     0.013 A 
HETATM   21  C   UNL     1       7.892  21.734  54.772  1.00  0.00     0.043 A 
HETATM   22  C   UNL     1       8.074  21.856  53.401  1.00  0.00     0.116 A 
HETATM   23  F   UNL     1       8.594  20.835  52.711  1.00  0.00    -0.206 F 
HETATM   24  C   UNL     1       7.728  23.027  52.739  1.00  0.00     0.043 A 
HETATM   25  C   UNL     1       7.193  24.098  53.459  1.00  0.00     0.013 A 
ENDBRANCH  16  19
ENDBRANCH  15  16
ENDBRANCH   2  15
TORSDOF 6
ENDMDL
MODEL 8
REMARK VINA RESULT:      -7.4      3.025      4.393
REMARK  6 active torsions:
REMARK  status: ('A' for Active; 'I' for Inactive)
REMARK    1  A    between atoms: N_2  and  C_4 
REMARK    2  A    between atoms: N_2  and  C_14 
REMARK    3  A    between atoms: C_5  and  O_6 
REMARK    4  A    between atoms: C_14  and  C_15 
REMARK    5  A    between atoms: C_15  and  O_16 
REMARK    6  A    between atoms: C_15  and  C_17 
ROOT
HETATM    1  C   UNL     1       8.181  26.649  57.395  1.00  0.00     0.270 C 
HETATM    2  N   UNL     1       7.602  27.722  56.513  1.00  0.00    -0.065 N 
HETATM    3  H   UNL     1       8.350  27.914  55.815  1.00  0.00     0.280 HD
ENDROOT
BRANCH   2   4
HETATM    4  C   UNL     1       6.393  27.321  55.632  1.00  0.00     0.225 C 
HETATM    5  C   UNL     1       6.722  27.452  54.111  1.00  0.00     0.183 C 
HETATM    6  C   UNL     1       7.101  26.042  53.765  1.00  0.00    -0.021 A 
HETATM    7  C   UNL     1       6.656  25.150  54.755  1.00  0.00    -0.047 A 
HETATM    8  C   UNL     1       7.761  25.575  52.639  1.00  0.00     0.010 A 
HETATM    9  C   UNL     1       5.945  25.866  55.863  1.00  0.00     0.075 C 
HETATM   10  C   UNL     1       6.861  23.785  54.639  1.00  0.00     0.008 A 
HETATM   11  C   UNL     1       7.540  23.314  53.516  1.00  0.00     0.001 A 
HETATM   12  C   UNL     1       7.986  24.201  52.524  1.00  0.00     0.001 A 
BRANCH   5  13
HETATM   13  O   UNL     1       7.764  28.399  53.913  1.00  0.00    -0.389 OA
HETATM   14  H   UNL     1       8.591  27.890  53.804  1.00  0.00     0.210 HD
ENDBRANCH   5  13
ENDBRANCH   2   4
BRANCH   2  15
HETATM   15  C   UNL     1       7.387  29.040  57.245  1.00  0.00     0.271 C 
BRANCH  15  16
HETATM   16  C   UNL     1       8.644  29.424  58.055  1.00  0.00     0.177 C 
BRANCH  16  17
HETATM   17  O   UNL     1       9.621  29.932  57.138  1.00  0.00    -0.389 OA
HETATM   18  H   UNL     1      10.119  30.631  57.607  1.00  0.00     0.210 HD
ENDBRANCH  16  17
BRANCH  16  19
HETATM   19  C   UNL     1       8.314  30.418  59.145  1.00  0.00    -0.028 A 
HETATM   20  C   UNL     1       7.216  31.282  58.984  1.00  0.00     0.013 A 
HETATM   21  C   UNL     1       6.921  32.241  59.955  1.00  0.00     0.043 A 
HETATM   22  C   UNL     1       7.719  32.340  61.087  1.00  0.00     0.116 A 
HETATM   23  F   UNL     1       7.437  33.263  62.014  1.00  0.00    -0.206 F 
HETATM   24  C   UNL     1       8.809  31.498  61.266  1.00  0.00     0.043 A 
HETATM   25  C   UNL     1       9.111  30.540  60.295  1.00  0.00     0.013 A 
ENDBRANCH  16  19
ENDBRANCH  15  16
ENDBRANCH   2  15
TORSDOF 6
ENDMDL
MODEL 9
REMARK VINA RESULT:      -7.0      3.557      5.007
REMARK  6 active torsions:
REMARK  status: ('A' for Active; 'I' for Inactive)
REMARK    1  A    between atoms: N_2  and  C_4 
REMARK    2  A    between atoms: N_2  and  C_14 
REMARK    3  A    between atoms: C_5  and  O_6 
REMARK    4  A    between atoms: C_14  and  C_15 
REMARK    5  A    between atoms: C_15  and  O_16 
REMARK    6  A    between atoms: C_15  and  C_17 
ROOT
HETATM    1  C   UNL     1       5.474  28.642  56.855  1.00  0.00     0.270 C 
HETATM    2  N   UNL     1       6.827  28.765  57.502  1.00  0.00    -0.065 N 
HETATM    3  H   UNL     1       6.773  28.145  58.336  1.00  0.00     0.280 HD
ENDROOT
BRANCH   2   4
HETATM    4  C   UNL     1       8.030  28.190  56.714  1.00  0.00     0.225 C 
HETATM    5  C   UNL     1       8.312  26.704  57.101  1.00  0.00     0.183 C 
HETATM    6  C   UNL     1       7.588  25.968  56.011  1.00  0.00    -0.021 A 
HETATM    7  C   UNL     1       7.311  26.825  54.933  1.00  0.00    -0.047 A 
HETATM    8  C   UNL     1       7.231  24.630  55.960  1.00  0.00     0.010 A 
HETATM    9  C   UNL     1       7.809  28.215  55.190  1.00  0.00     0.075 C 
HETATM   10  C   UNL     1       6.676  26.364  53.792  1.00  0.00     0.008 A 
HETATM   11  C   UNL     1       6.300  25.022  53.744  1.00  0.00     0.001 A 
HETATM   12  C   UNL     1       6.576  24.162  54.819  1.00  0.00     0.001 A 
BRANCH   5  13
HETATM   13  O   UNL     1       7.822  26.435  58.408  1.00  0.00    -0.389 OA
HETATM   14  H   UNL     1       7.344  27.235  58.701  1.00  0.00     0.210 HD
ENDBRANCH   5  13
ENDBRANCH   2   4
BRANCH   2  15
HETATM   15  C   UNL     1       7.097  30.159  58.054  1.00  0.00     0.271 C 
BRANCH  15  16
HETATM   16  C   UNL     1       8.453  30.198  58.792  1.00  0.00     0.177 C 
BRANCH  16  17
HETATM   17  O   UNL     1       9.402  30.846  57.936  1.00  0.00    -0.389 OA
HETATM   18  H   UNL     1       8.910  31.507  57.409  1.00  0.00     0.210 HD
ENDBRANCH  16  17
BRANCH  16  19
HETATM   19  C   UNL     1       8.330  30.889  60.131  1.00  0.00    -0.028 A 
HETATM   20  C   UNL     1       7.475  31.998  60.263  1.00  0.00     0.013 A 
HETATM   21  C   UNL     1       7.383  32.680  61.477  1.00  0.00     0.043 A 
HETATM   22  C   UNL     1       8.141  32.260  62.561  1.00  0.00     0.116 A 
HETATM   23  F   UNL     1       8.054  32.918  63.723  1.00  0.00    -0.206 F 
HETATM   24  C   UNL     1       8.992  31.167  62.454  1.00  0.00     0.043 A 
HETATM   25  C   UNL     1       9.092  30.484  61.240  1.00  0.00     0.013 A 
ENDBRANCH  16  19
ENDBRANCH  15  16
ENDBRANCH   2  15
TORSDOF 6
ENDMDL
MODEL 10
REMARK VINA RESULT:      -6.9      4.305      5.634
REMARK  6 active torsions:
REMARK  status: ('A' for Active; 'I' for Inactive)
REMARK    1  A    between atoms: N_2  and  C_4 
REMARK    2  A    between atoms: N_2  and  C_14 
REMARK    3  A    between atoms: C_5  and  O_6 
REMARK    4  A    between atoms: C_14  and  C_15 
REMARK    5  A    between atoms: C_15  and  O_16 
REMARK    6  A    between atoms: C_15  and  C_17 
ROOT
HETATM    1  C   UNL     1       5.009  24.833  52.639  1.00  0.00     0.270 C 
HETATM    2  N   UNL     1       5.893  26.051  52.647  1.00  0.00    -0.065 N 
HETATM    3  H   UNL     1       5.545  26.618  53.448  1.00  0.00     0.280 HD
ENDROOT
BRANCH   2   4
HETATM    4  C   UNL     1       7.385  25.827  52.996  1.00  0.00     0.225 C 
HETATM    5  C   UNL     1       7.582  25.545  54.519  1.00  0.00     0.183 C 
HETATM    6  C   UNL     1       7.626  24.045  54.543  1.00  0.00    -0.021 A 
HETATM    7  C   UNL     1       7.866  23.535  53.256  1.00  0.00    -0.047 A 
HETATM    8  C   UNL     1       7.499  23.192  55.628  1.00  0.00     0.010 A 
HETATM    9  C   UNL     1       7.998  24.632  52.243  1.00  0.00     0.075 C 
HETATM   10  C   UNL     1       7.983  22.173  53.031  1.00  0.00     0.008 A 
HETATM   11  C   UNL     1       7.839  21.311  54.118  1.00  0.00     0.001 A 
HETATM   12  C   UNL     1       7.599  21.816  55.405  1.00  0.00     0.001 A 
BRANCH   5  13
HETATM   13  O   UNL     1       6.510  26.105  55.266  1.00  0.00    -0.389 OA
HETATM   14  H   UNL     1       6.398  25.549  56.061  1.00  0.00     0.210 HD
ENDBRANCH   5  13
ENDBRANCH   2   4
BRANCH   2  15
HETATM   15  C   UNL     1       5.701  26.931  51.418  1.00  0.00     0.271 C 
BRANCH  15  16
HETATM   16  C   UNL     1       4.966  28.236  51.794  1.00  0.00     0.177 C 
BRANCH  16  17
HETATM   17  O   UNL     1       5.937  29.287  51.857  1.00  0.00    -0.389 OA
HETATM   18  H   UNL     1       5.451  30.117  52.036  1.00  0.00     0.210 HD
ENDBRANCH  16  17
BRANCH  16  19
HETATM   19  C   UNL     1       3.857  28.544  50.813  1.00  0.00    -0.028 A 
HETATM   20  C   UNL     1       2.866  29.479  51.160  1.00  0.00     0.013 A 
HETATM   21  C   UNL     1       1.806  29.744  50.290  1.00  0.00     0.043 A 
HETATM   22  C   UNL     1       1.732  29.077  49.075  1.00  0.00     0.116 A 
HETATM   23  F   UNL     1       0.713  29.328  48.245  1.00  0.00    -0.206 F 
HETATM   24  C   UNL     1       2.699  28.148  48.712  1.00  0.00     0.043 A 
HETATM   25  C   UNL     1       3.759  27.876  49.580  1.00  0.00     0.013 A 
ENDBRANCH  16  19
ENDBRANCH  15  16
ENDBRANCH   2  15
TORSDOF 6
ENDMDL
