MODEL 1
REMARK VINA RESULT:      -9.8      0.000      0.000
REMARK  7 active torsions:
REMARK  status: ('A' for Active; 'I' for Inactive)
REMARK    1  A    between atoms: C_4  and  O_5 
REMARK    2  A    between atoms: O_5  and  C_6 
REMARK    3  A    between atoms: C_6  and  C_7 
REMARK       I    between atoms: C_7  and  N_8 
REMARK    4  A    between atoms: N_8  and  N_9 
REMARK       I    between atoms: N_9  and  C_10 
REMARK    5  A    between atoms: C_10  and  C_11 
REMARK    6  A    between atoms: C_13  and  C_14 
REMARK    7  A    between atoms: C_21  and  C_22 
ROOT
HETATM    1  N   UNL     1       6.025  28.264  57.274  1.00  0.00    -0.262 N 
HETATM    2  C   UNL     1       7.256  27.655  57.090  1.00  0.00     0.291 C 
HETATM    3  O   UNL     1       8.243  27.949  57.763  1.00  0.00    -0.264 OA
HETATM    4  H   UNL     1       5.334  28.176  56.530  1.00  0.00     0.190 HD
ENDROOT
BRANCH   2   5
HETATM    5  C   UNL     1       7.241  26.637  56.051  1.00  0.00     0.159 A 
HETATM    6  N   UNL     1       7.413  25.283  56.325  1.00  0.00    -0.216 NA
HETATM    7  C   UNL     1       7.411  24.710  55.136  1.00  0.00     0.180 A 
HETATM    8  O   UNL     1       7.202  25.579  54.101  1.00  0.00    -0.293 OA
HETATM    9  C   UNL     1       7.089  26.809  54.689  1.00  0.00     0.094 A 
BRANCH   7  10
HETATM   10  C   UNL     1       7.629  23.309  54.781  1.00  0.00     0.017 A 
HETATM   11  C   UNL     1       7.777  22.947  53.434  1.00  0.00     0.016 A 
HETATM   12  C   UNL     1       7.960  21.610  53.067  1.00  0.00     0.001 A 
HETATM   13  C   UNL     1       7.997  20.618  54.044  1.00  0.00     0.000 A 
HETATM   14  C   UNL     1       7.854  20.961  55.387  1.00  0.00     0.001 A 
HETATM   15  C   UNL     1       7.672  22.297  55.753  1.00  0.00     0.016 A 
ENDBRANCH   7  10
BRANCH   9  16
HETATM   16  C   UNL     1       6.829  28.095  53.928  1.00  0.00     0.046 A 
HETATM   17  C   UNL     1       6.204  27.993  52.552  1.00  0.00     0.012 A 
HETATM   18  C   UNL     1       5.386  28.492  53.692  1.00  0.00     0.012 A 
ENDBRANCH   9  16
ENDBRANCH   2   5
BRANCH   1  19
HETATM   19  N   UNL     1       5.976  29.418  58.080  1.00  0.00    -0.265 N 
HETATM   20  C   UNL     1       5.938  30.647  57.428  1.00  0.00     0.260 C 
HETATM   21  O   UNL     1       5.708  30.757  56.226  1.00  0.00    -0.269 OA
HETATM   22  H   UNL     1       6.498  29.341  58.950  1.00  0.00     0.190 HD
BRANCH  20  23
HETATM   23  C   UNL     1       6.204  31.824  58.369  1.00  0.00     0.280 C 
BRANCH  23  24
HETATM   24  O   UNL     1       7.588  31.908  58.677  1.00  0.00    -0.342 OA
BRANCH  24  25
HETATM   25  C   UNL     1       7.950  31.745  59.985  1.00  0.00     0.069 A 
HETATM   26  C   UNL     1       7.511  32.512  61.067  1.00  0.00     0.043 A 
HETATM   27  C   UNL     1       7.981  32.248  62.365  1.00  0.00    -0.059 A 
HETATM   28  C   UNL     1       7.515  33.062  63.537  1.00  0.00     0.048 C 
HETATM   29  C   UNL     1       8.879  31.194  62.568  1.00  0.00     0.007 A 
HETATM   30  C   UNL     1       9.312  30.421  61.492  1.00  0.00     0.003 A 
HETATM   31  C   UNL     1       8.849  30.699  60.207  1.00  0.00     0.037 A 
ENDBRANCH  24  25
ENDBRANCH  23  24
ENDBRANCH  20  23
ENDBRANCH   1  19
TORSDOF 7
ENDMDL
MODEL 2
REMARK VINA RESULT:      -9.8      1.352      2.021
REMARK  7 active torsions:
REMARK  status: ('A' for Active; 'I' for Inactive)
REMARK    1  A    between atoms: C_4  and  O_5 
REMARK    2  A    between atoms: O_5  and  C_6 
REMARK    3  A    between atoms: C_6  and  C_7 
REMARK       I    between atoms: C_7  and  N_8 
REMARK    4  A    between atoms: N_8  and  N_9 
REMARK       I    between atoms: N_9  and  C_10 
REMARK    5  A    between atoms: C_10  and  C_11 
REMARK    6  A    between atoms: C_13  and  C_14 
REMARK    7  A    between atoms: C_21  and  C_22 
ROOT
HETATM    1  N   UNL     1       6.712  27.705  55.957  1.00  0.00    -0.262 N 
HETATM    2  C   UNL     1       7.204  27.422  54.693  1.00  0.00     0.291 C 
HETATM    3  O   UNL     1       7.775  28.266  54.003  1.00  0.00    -0.264 OA
HETATM    4  H   UNL     1       6.032  27.062  56.359  1.00  0.00     0.190 HD
ENDROOT
BRANCH   2   5
HETATM    5  C   UNL     1       6.995  26.038  54.295  1.00  0.00     0.159 A 
HETATM    6  N   UNL     1       7.708  24.980  54.853  1.00  0.00    -0.216 NA
HETATM    7  C   UNL     1       7.289  23.921  54.187  1.00  0.00     0.180 A 
HETATM    8  O   UNL     1       6.317  24.194  53.264  1.00  0.00    -0.293 OA
HETATM    9  C   UNL     1       6.127  25.547  53.339  1.00  0.00     0.094 A 
BRANCH   7  10
HETATM   10  C   UNL     1       7.735  22.532  54.277  1.00  0.00     0.017 A 
HETATM   11  C   UNL     1       7.773  21.893  55.525  1.00  0.00     0.016 A 
HETATM   12  C   UNL     1       8.221  20.574  55.641  1.00  0.00     0.001 A 
HETATM   13  C   UNL     1       8.639  19.877  54.510  1.00  0.00     0.000 A 
HETATM   14  C   UNL     1       8.606  20.497  53.262  1.00  0.00     0.001 A 
HETATM   15  C   UNL     1       8.156  21.815  53.146  1.00  0.00     0.016 A 
ENDBRANCH   7  10
BRANCH   9  16
HETATM   16  C   UNL     1       5.119  26.312  52.503  1.00  0.00     0.046 A 
HETATM   17  C   UNL     1       5.645  27.236  51.425  1.00  0.00     0.012 A 
HETATM   18  C   UNL     1       5.004  25.949  51.036  1.00  0.00     0.012 A 
ENDBRANCH   9  16
ENDBRANCH   2   5
BRANCH   1  19
HETATM   19  N   UNL     1       6.646  29.057  56.348  1.00  0.00    -0.265 N 
HETATM   20  C   UNL     1       7.151  29.379  57.604  1.00  0.00     0.260 C 
HETATM   21  O   UNL     1       7.845  28.608  58.261  1.00  0.00    -0.269 OA
HETATM   22  H   UNL     1       5.823  29.550  56.010  1.00  0.00     0.190 HD
BRANCH  20  23
HETATM   23  C   UNL     1       6.752  30.785  58.058  1.00  0.00     0.280 C 
BRANCH  23  24
HETATM   24  O   UNL     1       7.901  31.527  58.440  1.00  0.00    -0.342 OA
BRANCH  24  25
HETATM   25  C   UNL     1       8.045  31.822  59.767  1.00  0.00     0.069 A 
HETATM   26  C   UNL     1       7.097  32.443  60.584  1.00  0.00     0.043 A 
HETATM   27  C   UNL     1       7.384  32.706  61.935  1.00  0.00    -0.059 A 
HETATM   28  C   UNL     1       6.374  33.372  62.824  1.00  0.00     0.048 C 
HETATM   29  C   UNL     1       8.622  32.320  62.462  1.00  0.00     0.007 A 
HETATM   30  C   UNL     1       9.565  31.691  61.652  1.00  0.00     0.003 A 
HETATM   31  C   UNL     1       9.276  31.445  60.310  1.00  0.00     0.037 A 
ENDBRANCH  24  25
ENDBRANCH  23  24
ENDBRANCH  20  23
ENDBRANCH   1  19
TORSDOF 7
ENDMDL
MODEL 3
REMARK VINA RESULT:      -9.0      1.447      1.931
REMARK  7 active torsions:
REMARK  status: ('A' for Active; 'I' for Inactive)
REMARK    1  A    between atoms: C_4  and  O_5 
REMARK    2  A    between atoms: O_5  and  C_6 
REMARK    3  A    between atoms: C_6  and  C_7 
REMARK       I    between atoms: C_7  and  N_8 
REMARK    4  A    between atoms: N_8  and  N_9 
REMARK       I    between atoms: N_9  and  C_10 
REMARK    5  A    between atoms: C_10  and  C_11 
REMARK    6  A    between atoms: C_13  and  C_14 
REMARK    7  A    between atoms: C_21  and  C_22 
ROOT
HETATM    1  N   UNL     1       7.744  27.472  56.958  1.00  0.00    -0.262 N 
HETATM    2  C   UNL     1       6.553  26.842  56.637  1.00  0.00     0.291 C 
HETATM    3  O   UNL     1       5.479  27.167  57.142  1.00  0.00    -0.264 OA
HETATM    4  H   UNL     1       8.614  26.998  56.720  1.00  0.00     0.190 HD
ENDROOT
BRANCH   2   5
HETATM    5  C   UNL     1       6.711  25.791  55.643  1.00  0.00     0.159 A 
HETATM    6  N   UNL     1       7.162  24.514  55.967  1.00  0.00    -0.216 NA
HETATM    7  C   UNL     1       7.237  23.894  54.804  1.00  0.00     0.180 A 
HETATM    8  O   UNL     1       6.823  24.651  53.743  1.00  0.00    -0.293 OA
HETATM    9  C   UNL     1       6.483  25.861  54.283  1.00  0.00     0.094 A 
BRANCH   7  10
HETATM   10  C   UNL     1       7.722  22.549  54.500  1.00  0.00     0.017 A 
HETATM   11  C   UNL     1       7.847  22.140  53.164  1.00  0.00     0.016 A 
HETATM   12  C   UNL     1       8.284  20.850  52.848  1.00  0.00     0.001 A 
HETATM   13  C   UNL     1       8.600  19.952  53.864  1.00  0.00     0.000 A 
HETATM   14  C   UNL     1       8.483  20.343  55.197  1.00  0.00     0.001 A 
HETATM   15  C   UNL     1       8.048  21.633  55.512  1.00  0.00     0.016 A 
ENDBRANCH   7  10
BRANCH   9  16
HETATM   16  C   UNL     1       5.944  27.030  53.480  1.00  0.00     0.046 A 
HETATM   17  C   UNL     1       5.488  26.766  52.060  1.00  0.00     0.012 A 
HETATM   18  C   UNL     1       4.472  27.015  53.120  1.00  0.00     0.012 A 
ENDBRANCH   9  16
ENDBRANCH   2   5
BRANCH   1  19
HETATM   19  N   UNL     1       7.752  28.336  58.070  1.00  0.00    -0.265 N 
HETATM   20  C   UNL     1       7.767  29.703  57.813  1.00  0.00     0.260 C 
HETATM   21  O   UNL     1       7.537  30.174  56.702  1.00  0.00    -0.269 OA
HETATM   22  H   UNL     1       8.275  27.982  58.869  1.00  0.00     0.190 HD
BRANCH  20  23
HETATM   23  C   UNL     1       8.092  30.535  59.056  1.00  0.00     0.280 C 
BRANCH  23  24
HETATM   24  O   UNL     1       7.446  31.798  58.989  1.00  0.00    -0.342 OA
BRANCH  24  25
HETATM   25  C   UNL     1       7.026  32.352  60.166  1.00  0.00     0.069 A 
HETATM   26  C   UNL     1       7.729  32.360  61.373  1.00  0.00     0.043 A 
HETATM   27  C   UNL     1       7.170  32.951  62.519  1.00  0.00    -0.059 A 
HETATM   28  C   UNL     1       7.915  32.969  63.822  1.00  0.00     0.048 C 
HETATM   29  C   UNL     1       5.908  33.551  62.436  1.00  0.00     0.007 A 
HETATM   30  C   UNL     1       5.208  33.552  61.231  1.00  0.00     0.003 A 
HETATM   31  C   UNL     1       5.767  32.954  60.103  1.00  0.00     0.037 A 
ENDBRANCH  24  25
ENDBRANCH  23  24
ENDBRANCH  20  23
ENDBRANCH   1  19
TORSDOF 7
ENDMDL
MODEL 4
REMARK VINA RESULT:      -9.0      5.442      9.610
REMARK  7 active torsions:
REMARK  status: ('A' for Active; 'I' for Inactive)
REMARK    1  A    between atoms: C_4  and  O_5 
REMARK    2  A    between atoms: O_5  and  C_6 
REMARK    3  A    between atoms: C_6  and  C_7 
REMARK       I    between atoms: C_7  and  N_8 
REMARK    4  A    between atoms: N_8  and  N_9 
REMARK       I    between atoms: N_9  and  C_10 
REMARK    5  A    between atoms: C_10  and  C_11 
REMARK    6  A    between atoms: C_13  and  C_14 
REMARK    7  A    between atoms: C_21  and  C_22 
ROOT
HETATM    1  N   UNL     1       4.136  26.959  52.148  1.00  0.00    -0.262 N 
HETATM    2  C   UNL     1       4.896  26.742  51.011  1.00  0.00     0.291 C 
HETATM    3  O   UNL     1       5.625  25.757  50.883  1.00  0.00    -0.264 OA
HETATM    4  H   UNL     1       3.772  27.897  52.306  1.00  0.00     0.190 HD
ENDROOT
BRANCH   2   5
HETATM    5  C   UNL     1       4.722  27.774  49.999  1.00  0.00     0.159 A 
HETATM    6  N   UNL     1       5.455  28.958  50.003  1.00  0.00    -0.216 NA
HETATM    7  C   UNL     1       4.960  29.645  48.990  1.00  0.00     0.180 A 
HETATM    8  O   UNL     1       3.990  28.983  48.289  1.00  0.00    -0.293 OA
HETATM    9  C   UNL     1       3.844  27.785  48.934  1.00  0.00     0.094 A 
BRANCH   7  10
HETATM   10  C   UNL     1       5.280  31.000  48.546  1.00  0.00     0.017 A 
HETATM   11  C   UNL     1       6.049  31.838  49.367  1.00  0.00     0.016 A 
HETATM   12  C   UNL     1       6.346  33.148  48.976  1.00  0.00     0.001 A 
HETATM   13  C   UNL     1       5.876  33.636  47.759  1.00  0.00     0.000 A 
HETATM   14  C   UNL     1       5.112  32.816  46.931  1.00  0.00     0.001 A 
HETATM   15  C   UNL     1       4.817  31.507  47.321  1.00  0.00     0.016 A 
ENDBRANCH   7  10
BRANCH   9  16
HETATM   16  C   UNL     1       2.880  26.697  48.499  1.00  0.00     0.046 A 
HETATM   17  C   UNL     1       2.549  26.588  47.025  1.00  0.00     0.012 A 
HETATM   18  C   UNL     1       3.432  25.567  47.654  1.00  0.00     0.012 A 
ENDBRANCH   9  16
ENDBRANCH   2   5
BRANCH   1  19
HETATM   19  N   UNL     1       4.401  26.161  53.278  1.00  0.00    -0.265 N 
HETATM   20  C   UNL     1       5.272  26.679  54.232  1.00  0.00     0.260 C 
HETATM   21  O   UNL     1       5.617  27.857  54.248  1.00  0.00    -0.269 OA
HETATM   22  H   UNL     1       4.421  25.161  53.087  1.00  0.00     0.190 HD
BRANCH  20  23
HETATM   23  C   UNL     1       5.735  25.626  55.242  1.00  0.00     0.280 C 
BRANCH  23  24
HETATM   24  O   UNL     1       7.094  25.285  55.014  1.00  0.00    -0.342 OA
BRANCH  24  25
HETATM   25  C   UNL     1       7.369  23.984  54.699  1.00  0.00     0.069 A 
HETATM   26  C   UNL     1       7.454  22.916  55.597  1.00  0.00     0.043 A 
HETATM   27  C   UNL     1       7.766  21.624  55.139  1.00  0.00    -0.059 A 
HETATM   28  C   UNL     1       7.858  20.468  56.091  1.00  0.00     0.048 C 
HETATM   29  C   UNL     1       7.971  21.411  53.771  1.00  0.00     0.007 A 
HETATM   30  C   UNL     1       7.877  22.473  52.873  1.00  0.00     0.003 A 
HETATM   31  C   UNL     1       7.579  23.752  53.338  1.00  0.00     0.037 A 
ENDBRANCH  24  25
ENDBRANCH  23  24
ENDBRANCH  20  23
ENDBRANCH   1  19
TORSDOF 7
ENDMDL
MODEL 5
REMARK VINA RESULT:      -9.0      4.007      8.691
REMARK  7 active torsions:
REMARK  status: ('A' for Active; 'I' for Inactive)
REMARK    1  A    between atoms: C_4  and  O_5 
REMARK    2  A    between atoms: O_5  and  C_6 
REMARK    3  A    between atoms: C_6  and  C_7 
REMARK       I    between atoms: C_7  and  N_8 
REMARK    4  A    between atoms: N_8  and  N_9 
REMARK       I    between atoms: N_9  and  C_10 
REMARK    5  A    between atoms: C_10  and  C_11 
REMARK    6  A    between atoms: C_13  and  C_14 
REMARK    7  A    between atoms: C_21  and  C_22 
ROOT
HETATM    1  N   UNL     1       5.546  27.210  52.791  1.00  0.00    -0.262 N 
HETATM    2  C   UNL     1       6.769  27.330  53.430  1.00  0.00     0.291 C 
HETATM    3  O   UNL     1       7.419  28.375  53.420  1.00  0.00    -0.264 OA
HETATM    4  H   UNL     1       5.191  26.272  52.610  1.00  0.00     0.190 HD
ENDROOT
BRANCH   2   5
HETATM    5  C   UNL     1       7.176  26.113  54.118  1.00  0.00     0.159 A 
HETATM    6  N   UNL     1       7.504  24.942  53.439  1.00  0.00    -0.216 NA
HETATM    7  C   UNL     1       7.741  24.069  54.400  1.00  0.00     0.180 A 
HETATM    8  O   UNL     1       7.642  24.589  55.661  1.00  0.00    -0.293 OA
HETATM    9  C   UNL     1       7.286  25.897  55.477  1.00  0.00     0.094 A 
BRANCH   7  10
HETATM   10  C   UNL     1       8.057  22.645  54.301  1.00  0.00     0.017 A 
HETATM   11  C   UNL     1       8.451  21.939  55.447  1.00  0.00     0.016 A 
HETATM   12  C   UNL     1       8.783  20.583  55.373  1.00  0.00     0.001 A 
HETATM   13  C   UNL     1       8.726  19.916  54.152  1.00  0.00     0.000 A 
HETATM   14  C   UNL     1       8.335  20.603  53.004  1.00  0.00     0.001 A 
HETATM   15  C   UNL     1       8.001  21.958  53.079  1.00  0.00     0.016 A 
ENDBRANCH   7  10
BRANCH   9  16
HETATM   16  C   UNL     1       7.076  26.888  56.606  1.00  0.00     0.046 A 
HETATM   17  C   UNL     1       7.716  26.587  57.945  1.00  0.00     0.012 A 
HETATM   18  C   UNL     1       8.282  27.667  57.090  1.00  0.00     0.012 A 
ENDBRANCH   9  16
ENDBRANCH   2   5
BRANCH   1  19
HETATM   19  N   UNL     1       5.165  28.236  51.904  1.00  0.00    -0.265 N 
HETATM   20  C   UNL     1       3.823  28.607  51.900  1.00  0.00     0.260 C 
HETATM   21  O   UNL     1       3.034  28.260  52.775  1.00  0.00    -0.269 OA
HETATM   22  H   UNL     1       5.676  28.239  51.024  1.00  0.00     0.190 HD
BRANCH  20  23
HETATM   23  C   UNL     1       3.457  29.487  50.702  1.00  0.00     0.280 C 
BRANCH  23  24
HETATM   24  O   UNL     1       4.153  29.058  49.542  1.00  0.00    -0.342 OA
BRANCH  24  25
HETATM   25  C   UNL     1       3.524  28.157  48.729  1.00  0.00     0.069 A 
HETATM   26  C   UNL     1       2.280  28.324  48.116  1.00  0.00     0.043 A 
HETATM   27  C   UNL     1       1.737  27.304  47.316  1.00  0.00    -0.059 A 
HETATM   28  C   UNL     1       0.403  27.470  46.650  1.00  0.00     0.048 C 
HETATM   29  C   UNL     1       2.465  26.124  47.122  1.00  0.00     0.007 A 
HETATM   30  C   UNL     1       3.710  25.958  47.724  1.00  0.00     0.003 A 
HETATM   31  C   UNL     1       4.234  26.972  48.525  1.00  0.00     0.037 A 
ENDBRANCH  24  25
ENDBRANCH  23  24
ENDBRANCH  20  23
ENDBRANCH   1  19
TORSDOF 7
ENDMDL
MODEL 6
REMARK VINA RESULT:      -8.9      1.622      9.111
REMARK  7 active torsions:
REMARK  status: ('A' for Active; 'I' for Inactive)
REMARK    1  A    between atoms: C_4  and  O_5 
REMARK    2  A    between atoms: O_5  and  C_6 
REMARK    3  A    between atoms: C_6  and  C_7 
REMARK       I    between atoms: C_7  and  N_8 
REMARK    4  A    between atoms: N_8  and  N_9 
REMARK       I    between atoms: N_9  and  C_10 
REMARK    5  A    between atoms: C_10  and  C_11 
REMARK    6  A    between atoms: C_13  and  C_14 
REMARK    7  A    between atoms: C_21  and  C_22 
ROOT
HETATM    1  N   UNL     1       7.458  29.057  55.120  1.00  0.00    -0.262 N 
HETATM    2  C   UNL     1       7.802  28.781  56.433  1.00  0.00     0.291 C 
HETATM    3  O   UNL     1       8.455  27.786  56.748  1.00  0.00    -0.264 OA
HETATM    4  H   UNL     1       6.711  29.729  54.954  1.00  0.00     0.190 HD
ENDROOT
BRANCH   2   5
HETATM    5  C   UNL     1       7.334  29.790  57.372  1.00  0.00     0.159 A 
HETATM    6  N   UNL     1       8.038  30.124  58.526  1.00  0.00    -0.216 NA
HETATM    7  C   UNL     1       7.262  31.004  59.132  1.00  0.00     0.180 A 
HETATM    8  O   UNL     1       6.123  31.311  58.440  1.00  0.00    -0.293 OA
HETATM    9  C   UNL     1       6.174  30.537  57.313  1.00  0.00     0.094 A 
BRANCH   7  10
HETATM   10  C   UNL     1       7.437  31.655  60.428  1.00  0.00     0.017 A 
HETATM   11  C   UNL     1       8.479  31.249  61.276  1.00  0.00     0.016 A 
HETATM   12  C   UNL     1       8.651  31.839  62.532  1.00  0.00     0.001 A 
HETATM   13  C   UNL     1       7.783  32.842  62.957  1.00  0.00     0.000 A 
HETATM   14  C   UNL     1       6.744  33.258  62.126  1.00  0.00     0.001 A 
HETATM   15  C   UNL     1       6.573  32.669  60.870  1.00  0.00     0.016 A 
ENDBRANCH   7  10
BRANCH   9  16
HETATM   16  C   UNL     1       5.119  30.552  56.223  1.00  0.00     0.046 A 
HETATM   17  C   UNL     1       3.958  29.588  56.345  1.00  0.00     0.012 A 
HETATM   18  C   UNL     1       3.734  31.039  56.594  1.00  0.00     0.012 A 
ENDBRANCH   9  16
ENDBRANCH   2   5
BRANCH   1  19
HETATM   19  N   UNL     1       7.650  28.041  54.163  1.00  0.00    -0.265 N 
HETATM   20  C   UNL     1       6.528  27.610  53.461  1.00  0.00     0.260 C 
HETATM   21  O   UNL     1       5.463  28.221  53.467  1.00  0.00    -0.269 OA
HETATM   22  H   UNL     1       8.362  27.359  54.415  1.00  0.00     0.190 HD
BRANCH  20  23
HETATM   23  C   UNL     1       6.777  26.311  52.690  1.00  0.00     0.280 C 
BRANCH  23  24
HETATM   24  O   UNL     1       7.988  25.706  53.117  1.00  0.00    -0.342 OA
BRANCH  24  25
HETATM   25  C   UNL     1       7.907  24.450  53.650  1.00  0.00     0.069 A 
HETATM   26  C   UNL     1       8.029  23.246  52.952  1.00  0.00     0.043 A 
HETATM   27  C   UNL     1       7.905  22.017  53.623  1.00  0.00    -0.059 A 
HETATM   28  C   UNL     1       8.035  20.717  52.886  1.00  0.00     0.048 C 
HETATM   29  C   UNL     1       7.681  22.010  55.005  1.00  0.00     0.007 A 
HETATM   30  C   UNL     1       7.569  23.209  55.706  1.00  0.00     0.003 A 
HETATM   31  C   UNL     1       7.681  24.422  55.028  1.00  0.00     0.037 A 
ENDBRANCH  24  25
ENDBRANCH  23  24
ENDBRANCH  20  23
ENDBRANCH   1  19
TORSDOF 7
ENDMDL
MODEL 7
REMARK VINA RESULT:      -8.9      4.199      8.919
REMARK  7 active torsions:
REMARK  status: ('A' for Active; 'I' for Inactive)
REMARK    1  A    between atoms: C_4  and  O_5 
REMARK    2  A    between atoms: O_5  and  C_6 
REMARK    3  A    between atoms: C_6  and  C_7 
REMARK       I    between atoms: C_7  and  N_8 
REMARK    4  A    between atoms: N_8  and  N_9 
REMARK       I    between atoms: N_9  and  C_10 
REMARK    5  A    between atoms: C_10  and  C_11 
REMARK    6  A    between atoms: C_13  and  C_14 
REMARK    7  A    between atoms: C_21  and  C_22 
ROOT
HETATM    1  N   UNL     1       4.573  26.550  52.435  1.00  0.00    -0.262 N 
HETATM    2  C   UNL     1       4.955  26.816  53.740  1.00  0.00     0.291 C 
HETATM    3  O   UNL     1       4.494  27.759  54.382  1.00  0.00    -0.264 OA
HETATM    4  H   UNL     1       5.168  25.938  51.879  1.00  0.00     0.190 HD
ENDROOT
BRANCH   2   5
HETATM    5  C   UNL     1       5.924  25.862  54.258  1.00  0.00     0.159 A 
HETATM    6  N   UNL     1       6.131  24.613  53.678  1.00  0.00    -0.216 NA
HETATM    7  C   UNL     1       7.014  24.033  54.469  1.00  0.00     0.180 A 
HETATM    8  O   UNL     1       7.441  24.824  55.500  1.00  0.00    -0.293 OA
HETATM    9  C   UNL     1       6.746  25.994  55.360  1.00  0.00     0.094 A 
BRANCH   7  10
HETATM   10  C   UNL     1       7.561  22.679  54.412  1.00  0.00     0.017 A 
HETATM   11  C   UNL     1       7.933  22.131  53.175  1.00  0.00     0.016 A 
HETATM   12  C   UNL     1       8.435  20.828  53.091  1.00  0.00     0.001 A 
HETATM   13  C   UNL     1       8.569  20.057  54.243  1.00  0.00     0.000 A 
HETATM   14  C   UNL     1       8.206  20.587  55.479  1.00  0.00     0.001 A 
HETATM   15  C   UNL     1       7.707  21.890  55.563  1.00  0.00     0.016 A 
ENDBRANCH   7  10
BRANCH   9  16
HETATM   16  C   UNL     1       6.904  27.192  56.277  1.00  0.00     0.046 A 
HETATM   17  C   UNL     1       8.196  27.326  57.054  1.00  0.00     0.012 A 
HETATM   18  C   UNL     1       7.940  28.232  55.900  1.00  0.00     0.012 A 
ENDBRANCH   9  16
ENDBRANCH   2   5
BRANCH   1  19
HETATM   19  N   UNL     1       3.828  27.533  51.755  1.00  0.00    -0.265 N 
HETATM   20  C   UNL     1       4.521  28.360  50.876  1.00  0.00     0.260 C 
HETATM   21  O   UNL     1       5.665  28.122  50.500  1.00  0.00    -0.269 OA
HETATM   22  H   UNL     1       3.063  27.927  52.298  1.00  0.00     0.190 HD
BRANCH  20  23
HETATM   23  C   UNL     1       3.700  29.576  50.438  1.00  0.00     0.280 C 
BRANCH  23  24
HETATM   24  O   UNL     1       3.701  29.688  49.022  1.00  0.00    -0.342 OA
BRANCH  24  25
HETATM   25  C   UNL     1       2.916  28.815  48.323  1.00  0.00     0.069 A 
HETATM   26  C   UNL     1       3.256  27.511  47.954  1.00  0.00     0.043 A 
HETATM   27  C   UNL     1       2.357  26.723  47.215  1.00  0.00    -0.059 A 
HETATM   28  C   UNL     1       2.709  25.321  46.813  1.00  0.00     0.048 C 
HETATM   29  C   UNL     1       1.107  27.248  46.869  1.00  0.00     0.007 A 
HETATM   30  C   UNL     1       0.761  28.545  47.245  1.00  0.00     0.003 A 
HETATM   31  C   UNL     1       1.664  29.323  47.968  1.00  0.00     0.037 A 
ENDBRANCH  24  25
ENDBRANCH  23  24
ENDBRANCH  20  23
ENDBRANCH   1  19
TORSDOF 7
ENDMDL
MODEL 8
REMARK VINA RESULT:      -8.8      4.941      9.616
REMARK  7 active torsions:
REMARK  status: ('A' for Active; 'I' for Inactive)
REMARK    1  A    between atoms: C_4  and  O_5 
REMARK    2  A    between atoms: O_5  and  C_6 
REMARK    3  A    between atoms: C_6  and  C_7 
REMARK       I    between atoms: C_7  and  N_8 
REMARK    4  A    between atoms: N_8  and  N_9 
REMARK       I    between atoms: N_9  and  C_10 
REMARK    5  A    between atoms: C_10  and  C_11 
REMARK    6  A    between atoms: C_13  and  C_14 
REMARK    7  A    between atoms: C_21  and  C_22 
ROOT
HETATM    1  N   UNL     1       4.614  26.796  52.128  1.00  0.00    -0.262 N 
HETATM    2  C   UNL     1       5.790  27.228  52.720  1.00  0.00     0.291 C 
HETATM    3  O   UNL     1       6.214  28.375  52.582  1.00  0.00    -0.264 OA
HETATM    4  H   UNL     1       4.457  25.791  52.057  1.00  0.00     0.190 HD
ENDROOT
BRANCH   2   5
HETATM    5  C   UNL     1       6.439  26.201  53.521  1.00  0.00     0.159 A 
HETATM    6  N   UNL     1       6.709  24.926  53.031  1.00  0.00    -0.216 NA
HETATM    7  C   UNL     1       7.222  24.286  54.065  1.00  0.00     0.180 A 
HETATM    8  O   UNL     1       7.355  25.057  55.186  1.00  0.00    -0.293 OA
HETATM    9  C   UNL     1       6.858  26.282  54.834  1.00  0.00     0.094 A 
BRANCH   7  10
HETATM   10  C   UNL     1       7.628  22.887  54.180  1.00  0.00     0.017 A 
HETATM   11  C   UNL     1       7.928  22.152  53.023  1.00  0.00     0.016 A 
HETATM   12  C   UNL     1       8.293  20.805  53.104  1.00  0.00     0.001 A 
HETATM   13  C   UNL     1       8.363  20.175  54.344  1.00  0.00     0.000 A 
HETATM   14  C   UNL     1       8.070  20.891  55.504  1.00  0.00     0.001 A 
HETATM   15  C   UNL     1       7.707  22.238  55.421  1.00  0.00     0.016 A 
ENDBRANCH   7  10
BRANCH   9  16
HETATM   16  C   UNL     1       6.815  27.481  55.763  1.00  0.00     0.046 A 
HETATM   17  C   UNL     1       7.574  27.395  57.070  1.00  0.00     0.012 A 
HETATM   18  C   UNL     1       8.103  28.252  55.973  1.00  0.00     0.012 A 
ENDBRANCH   9  16
ENDBRANCH   2   5
BRANCH   1  19
HETATM   19  N   UNL     1       4.030  27.621  51.147  1.00  0.00    -0.265 N 
HETATM   20  C   UNL     1       4.243  27.274  49.816  1.00  0.00     0.260 C 
HETATM   21  O   UNL     1       4.696  26.184  49.477  1.00  0.00    -0.269 OA
HETATM   22  H   UNL     1       3.997  28.607  51.397  1.00  0.00     0.190 HD
BRANCH  20  23
HETATM   23  C   UNL     1       3.845  28.387  48.844  1.00  0.00     0.280 C 
BRANCH  23  24
HETATM   24  O   UNL     1       3.457  27.838  47.594  1.00  0.00    -0.342 OA
BRANCH  24  25
HETATM   25  C   UNL     1       2.258  28.241  47.076  1.00  0.00     0.069 A 
HETATM   26  C   UNL     1       1.878  29.556  46.796  1.00  0.00     0.043 A 
HETATM   27  C   UNL     1       0.601  29.834  46.280  1.00  0.00    -0.059 A 
HETATM   28  C   UNL     1       0.181  31.242  45.974  1.00  0.00     0.048 C 
HETATM   29  C   UNL     1      -0.282  28.778  46.028  1.00  0.00     0.007 A 
HETATM   30  C   UNL     1       0.097  27.464  46.297  1.00  0.00     0.003 A 
HETATM   31  C   UNL     1       1.362  27.200  46.820  1.00  0.00     0.037 A 
ENDBRANCH  24  25
ENDBRANCH  23  24
ENDBRANCH  20  23
ENDBRANCH   1  19
TORSDOF 7
ENDMDL
MODEL 9
REMARK VINA RESULT:      -8.8      1.967      9.793
REMARK  7 active torsions:
REMARK  status: ('A' for Active; 'I' for Inactive)
REMARK    1  A    between atoms: C_4  and  O_5 
REMARK    2  A    between atoms: O_5  and  C_6 
REMARK    3  A    between atoms: C_6  and  C_7 
REMARK       I    between atoms: C_7  and  N_8 
REMARK    4  A    between atoms: N_8  and  N_9 
REMARK       I    between atoms: N_9  and  C_10 
REMARK    5  A    between atoms: C_10  and  C_11 
REMARK    6  A    between atoms: C_13  and  C_14 
REMARK    7  A    between atoms: C_21  and  C_22 
ROOT
HETATM    1  N   UNL     1       7.029  28.858  56.301  1.00  0.00    -0.262 N 
HETATM    2  C   UNL     1       7.374  29.058  57.628  1.00  0.00     0.291 C 
HETATM    3  O   UNL     1       7.939  28.195  58.299  1.00  0.00    -0.264 OA
HETATM    4  H   UNL     1       6.343  29.487  55.886  1.00  0.00     0.190 HD
ENDROOT
BRANCH   2   5
HETATM    5  C   UNL     1       7.020  30.382  58.118  1.00  0.00     0.159 A 
HETATM    6  N   UNL     1       5.809  30.997  57.809  1.00  0.00    -0.216 NA
HETATM    7  C   UNL     1       5.902  32.189  58.369  1.00  0.00     0.180 A 
HETATM    8  O   UNL     1       7.062  32.388  59.063  1.00  0.00    -0.293 OA
HETATM    9  C   UNL     1       7.773  31.230  58.905  1.00  0.00     0.094 A 
BRANCH   7  10
HETATM   10  C   UNL     1       4.966  33.310  58.320  1.00  0.00     0.017 A 
HETATM   11  C   UNL     1       4.698  33.940  57.095  1.00  0.00     0.016 A 
HETATM   12  C   UNL     1       3.827  35.032  57.027  1.00  0.00     0.001 A 
HETATM   13  C   UNL     1       3.213  35.508  58.182  1.00  0.00     0.000 A 
HETATM   14  C   UNL     1       3.467  34.893  59.407  1.00  0.00     0.001 A 
HETATM   15  C   UNL     1       4.337  33.801  59.475  1.00  0.00     0.016 A 
ENDBRANCH   7  10
BRANCH   9  16
HETATM   16  C   UNL     1       9.136  30.977  59.522  1.00  0.00     0.046 A 
HETATM   17  C   UNL     1       9.647  31.968  60.546  1.00  0.00     0.012 A 
HETATM   18  C   UNL     1       9.185  30.626  60.995  1.00  0.00     0.012 A 
ENDBRANCH   9  16
ENDBRANCH   2   5
BRANCH   1  19
HETATM   19  N   UNL     1       7.106  27.546  55.793  1.00  0.00    -0.265 N 
HETATM   20  C   UNL     1       6.910  27.383  54.425  1.00  0.00     0.260 C 
HETATM   21  O   UNL     1       6.913  28.323  53.635  1.00  0.00    -0.269 OA
HETATM   22  H   UNL     1       6.756  26.831  56.427  1.00  0.00     0.190 HD
BRANCH  20  23
HETATM   23  C   UNL     1       6.701  25.920  54.028  1.00  0.00     0.280 C 
BRANCH  23  24
HETATM   24  O   UNL     1       7.949  25.250  53.931  1.00  0.00    -0.342 OA
BRANCH  24  25
HETATM   25  C   UNL     1       7.967  23.912  54.209  1.00  0.00     0.069 A 
HETATM   26  C   UNL     1       8.141  22.877  53.287  1.00  0.00     0.043 A 
HETATM   27  C   UNL     1       8.119  21.537  53.708  1.00  0.00    -0.059 A 
HETATM   28  C   UNL     1       8.306  20.416  52.728  1.00  0.00     0.048 C 
HETATM   29  C   UNL     1       7.941  21.246  55.065  1.00  0.00     0.007 A 
HETATM   30  C   UNL     1       7.778  22.277  55.989  1.00  0.00     0.003 A 
HETATM   31  C   UNL     1       7.790  23.603  55.560  1.00  0.00     0.037 A 
ENDBRANCH  24  25
ENDBRANCH  23  24
ENDBRANCH  20  23
ENDBRANCH   1  19
TORSDOF 7
ENDMDL
MODEL 10
REMARK VINA RESULT:      -8.7      1.920      9.962
REMARK  7 active torsions:
REMARK  status: ('A' for Active; 'I' for Inactive)
REMARK    1  A    between atoms: C_4  and  O_5 
REMARK    2  A    between atoms: O_5  and  C_6 
REMARK    3  A    between atoms: C_6  and  C_7 
REMARK       I    between atoms: C_7  and  N_8 
REMARK    4  A    between atoms: N_8  and  N_9 
REMARK       I    between atoms: N_9  and  C_10 
REMARK    5  A    between atoms: C_10  and  C_11 
REMARK    6  A    between atoms: C_13  and  C_14 
REMARK    7  A    between atoms: C_21  and  C_22 
ROOT
HETATM    1  N   UNL     1       5.850  29.822  57.967  1.00  0.00    -0.262 N 
HETATM    2  C   UNL     1       5.775  31.161  57.623  1.00  0.00     0.291 C 
HETATM    3  O   UNL     1       5.815  31.544  56.454  1.00  0.00    -0.264 OA
HETATM    4  H   UNL     1       6.077  29.589  58.933  1.00  0.00     0.190 HD
ENDROOT
BRANCH   2   5
HETATM    5  C   UNL     1       5.626  32.040  58.773  1.00  0.00     0.159 A 
HETATM    6  N   UNL     1       6.472  31.982  59.877  1.00  0.00    -0.216 NA
HETATM    7  C   UNL     1       5.970  32.869  60.715  1.00  0.00     0.180 A 
HETATM    8  O   UNL     1       4.884  33.542  60.227  1.00  0.00    -0.293 OA
HETATM    9  C   UNL     1       4.669  33.014  58.983  1.00  0.00     0.094 A 
BRANCH   7  10
HETATM   10  C   UNL     1       6.388  33.198  62.076  1.00  0.00     0.017 A 
HETATM   11  C   UNL     1       7.496  32.548  62.640  1.00  0.00     0.016 A 
HETATM   12  C   UNL     1       7.900  32.827  63.950  1.00  0.00     0.001 A 
HETATM   13  C   UNL     1       7.200  33.759  64.712  1.00  0.00     0.000 A 
HETATM   14  C   UNL     1       6.098  34.415  64.166  1.00  0.00     0.001 A 
HETATM   15  C   UNL     1       5.696  34.137  62.857  1.00  0.00     0.016 A 
ENDBRANCH   7  10
BRANCH   9  16
HETATM   16  C   UNL     1       3.568  33.469  58.045  1.00  0.00     0.046 A 
HETATM   17  C   UNL     1       2.951  34.831  58.281  1.00  0.00     0.012 A 
HETATM   18  C   UNL     1       3.867  34.635  57.124  1.00  0.00     0.012 A 
ENDBRANCH   9  16
ENDBRANCH   2   5
BRANCH   1  19
HETATM   19  N   UNL     1       6.231  28.906  56.966  1.00  0.00    -0.265 N 
HETATM   20  C   UNL     1       7.395  28.176  57.183  1.00  0.00     0.260 C 
HETATM   21  O   UNL     1       7.953  28.120  58.276  1.00  0.00    -0.269 OA
HETATM   22  H   UNL     1       6.011  29.208  56.019  1.00  0.00     0.190 HD
BRANCH  20  23
HETATM   23  C   UNL     1       7.886  27.457  55.924  1.00  0.00     0.280 C 
BRANCH  23  24
HETATM   24  O   UNL     1       6.818  26.750  55.310  1.00  0.00    -0.342 OA
BRANCH  24  25
HETATM   25  C   UNL     1       7.139  25.642  54.577  1.00  0.00     0.069 A 
HETATM   26  C   UNL     1       7.239  24.334  55.057  1.00  0.00     0.043 A 
HETATM   27  C   UNL     1       7.599  23.284  54.195  1.00  0.00    -0.059 A 
HETATM   28  C   UNL     1       7.708  21.874  54.696  1.00  0.00     0.048 C 
HETATM   29  C   UNL     1       7.836  23.557  52.843  1.00  0.00     0.007 A 
HETATM   30  C   UNL     1       7.727  24.860  52.359  1.00  0.00     0.003 A 
HETATM   31  C   UNL     1       7.381  25.896  53.225  1.00  0.00     0.037 A 
ENDBRANCH  24  25
ENDBRANCH  23  24
ENDBRANCH  20  23
ENDBRANCH   1  19
TORSDOF 7
ENDMDL
