MODEL 1
REMARK VINA RESULT:      -8.1      0.000      0.000
REMARK  6 active torsions:
REMARK  status: ('A' for Active; 'I' for Inactive)
REMARK    1  A    between atoms: C_6  and  C_7 
REMARK       I    between atoms: C_7  and  N_8 
REMARK    2  A    between atoms: N_8  and  C_9 
REMARK    3  A    between atoms: C_9  and  C_10 
REMARK    4  A    between atoms: C_10  and  O_11 
REMARK    5  A    between atoms: C_10  and  C_12 
REMARK    6  A    between atoms: C_15  and  O_16 
ROOT
HETATM    1  C   UNL     1       7.505  25.133  53.977  1.00  0.00     0.258 C 
HETATM    2  N   UNL     1       6.333  25.680  54.452  1.00  0.00    -0.350 N 
HETATM    3  O   UNL     1       8.102  25.572  53.002  1.00  0.00    -0.267 OA
HETATM    4  H   UNL     1       5.986  25.292  55.328  1.00  0.00     0.163 HD
ENDROOT
BRANCH   2   5
HETATM    5  C   UNL     1       5.758  26.920  53.923  1.00  0.00     0.114 C 
HETATM    6  C   UNL     1       4.561  26.602  53.018  1.00  0.00     0.035 C 
BRANCH   5   7
HETATM    7  C   UNL     1       5.379  27.868  55.099  1.00  0.00     0.173 C 
BRANCH   7   8
HETATM    8  O   UNL     1       4.629  28.996  54.632  1.00  0.00    -0.389 OA
HETATM    9  H   UNL     1       4.113  29.324  55.389  1.00  0.00     0.210 HD
ENDBRANCH   7   8
BRANCH   7  10
HETATM   10  C   UNL     1       6.581  28.322  55.903  1.00  0.00    -0.028 A 
HETATM   11  C   UNL     1       7.748  28.720  55.235  1.00  0.00     0.012 A 
HETATM   12  C   UNL     1       8.860  29.168  55.953  1.00  0.00     0.037 A 
HETATM   13  C   UNL     1       8.827  29.238  57.346  1.00  0.00     0.068 A 
HETATM   14  C   UNL     1       7.676  28.838  58.020  1.00  0.00     0.037 A 
HETATM   15  C   UNL     1       6.562  28.381  57.303  1.00  0.00     0.012 A 
BRANCH  13  16
HETATM   16  O   UNL     1       9.976  29.707  57.922  1.00  0.00    -0.356 OA
HETATM   17  C   UNL     1      11.117  29.808  57.080  1.00  0.00     0.210 C 
ENDBRANCH  13  16
ENDBRANCH   7  10
ENDBRANCH   5   7
ENDBRANCH   2   5
BRANCH   1  18
HETATM   18  C   UNL     1       7.994  23.998  54.743  1.00  0.00     0.105 A 
HETATM   19  C   UNL     1       8.383  23.966  56.108  1.00  0.00     0.071 A 
HETATM   20  C   UNL     1       8.397  25.095  57.076  1.00  0.00     0.073 C 
HETATM   21  N   UNL     1       8.769  22.747  56.501  1.00  0.00    -0.170 NA
HETATM   22  N   UNL     1       8.629  21.970  55.406  1.00  0.00    -0.225 N 
HETATM   23  C   UNL     1       8.169  22.696  54.303  1.00  0.00     0.168 A 
HETATM   24  C   UNL     1       8.879  20.607  55.297  1.00  0.00     0.122 A 
HETATM   25  N   UNL     1       7.957  22.106  53.078  1.00  0.00    -0.240 NA
HETATM   26  C   UNL     1       8.202  20.830  53.019  1.00  0.00     0.120 A 
HETATM   27  C   UNL     1       8.686  19.971  54.134  1.00  0.00     0.038 A 
ENDBRANCH   1  18
TORSDOF 6
ENDMDL
MODEL 2
REMARK VINA RESULT:      -8.0      3.481      7.915
REMARK  6 active torsions:
REMARK  status: ('A' for Active; 'I' for Inactive)
REMARK    1  A    between atoms: C_6  and  C_7 
REMARK       I    between atoms: C_7  and  N_8 
REMARK    2  A    between atoms: N_8  and  C_9 
REMARK    3  A    between atoms: C_9  and  C_10 
REMARK    4  A    between atoms: C_10  and  O_11 
REMARK    5  A    between atoms: C_10  and  C_12 
REMARK    6  A    between atoms: C_15  and  O_16 
ROOT
HETATM    1  C   UNL     1       7.624  28.296  57.661  1.00  0.00     0.258 C 
HETATM    2  N   UNL     1       6.477  27.566  57.442  1.00  0.00    -0.350 N 
HETATM    3  O   UNL     1       8.749  27.841  57.498  1.00  0.00    -0.267 OA
HETATM    4  H   UNL     1       5.601  28.084  57.512  1.00  0.00     0.163 HD
ENDROOT
BRANCH   2   5
HETATM    5  C   UNL     1       6.485  26.219  56.865  1.00  0.00     0.114 C 
HETATM    6  C   UNL     1       5.148  25.518  57.140  1.00  0.00     0.035 C 
BRANCH   5   7
HETATM    7  C   UNL     1       6.812  26.300  55.345  1.00  0.00     0.173 C 
BRANCH   7   8
HETATM    8  O   UNL     1       5.656  26.677  54.587  1.00  0.00    -0.389 OA
HETATM    9  H   UNL     1       5.412  25.908  54.044  1.00  0.00     0.210 HD
ENDBRANCH   7   8
BRANCH   7  10
HETATM   10  C   UNL     1       7.414  25.020  54.801  1.00  0.00    -0.028 A 
HETATM   11  C   UNL     1       8.245  24.244  55.622  1.00  0.00     0.012 A 
HETATM   12  C   UNL     1       8.789  23.046  55.153  1.00  0.00     0.037 A 
HETATM   13  C   UNL     1       8.509  22.593  53.863  1.00  0.00     0.068 A 
HETATM   14  C   UNL     1       7.691  23.360  53.036  1.00  0.00     0.037 A 
HETATM   15  C   UNL     1       7.150  24.565  53.501  1.00  0.00     0.012 A 
BRANCH  13  16
HETATM   16  O   UNL     1       9.095  21.401  53.536  1.00  0.00    -0.356 OA
HETATM   17  C   UNL     1       8.270  20.439  52.893  1.00  0.00     0.210 C 
ENDBRANCH  13  16
ENDBRANCH   7  10
ENDBRANCH   5   7
ENDBRANCH   2   5
BRANCH   1  18
HETATM   18  C   UNL     1       7.394  29.669  58.082  1.00  0.00     0.105 A 
HETATM   19  C   UNL     1       6.533  30.633  57.491  1.00  0.00     0.071 A 
HETATM   20  C   UNL     1       5.674  30.468  56.289  1.00  0.00     0.073 C 
HETATM   21  N   UNL     1       6.547  31.799  58.146  1.00  0.00    -0.170 NA
HETATM   22  N   UNL     1       7.405  31.610  59.172  1.00  0.00    -0.225 N 
HETATM   23  C   UNL     1       7.956  30.325  59.164  1.00  0.00     0.168 A 
HETATM   24  C   UNL     1       7.752  32.520  60.164  1.00  0.00     0.122 A 
HETATM   25  N   UNL     1       8.860  29.914  60.117  1.00  0.00    -0.240 NA
HETATM   26  C   UNL     1       9.157  30.794  61.028  1.00  0.00     0.120 A 
HETATM   27  C   UNL     1       8.620  32.179  61.125  1.00  0.00     0.038 A 
ENDBRANCH   1  18
TORSDOF 6
ENDMDL
MODEL 3
REMARK VINA RESULT:      -8.0      3.471      7.758
REMARK  6 active torsions:
REMARK  status: ('A' for Active; 'I' for Inactive)
REMARK    1  A    between atoms: C_6  and  C_7 
REMARK       I    between atoms: C_7  and  N_8 
REMARK    2  A    between atoms: N_8  and  C_9 
REMARK    3  A    between atoms: C_9  and  C_10 
REMARK    4  A    between atoms: C_10  and  O_11 
REMARK    5  A    between atoms: C_10  and  C_12 
REMARK    6  A    between atoms: C_15  and  O_16 
ROOT
HETATM    1  C   UNL     1       7.982  28.516  57.491  1.00  0.00     0.258 C 
HETATM    2  N   UNL     1       7.375  28.696  56.268  1.00  0.00    -0.350 N 
HETATM    3  O   UNL     1       7.874  27.488  58.148  1.00  0.00    -0.267 OA
HETATM    4  H   UNL     1       7.623  29.551  55.771  1.00  0.00     0.163 HD
ENDROOT
BRANCH   2   5
HETATM    5  C   UNL     1       6.652  27.629  55.570  1.00  0.00     0.114 C 
HETATM    6  C   UNL     1       5.184  28.026  55.375  1.00  0.00     0.035 C 
BRANCH   5   7
HETATM    7  C   UNL     1       7.365  27.304  54.223  1.00  0.00     0.173 C 
BRANCH   7   8
HETATM    8  O   UNL     1       6.761  28.015  53.136  1.00  0.00    -0.389 OA
HETATM    9  H   UNL     1       6.400  27.347  52.528  1.00  0.00     0.210 HD
ENDBRANCH   7   8
BRANCH   7  10
HETATM   10  C   UNL     1       7.420  25.820  53.926  1.00  0.00    -0.028 A 
HETATM   11  C   UNL     1       7.817  25.384  52.654  1.00  0.00     0.012 A 
HETATM   12  C   UNL     1       7.902  24.020  52.364  1.00  0.00     0.037 A 
HETATM   13  C   UNL     1       7.604  23.065  53.336  1.00  0.00     0.068 A 
HETATM   14  C   UNL     1       7.201  23.487  54.601  1.00  0.00     0.037 A 
HETATM   15  C   UNL     1       7.108  24.853  54.893  1.00  0.00     0.012 A 
BRANCH  13  16
HETATM   16  O   UNL     1       7.741  21.768  52.924  1.00  0.00    -0.356 OA
HETATM   17  C   UNL     1       7.978  20.798  53.936  1.00  0.00     0.210 C 
ENDBRANCH  13  16
ENDBRANCH   7  10
ENDBRANCH   5   7
ENDBRANCH   2   5
BRANCH   1  18
HETATM   18  C   UNL     1       8.787  29.642  57.936  1.00  0.00     0.105 A 
HETATM   19  C   UNL     1      10.028  30.093  57.411  1.00  0.00     0.071 A 
HETATM   20  C   UNL     1      10.807  29.505  56.289  1.00  0.00     0.073 C 
HETATM   21  N   UNL     1      10.490  31.175  58.048  1.00  0.00    -0.170 NA
HETATM   22  N   UNL     1       9.557  31.449  58.985  1.00  0.00    -0.225 N 
HETATM   23  C   UNL     1       8.504  30.529  58.961  1.00  0.00     0.168 A 
HETATM   24  C   UNL     1       9.557  32.497  59.898  1.00  0.00     0.122 A 
HETATM   25  N   UNL     1       7.442  30.613  59.833  1.00  0.00    -0.240 NA
HETATM   26  C   UNL     1       7.480  31.609  60.670  1.00  0.00     0.120 A 
HETATM   27  C   UNL     1       8.549  32.640  60.769  1.00  0.00     0.038 A 
ENDBRANCH   1  18
TORSDOF 6
ENDMDL
MODEL 4
REMARK VINA RESULT:      -7.9      2.805      7.046
REMARK  6 active torsions:
REMARK  status: ('A' for Active; 'I' for Inactive)
REMARK    1  A    between atoms: C_6  and  C_7 
REMARK       I    between atoms: C_7  and  N_8 
REMARK    2  A    between atoms: N_8  and  C_9 
REMARK    3  A    between atoms: C_9  and  C_10 
REMARK    4  A    between atoms: C_10  and  O_11 
REMARK    5  A    between atoms: C_10  and  C_12 
REMARK    6  A    between atoms: C_15  and  O_16 
ROOT
HETATM    1  C   UNL     1       5.811  27.399  55.770  1.00  0.00     0.258 C 
HETATM    2  N   UNL     1       6.423  27.331  54.538  1.00  0.00    -0.350 N 
HETATM    3  O   UNL     1       4.739  26.858  56.017  1.00  0.00    -0.267 OA
HETATM    4  H   UNL     1       7.358  27.734  54.485  1.00  0.00     0.163 HD
ENDROOT
BRANCH   2   5
HETATM    5  C   UNL     1       5.924  26.496  53.443  1.00  0.00     0.114 C 
HETATM    6  C   UNL     1       5.175  27.358  52.420  1.00  0.00     0.035 C 
BRANCH   5   7
HETATM    7  C   UNL     1       7.104  25.705  52.804  1.00  0.00     0.173 C 
BRANCH   7   8
HETATM    8  O   UNL     1       6.927  25.567  51.389  1.00  0.00    -0.389 OA
HETATM    9  H   UNL     1       7.146  26.428  50.992  1.00  0.00     0.210 HD
ENDBRANCH   7   8
BRANCH   7  10
HETATM   10  C   UNL     1       7.328  24.353  53.450  1.00  0.00    -0.028 A 
HETATM   11  C   UNL     1       7.855  23.302  52.685  1.00  0.00     0.012 A 
HETATM   12  C   UNL     1       8.096  22.053  53.264  1.00  0.00     0.037 A 
HETATM   13  C   UNL     1       7.828  21.830  54.615  1.00  0.00     0.068 A 
HETATM   14  C   UNL     1       7.297  22.866  55.382  1.00  0.00     0.037 A 
HETATM   15  C   UNL     1       7.048  24.116  54.803  1.00  0.00     0.012 A 
BRANCH  13  16
HETATM   16  O   UNL     1       8.122  20.570  55.056  1.00  0.00    -0.356 OA
HETATM   17  C   UNL     1       9.283  20.430  55.865  1.00  0.00     0.210 C 
ENDBRANCH  13  16
ENDBRANCH   7  10
ENDBRANCH   5   7
ENDBRANCH   2   5
BRANCH   1  18
HETATM   18  C   UNL     1       6.551  28.150  56.771  1.00  0.00     0.105 A 
HETATM   19  C   UNL     1       7.709  27.748  57.488  1.00  0.00     0.071 A 
HETATM   20  C   UNL     1       8.430  26.450  57.396  1.00  0.00     0.073 C 
HETATM   21  N   UNL     1       8.147  28.695  58.325  1.00  0.00    -0.170 NA
HETATM   22  N   UNL     1       7.291  29.726  58.159  1.00  0.00    -0.225 N 
HETATM   23  C   UNL     1       6.291  29.432  57.227  1.00  0.00     0.168 A 
HETATM   24  C   UNL     1       7.326  30.965  58.788  1.00  0.00     0.122 A 
HETATM   25  N   UNL     1       5.307  30.338  56.904  1.00  0.00    -0.240 NA
HETATM   26  C   UNL     1       5.376  31.486  57.513  1.00  0.00     0.120 A 
HETATM   27  C   UNL     1       6.401  31.894  58.512  1.00  0.00     0.038 A 
ENDBRANCH   1  18
TORSDOF 6
ENDMDL
MODEL 5
REMARK VINA RESULT:      -7.9      2.760      6.977
REMARK  6 active torsions:
REMARK  status: ('A' for Active; 'I' for Inactive)
REMARK    1  A    between atoms: C_6  and  C_7 
REMARK       I    between atoms: C_7  and  N_8 
REMARK    2  A    between atoms: N_8  and  C_9 
REMARK    3  A    between atoms: C_9  and  C_10 
REMARK    4  A    between atoms: C_10  and  O_11 
REMARK    5  A    between atoms: C_10  and  C_12 
REMARK    6  A    between atoms: C_15  and  O_16 
ROOT
HETATM    1  C   UNL     1       5.666  27.793  56.078  1.00  0.00     0.258 C 
HETATM    2  N   UNL     1       6.131  27.646  54.790  1.00  0.00    -0.350 N 
HETATM    3  O   UNL     1       4.833  27.048  56.579  1.00  0.00    -0.267 OA
HETATM    4  H   UNL     1       6.897  28.263  54.522  1.00  0.00     0.163 HD
ENDROOT
BRANCH   2   5
HETATM    5  C   UNL     1       5.779  26.506  53.939  1.00  0.00     0.114 C 
HETATM    6  C   UNL     1       4.714  26.920  52.916  1.00  0.00     0.035 C 
BRANCH   5   7
HETATM    7  C   UNL     1       7.062  25.937  53.264  1.00  0.00     0.173 C 
BRANCH   7   8
HETATM    8  O   UNL     1       6.986  26.045  51.837  1.00  0.00    -0.389 OA
HETATM    9  H   UNL     1       7.531  26.810  51.583  1.00  0.00     0.210 HD
ENDBRANCH   7   8
BRANCH   7  10
HETATM   10  C   UNL     1       7.364  24.511  53.677  1.00  0.00    -0.028 A 
HETATM   11  C   UNL     1       7.170  24.122  55.010  1.00  0.00     0.012 A 
HETATM   12  C   UNL     1       7.415  22.806  55.410  1.00  0.00     0.037 A 
HETATM   13  C   UNL     1       7.848  21.851  54.489  1.00  0.00     0.068 A 
HETATM   14  C   UNL     1       8.053  22.229  53.164  1.00  0.00     0.037 A 
HETATM   15  C   UNL     1       7.814  23.549  52.762  1.00  0.00     0.012 A 
BRANCH  13  16
HETATM   16  O   UNL     1       8.037  20.600  55.010  1.00  0.00    -0.356 OA
HETATM   17  C   UNL     1       8.477  20.530  56.360  1.00  0.00     0.210 C 
ENDBRANCH  13  16
ENDBRANCH   7  10
ENDBRANCH   5   7
ENDBRANCH   2   5
BRANCH   1  18
HETATM   18  C   UNL     1       6.262  28.898  56.812  1.00  0.00     0.105 A 
HETATM   19  C   UNL     1       5.600  29.960  57.484  1.00  0.00     0.071 A 
HETATM   20  C   UNL     1       4.136  30.201  57.581  1.00  0.00     0.073 C 
HETATM   21  N   UNL     1       6.454  30.802  58.076  1.00  0.00    -0.170 NA
HETATM   22  N   UNL     1       7.678  30.298  57.808  1.00  0.00    -0.225 N 
HETATM   23  C   UNL     1       7.609  29.141  57.026  1.00  0.00     0.168 A 
HETATM   24  C   UNL     1       8.908  30.797  58.221  1.00  0.00     0.122 A 
HETATM   25  N   UNL     1       8.737  28.460  56.629  1.00  0.00    -0.240 NA
HETATM   26  C   UNL     1       9.867  28.959  57.037  1.00  0.00     0.120 A 
HETATM   27  C   UNL     1      10.044  30.177  57.874  1.00  0.00     0.038 A 
ENDBRANCH   1  18
TORSDOF 6
ENDMDL
MODEL 6
REMARK VINA RESULT:      -7.9      3.313      7.729
REMARK  6 active torsions:
REMARK  status: ('A' for Active; 'I' for Inactive)
REMARK    1  A    between atoms: C_6  and  C_7 
REMARK       I    between atoms: C_7  and  N_8 
REMARK    2  A    between atoms: N_8  and  C_9 
REMARK    3  A    between atoms: C_9  and  C_10 
REMARK    4  A    between atoms: C_10  and  O_11 
REMARK    5  A    between atoms: C_10  and  C_12 
REMARK    6  A    between atoms: C_15  and  O_16 
ROOT
HETATM    1  C   UNL     1       6.980  28.345  57.633  1.00  0.00     0.258 C 
HETATM    2  N   UNL     1       5.977  27.621  57.029  1.00  0.00    -0.350 N 
HETATM    3  O   UNL     1       8.038  27.848  58.001  1.00  0.00    -0.267 OA
HETATM    4  H   UNL     1       5.189  28.164  56.676  1.00  0.00     0.163 HD
ENDROOT
BRANCH   2   5
HETATM    5  C   UNL     1       6.127  26.215  56.644  1.00  0.00     0.114 C 
HETATM    6  C   UNL     1       4.980  25.382  57.228  1.00  0.00     0.035 C 
BRANCH   5   7
HETATM    7  C   UNL     1       6.215  26.102  55.093  1.00  0.00     0.173 C 
BRANCH   7   8
HETATM    8  O   UNL     1       4.911  26.131  54.498  1.00  0.00    -0.389 OA
HETATM    9  H   UNL     1       4.432  25.353  54.832  1.00  0.00     0.210 HD
ENDBRANCH   7   8
BRANCH   7  10
HETATM   10  C   UNL     1       6.985  24.881  54.632  1.00  0.00    -0.028 A 
HETATM   11  C   UNL     1       7.972  24.333  55.464  1.00  0.00     0.012 A 
HETATM   12  C   UNL     1       8.677  23.192  55.074  1.00  0.00     0.037 A 
HETATM   13  C   UNL     1       8.406  22.569  53.855  1.00  0.00     0.068 A 
HETATM   14  C   UNL     1       7.433  23.109  53.018  1.00  0.00     0.037 A 
HETATM   15  C   UNL     1       6.729  24.257  53.403  1.00  0.00     0.012 A 
BRANCH  13  16
HETATM   16  O   UNL     1       9.158  21.454  53.603  1.00  0.00    -0.356 OA
HETATM   17  C   UNL     1       8.511  20.387  52.923  1.00  0.00     0.210 C 
ENDBRANCH  13  16
ENDBRANCH   7  10
ENDBRANCH   5   7
ENDBRANCH   2   5
BRANCH   1  18
HETATM   18  C   UNL     1       6.695  29.763  57.783  1.00  0.00     0.105 A 
HETATM   19  C   UNL     1       7.329  30.697  58.646  1.00  0.00     0.071 A 
HETATM   20  C   UNL     1       8.425  30.438  59.616  1.00  0.00     0.073 C 
HETATM   21  N   UNL     1       6.830  31.932  58.518  1.00  0.00    -0.170 NA
HETATM   22  N   UNL     1       5.877  31.822  57.567  1.00  0.00    -0.225 N 
HETATM   23  C   UNL     1       5.751  30.511  57.099  1.00  0.00     0.168 A 
HETATM   24  C   UNL     1       5.076  32.835  57.052  1.00  0.00     0.122 A 
HETATM   25  N   UNL     1       4.837  30.167  56.129  1.00  0.00    -0.240 NA
HETATM   26  C   UNL     1       4.108  31.143  55.672  1.00  0.00     0.120 A 
HETATM   27  C   UNL     1       4.171  32.568  56.100  1.00  0.00     0.038 A 
ENDBRANCH   1  18
TORSDOF 6
ENDMDL
MODEL 7
REMARK VINA RESULT:      -7.7      3.349      6.111
REMARK  6 active torsions:
REMARK  status: ('A' for Active; 'I' for Inactive)
REMARK    1  A    between atoms: C_6  and  C_7 
REMARK       I    between atoms: C_7  and  N_8 
REMARK    2  A    between atoms: N_8  and  C_9 
REMARK    3  A    between atoms: C_9  and  C_10 
REMARK    4  A    between atoms: C_10  and  O_11 
REMARK    5  A    between atoms: C_10  and  C_12 
REMARK    6  A    between atoms: C_15  and  O_16 
ROOT
HETATM    1  C   UNL     1       7.764  28.299  57.244  1.00  0.00     0.258 C 
HETATM    2  N   UNL     1       8.541  29.403  56.972  1.00  0.00    -0.350 N 
HETATM    3  O   UNL     1       8.003  27.520  58.159  1.00  0.00    -0.267 OA
HETATM    4  H   UNL     1       8.183  30.031  56.253  1.00  0.00     0.163 HD
ENDROOT
BRANCH   2   5
HETATM    5  C   UNL     1       9.650  29.831  57.829  1.00  0.00     0.114 C 
HETATM    6  C   UNL     1      10.985  29.643  57.098  1.00  0.00     0.035 C 
BRANCH   5   7
HETATM    7  C   UNL     1       9.424  31.302  58.287  1.00  0.00     0.173 C 
BRANCH   7   8
HETATM    8  O   UNL     1      10.663  32.020  58.348  1.00  0.00    -0.389 OA
HETATM    9  H   UNL     1      10.564  32.801  57.777  1.00  0.00     0.210 HD
ENDBRANCH   7   8
BRANCH   7  10
HETATM   10  C   UNL     1       8.682  31.404  59.604  1.00  0.00    -0.028 A 
HETATM   11  C   UNL     1       7.395  31.961  59.630  1.00  0.00     0.012 A 
HETATM   12  C   UNL     1       6.679  32.041  60.827  1.00  0.00     0.037 A 
HETATM   13  C   UNL     1       7.225  31.560  62.017  1.00  0.00     0.068 A 
HETATM   14  C   UNL     1       8.506  31.012  62.004  1.00  0.00     0.037 A 
HETATM   15  C   UNL     1       9.229  30.937  60.807  1.00  0.00     0.012 A 
BRANCH  13  16
HETATM   16  O   UNL     1       6.414  31.687  63.111  1.00  0.00    -0.356 OA
HETATM   17  C   UNL     1       5.160  32.325  62.906  1.00  0.00     0.210 C 
ENDBRANCH  13  16
ENDBRANCH   7  10
ENDBRANCH   5   7
ENDBRANCH   2   5
BRANCH   1  18
HETATM   18  C   UNL     1       6.614  28.140  56.369  1.00  0.00     0.105 A 
HETATM   19  C   UNL     1       5.356  28.795  56.449  1.00  0.00     0.071 A 
HETATM   20  C   UNL     1       4.912  29.789  57.462  1.00  0.00     0.073 C 
HETATM   21  N   UNL     1       4.525  28.427  55.467  1.00  0.00    -0.170 NA
HETATM   22  N   UNL     1       5.229  27.540  54.732  1.00  0.00    -0.225 N 
HETATM   23  C   UNL     1       6.508  27.325  55.254  1.00  0.00     0.168 A 
HETATM   24  C   UNL     1       4.817  26.879  53.581  1.00  0.00     0.122 A 
HETATM   25  N   UNL     1       7.398  26.455  54.668  1.00  0.00    -0.240 NA
HETATM   26  C   UNL     1       6.975  25.857  53.592  1.00  0.00     0.120 A 
HETATM   27  C   UNL     1       5.639  26.025  52.957  1.00  0.00     0.038 A 
ENDBRANCH   1  18
TORSDOF 6
ENDMDL
MODEL 8
REMARK VINA RESULT:      -7.6      3.283      6.030
REMARK  6 active torsions:
REMARK  status: ('A' for Active; 'I' for Inactive)
REMARK    1  A    between atoms: C_6  and  C_7 
REMARK       I    between atoms: C_7  and  N_8 
REMARK    2  A    between atoms: N_8  and  C_9 
REMARK    3  A    between atoms: C_9  and  C_10 
REMARK    4  A    between atoms: C_10  and  O_11 
REMARK    5  A    between atoms: C_10  and  C_12 
REMARK    6  A    between atoms: C_15  and  O_16 
ROOT
HETATM    1  C   UNL     1       5.307  25.420  53.950  1.00  0.00     0.258 C 
HETATM    2  N   UNL     1       5.491  26.783  54.019  1.00  0.00    -0.350 N 
HETATM    3  O   UNL     1       4.427  24.896  53.278  1.00  0.00    -0.267 OA
HETATM    4  H   UNL     1       6.318  27.093  54.528  1.00  0.00     0.163 HD
ENDROOT
BRANCH   2   5
HETATM    5  C   UNL     1       4.745  27.733  53.190  1.00  0.00     0.114 C 
HETATM    6  C   UNL     1       4.532  29.046  53.953  1.00  0.00     0.035 C 
BRANCH   5   7
HETATM    7  C   UNL     1       5.484  27.945  51.835  1.00  0.00     0.173 C 
BRANCH   7   8
HETATM    8  O   UNL     1       6.023  29.269  51.743  1.00  0.00    -0.389 OA
HETATM    9  H   UNL     1       6.450  29.340  50.872  1.00  0.00     0.210 HD
ENDBRANCH   7   8
BRANCH   7  10
HETATM   10  C   UNL     1       4.616  27.636  50.633  1.00  0.00    -0.028 A 
HETATM   11  C   UNL     1       4.818  26.443  49.924  1.00  0.00     0.012 A 
HETATM   12  C   UNL     1       4.013  26.122  48.828  1.00  0.00     0.037 A 
HETATM   13  C   UNL     1       2.986  26.976  48.424  1.00  0.00     0.068 A 
HETATM   14  C   UNL     1       2.782  28.167  49.117  1.00  0.00     0.037 A 
HETATM   15  C   UNL     1       3.592  28.495  50.211  1.00  0.00     0.012 A 
BRANCH  13  16
HETATM   16  O   UNL     1       2.267  26.536  47.347  1.00  0.00    -0.356 OA
HETATM   17  C   UNL     1       1.243  27.397  46.868  1.00  0.00     0.210 C 
ENDBRANCH  13  16
ENDBRANCH   7  10
ENDBRANCH   5   7
ENDBRANCH   2   5
BRANCH   1  18
HETATM   18  C   UNL     1       6.257  24.642  54.728  1.00  0.00     0.105 A 
HETATM   19  C   UNL     1       6.506  24.708  56.125  1.00  0.00     0.071 A 
HETATM   20  C   UNL     1       5.861  25.603  57.122  1.00  0.00     0.073 C 
HETATM   21  N   UNL     1       7.440  23.835  56.520  1.00  0.00    -0.170 NA
HETATM   22  N   UNL     1       7.803  23.185  55.393  1.00  0.00    -0.225 N 
HETATM   23  C   UNL     1       7.115  23.655  54.271  1.00  0.00     0.168 A 
HETATM   24  C   UNL     1       8.733  22.158  55.271  1.00  0.00     0.122 A 
HETATM   25  N   UNL     1       7.330  23.139  53.014  1.00  0.00    -0.240 NA
HETATM   26  C   UNL     1       8.206  22.179  52.942  1.00  0.00     0.120 A 
HETATM   27  C   UNL     1       8.983  21.607  54.076  1.00  0.00     0.038 A 
ENDBRANCH   1  18
TORSDOF 6
ENDMDL
MODEL 9
REMARK VINA RESULT:      -7.5      7.563     11.151
REMARK  6 active torsions:
REMARK  status: ('A' for Active; 'I' for Inactive)
REMARK    1  A    between atoms: C_6  and  C_7 
REMARK       I    between atoms: C_7  and  N_8 
REMARK    2  A    between atoms: N_8  and  C_9 
REMARK    3  A    between atoms: C_9  and  C_10 
REMARK    4  A    between atoms: C_10  and  O_11 
REMARK    5  A    between atoms: C_10  and  C_12 
REMARK    6  A    between atoms: C_15  and  O_16 
ROOT
HETATM    1  C   UNL     1       4.985  32.420  62.384  1.00  0.00     0.258 C 
HETATM    2  N   UNL     1       5.274  33.088  61.214  1.00  0.00    -0.350 N 
HETATM    3  O   UNL     1       4.134  31.542  62.462  1.00  0.00    -0.267 OA
HETATM    4  H   UNL     1       6.070  33.723  61.251  1.00  0.00     0.163 HD
ENDROOT
BRANCH   2   5
HETATM    5  C   UNL     1       4.690  32.722  59.921  1.00  0.00     0.114 C 
HETATM    6  C   UNL     1       3.487  33.623  59.612  1.00  0.00     0.035 C 
BRANCH   5   7
HETATM    7  C   UNL     1       5.782  32.788  58.813  1.00  0.00     0.173 C 
BRANCH   7   8
HETATM    8  O   UNL     1       5.267  33.381  57.614  1.00  0.00    -0.389 OA
HETATM    9  H   UNL     1       4.304  33.461  57.731  1.00  0.00     0.210 HD
ENDBRANCH   7   8
BRANCH   7  10
HETATM   10  C   UNL     1       6.405  31.439  58.517  1.00  0.00    -0.028 A 
HETATM   11  C   UNL     1       7.631  31.100  59.108  1.00  0.00     0.012 A 
HETATM   12  C   UNL     1       8.213  29.852  58.873  1.00  0.00     0.037 A 
HETATM   13  C   UNL     1       7.582  28.915  58.054  1.00  0.00     0.068 A 
HETATM   14  C   UNL     1       6.368  29.245  57.455  1.00  0.00     0.037 A 
HETATM   15  C   UNL     1       5.786  30.498  57.683  1.00  0.00     0.012 A 
BRANCH  13  16
HETATM   16  O   UNL     1       8.252  27.730  57.919  1.00  0.00    -0.356 OA
HETATM   17  C   UNL     1       7.738  26.810  56.965  1.00  0.00     0.210 C 
ENDBRANCH  13  16
ENDBRANCH   7  10
ENDBRANCH   5   7
ENDBRANCH   2   5
BRANCH   1  18
HETATM   18  C   UNL     1       5.791  32.825  63.524  1.00  0.00     0.105 A 
HETATM   19  C   UNL     1       7.202  32.751  63.669  1.00  0.00     0.071 A 
HETATM   20  C   UNL     1       8.189  32.223  62.691  1.00  0.00     0.073 C 
HETATM   21  N   UNL     1       7.621  33.230  64.847  1.00  0.00    -0.170 NA
HETATM   22  N   UNL     1       6.495  33.629  65.477  1.00  0.00    -0.225 N 
HETATM   23  C   UNL     1       5.351  33.389  64.711  1.00  0.00     0.168 A 
HETATM   24  C   UNL     1       6.393  34.221  66.731  1.00  0.00     0.122 A 
HETATM   25  N   UNL     1       4.091  33.714  65.159  1.00  0.00    -0.240 NA
HETATM   26  C   UNL     1       4.039  34.267  66.336  1.00  0.00     0.120 A 
HETATM   27  C   UNL     1       5.196  34.568  67.222  1.00  0.00     0.038 A 
ENDBRANCH   1  18
TORSDOF 6
ENDMDL
MODEL 10
REMARK VINA RESULT:      -7.5      2.820      7.047
REMARK  6 active torsions:
REMARK  status: ('A' for Active; 'I' for Inactive)
REMARK    1  A    between atoms: C_6  and  C_7 
REMARK       I    between atoms: C_7  and  N_8 
REMARK    2  A    between atoms: N_8  and  C_9 
REMARK    3  A    between atoms: C_9  and  C_10 
REMARK    4  A    between atoms: C_10  and  O_11 
REMARK    5  A    between atoms: C_10  and  C_12 
REMARK    6  A    between atoms: C_15  and  O_16 
ROOT
HETATM    1  C   UNL     1       5.514  27.068  55.079  1.00  0.00     0.258 C 
HETATM    2  N   UNL     1       5.762  26.962  53.729  1.00  0.00    -0.350 N 
HETATM    3  O   UNL     1       5.244  26.107  55.789  1.00  0.00    -0.267 OA
HETATM    4  H   UNL     1       6.076  27.815  53.267  1.00  0.00     0.163 HD
ENDROOT
BRANCH   2   5
HETATM    5  C   UNL     1       5.863  25.676  53.033  1.00  0.00     0.114 C 
HETATM    6  C   UNL     1       5.060  25.717  51.727  1.00  0.00     0.035 C 
BRANCH   5   7
HETATM    7  C   UNL     1       7.361  25.319  52.800  1.00  0.00     0.173 C 
BRANCH   7   8
HETATM    8  O   UNL     1       7.652  25.203  51.402  1.00  0.00    -0.389 OA
HETATM    9  H   UNL     1       6.869  24.803  50.983  1.00  0.00     0.210 HD
ENDBRANCH   7   8
BRANCH   7  10
HETATM   10  C   UNL     1       7.794  24.071  53.542  1.00  0.00    -0.028 A 
HETATM   11  C   UNL     1       7.931  22.864  52.841  1.00  0.00     0.012 A 
HETATM   12  C   UNL     1       8.356  21.706  53.497  1.00  0.00     0.037 A 
HETATM   13  C   UNL     1       8.662  21.729  54.858  1.00  0.00     0.068 A 
HETATM   14  C   UNL     1       8.521  22.922  55.565  1.00  0.00     0.037 A 
HETATM   15  C   UNL     1       8.089  24.082  54.912  1.00  0.00     0.012 A 
BRANCH  13  16
HETATM   16  O   UNL     1       9.078  20.532  55.371  1.00  0.00    -0.356 OA
HETATM   17  C   UNL     1       8.899  20.338  56.768  1.00  0.00     0.210 C 
ENDBRANCH  13  16
ENDBRANCH   7  10
ENDBRANCH   5   7
ENDBRANCH   2   5
BRANCH   1  18
HETATM   18  C   UNL     1       5.619  28.419  55.607  1.00  0.00     0.105 A 
HETATM   19  C   UNL     1       4.882  29.570  55.219  1.00  0.00     0.071 A 
HETATM   20  C   UNL     1       3.838  29.667  54.165  1.00  0.00     0.073 C 
HETATM   21  N   UNL     1       5.219  30.654  55.927  1.00  0.00    -0.170 NA
HETATM   22  N   UNL     1       6.167  30.225  56.787  1.00  0.00    -0.225 N 
HETATM   23  C   UNL     1       6.452  28.867  56.619  1.00  0.00     0.168 A 
HETATM   24  C   UNL     1       6.827  30.969  57.759  1.00  0.00     0.122 A 
HETATM   25  N   UNL     1       7.392  28.218  57.387  1.00  0.00    -0.240 NA
HETATM   26  C   UNL     1       7.986  28.949  58.285  1.00  0.00     0.120 A 
HETATM   27  C   UNL     1       7.748  30.395  58.545  1.00  0.00     0.038 A 
ENDBRANCH   1  18
TORSDOF 6
ENDMDL
