MODEL 1
REMARK VINA RESULT:     -10.5      0.000      0.000
REMARK  5 active torsions:
REMARK  status: ('A' for Active; 'I' for Inactive)
REMARK    1  A    between atoms: C_6  and  N_7 
REMARK       I    between atoms: N_7  and  C_8 
REMARK       I    between atoms: C_8  and  N_9 
REMARK    2  A    between atoms: N_9  and  C_10 
REMARK    3  A    between atoms: C_10  and  C_11 
REMARK    4  A    between atoms: C_14  and  N_15 
REMARK       I    between atoms: N_15  and  C_16 
REMARK    5  A    between atoms: C_16  and  C_17 
ROOT
HETATM    1  C   UNL     1       7.373  29.260  56.442  1.00  0.00    -0.040 A 
HETATM    2  C   UNL     1       6.347  30.192  56.637  1.00  0.00     0.011 A 
HETATM    3  C   UNL     1       6.231  30.884  57.847  1.00  0.00     0.030 A 
HETATM    4  C   UNL     1       7.145  30.669  58.878  1.00  0.00     0.035 A 
HETATM    5  C   UNL     1       8.168  29.734  58.687  1.00  0.00     0.030 A 
HETATM    6  C   UNL     1       8.283  29.035  57.481  1.00  0.00     0.011 A 
ENDROOT
BRANCH   1   7
HETATM    7  C   UNL     1       7.535  28.570  55.113  1.00  0.00     0.162 C 
BRANCH   7   8
HETATM    8  N   UNL     1       6.371  27.765  54.815  1.00  0.00    -0.339 N 
HETATM    9  C   UNL     1       6.299  26.455  54.448  1.00  0.00     0.320 C 
HETATM   10  N   UNL     1       7.429  25.714  54.655  1.00  0.00    -0.309 N 
HETATM   11  O   UNL     1       5.240  26.056  53.976  1.00  0.00    -0.247 OA
HETATM   12  H   UNL     1       8.135  26.134  55.237  1.00  0.00     0.170 HD
HETATM   13  H   UNL     1       5.513  28.257  54.594  1.00  0.00     0.164 HD
BRANCH  10  14
HETATM   14  C   UNL     1       7.637  24.356  54.327  1.00  0.00     0.037 A 
HETATM   15  C   UNL     1       7.634  23.319  55.260  1.00  0.00     0.049 A 
HETATM   16  C   UNL     1       7.856  21.996  54.852  1.00  0.00     0.019 A 
HETATM   17  C   UNL     1       8.083  21.685  53.503  1.00  0.00    -0.044 A 
HETATM   18 BR   UNL     1       7.831  20.650  56.196  1.00  0.00    -0.051 Br
HETATM   19  C   UNL     1       8.334  20.282  53.029  1.00  0.00     0.049 C 
HETATM   20  C   UNL     1       8.070  22.731  52.572  1.00  0.00     0.010 A 
HETATM   21  C   UNL     1       7.845  24.049  52.978  1.00  0.00     0.030 A 
ENDBRANCH  10  14
ENDBRANCH   7   8
ENDBRANCH   1   7
BRANCH   4  22
HETATM   22  N   UNL     1       7.125  31.360  60.103  1.00  0.00    -0.321 N 
HETATM   23  C   UNL     1       7.989  32.346  60.549  1.00  0.00     0.279 C 
HETATM   24  O   UNL     1       8.899  32.845  59.896  1.00  0.00    -0.265 OA
HETATM   25  H   UNL     1       6.409  31.095  60.772  1.00  0.00     0.169 HD
BRANCH  23  26
HETATM   26  C   UNL     1       7.711  32.752  61.916  1.00  0.00     0.142 A 
HETATM   27  O   UNL     1       6.730  33.682  62.159  1.00  0.00    -0.317 OA
HETATM   28  C   UNL     1       6.669  33.856  63.504  1.00  0.00     0.143 A 
HETATM   29  C   UNL     1       7.595  33.061  64.138  1.00  0.00     0.027 A 
HETATM   30  C   UNL     1       8.268  32.350  63.115  1.00  0.00     0.045 A 
ENDBRANCH  23  26
ENDBRANCH   4  22
TORSDOF 5
ENDMDL
MODEL 2
REMARK VINA RESULT:     -10.1      3.597     11.035
REMARK  5 active torsions:
REMARK  status: ('A' for Active; 'I' for Inactive)
REMARK    1  A    between atoms: C_6  and  N_7 
REMARK       I    between atoms: N_7  and  C_8 
REMARK       I    between atoms: C_8  and  N_9 
REMARK    2  A    between atoms: N_9  and  C_10 
REMARK    3  A    between atoms: C_10  and  C_11 
REMARK    4  A    between atoms: C_14  and  N_15 
REMARK       I    between atoms: N_15  and  C_16 
REMARK    5  A    between atoms: C_16  and  C_17 
ROOT
HETATM    1  C   UNL     1       6.609  28.399  57.132  1.00  0.00    -0.040 A 
HETATM    2  C   UNL     1       7.838  27.796  57.425  1.00  0.00     0.011 A 
HETATM    3  C   UNL     1       8.127  26.505  56.970  1.00  0.00     0.030 A 
HETATM    4  C   UNL     1       7.202  25.799  56.202  1.00  0.00     0.035 A 
HETATM    5  C   UNL     1       5.970  26.399  55.912  1.00  0.00     0.030 A 
HETATM    6  C   UNL     1       5.675  27.687  56.371  1.00  0.00     0.011 A 
ENDROOT
BRANCH   1   7
HETATM    7  C   UNL     1       6.332  29.814  57.564  1.00  0.00     0.162 C 
BRANCH   7   8
HETATM    8  N   UNL     1       7.565  30.496  57.888  1.00  0.00    -0.339 N 
HETATM    9  C   UNL     1       7.860  31.282  58.961  1.00  0.00     0.320 C 
HETATM   10  N   UNL     1       6.995  31.201  60.016  1.00  0.00    -0.309 N 
HETATM   11  O   UNL     1       8.867  31.979  58.893  1.00  0.00    -0.247 OA
HETATM   12  H   UNL     1       6.342  30.436  59.998  1.00  0.00     0.170 HD
HETATM   13  H   UNL     1       8.226  30.640  57.134  1.00  0.00     0.164 HD
BRANCH  10  14
HETATM   14  C   UNL     1       7.043  31.934  61.223  1.00  0.00     0.037 A 
HETATM   15  C   UNL     1       6.353  33.128  61.438  1.00  0.00     0.049 A 
HETATM   16  C   UNL     1       6.460  33.799  62.664  1.00  0.00     0.019 A 
HETATM   17  C   UNL     1       7.257  33.289  63.699  1.00  0.00    -0.044 A 
HETATM   18 BR   UNL     1       5.481  35.418  62.864  1.00  0.00    -0.051 Br
HETATM   19  C   UNL     1       7.403  33.983  65.023  1.00  0.00     0.049 C 
HETATM   20  C   UNL     1       7.934  32.083  63.480  1.00  0.00     0.010 A 
HETATM   21  C   UNL     1       7.825  31.412  62.258  1.00  0.00     0.030 A 
ENDBRANCH  10  14
ENDBRANCH   7   8
ENDBRANCH   1   7
BRANCH   4  22
HETATM   22  N   UNL     1       7.436  24.520  55.667  1.00  0.00    -0.321 N 
HETATM   23  C   UNL     1       7.807  24.182  54.376  1.00  0.00     0.279 C 
HETATM   24  O   UNL     1       8.071  24.975  53.479  1.00  0.00    -0.265 OA
HETATM   25  H   UNL     1       7.293  23.727  56.284  1.00  0.00     0.169 HD
BRANCH  23  26
HETATM   26  C   UNL     1       7.856  22.744  54.171  1.00  0.00     0.142 A 
HETATM   27  O   UNL     1       7.755  21.903  55.251  1.00  0.00    -0.317 OA
HETATM   28  C   UNL     1       7.810  20.632  54.774  1.00  0.00     0.143 A 
HETATM   29  C   UNL     1       7.949  20.635  53.406  1.00  0.00     0.027 A 
HETATM   30  C   UNL     1       7.981  21.995  53.016  1.00  0.00     0.045 A 
ENDBRANCH  23  26
ENDBRANCH   4  22
TORSDOF 5
ENDMDL
MODEL 3
REMARK VINA RESULT:     -10.1      1.249      1.915
REMARK  5 active torsions:
REMARK  status: ('A' for Active; 'I' for Inactive)
REMARK    1  A    between atoms: C_6  and  N_7 
REMARK       I    between atoms: N_7  and  C_8 
REMARK       I    between atoms: C_8  and  N_9 
REMARK    2  A    between atoms: N_9  and  C_10 
REMARK    3  A    between atoms: C_10  and  C_11 
REMARK    4  A    between atoms: C_14  and  N_15 
REMARK       I    between atoms: N_15  and  C_16 
REMARK    5  A    between atoms: C_16  and  C_17 
ROOT
HETATM    1  C   UNL     1       7.178  28.926  55.552  1.00  0.00    -0.040 A 
HETATM    2  C   UNL     1       8.242  28.648  56.417  1.00  0.00     0.011 A 
HETATM    3  C   UNL     1       8.310  29.242  57.682  1.00  0.00     0.030 A 
HETATM    4  C   UNL     1       7.309  30.112  58.111  1.00  0.00     0.035 A 
HETATM    5  C   UNL     1       6.246  30.395  57.245  1.00  0.00     0.030 A 
HETATM    6  C   UNL     1       6.179  29.808  55.978  1.00  0.00     0.011 A 
ENDROOT
BRANCH   1   7
HETATM    7  C   UNL     1       7.074  28.229  54.221  1.00  0.00     0.162 C 
BRANCH   7   8
HETATM    8  N   UNL     1       6.024  27.235  54.251  1.00  0.00    -0.339 N 
HETATM    9  C   UNL     1       6.118  25.885  54.412  1.00  0.00     0.320 C 
HETATM   10  N   UNL     1       7.312  25.423  54.890  1.00  0.00    -0.309 N 
HETATM   11  O   UNL     1       5.135  25.211  54.127  1.00  0.00    -0.247 OA
HETATM   12  H   UNL     1       7.937  26.115  55.268  1.00  0.00     0.170 HD
HETATM   13  H   UNL     1       5.128  27.496  53.857  1.00  0.00     0.164 HD
BRANCH  10  14
HETATM   14  C   UNL     1       7.687  24.078  55.106  1.00  0.00     0.037 A 
HETATM   15  C   UNL     1       7.761  23.117  54.097  1.00  0.00     0.049 A 
HETATM   16  C   UNL     1       8.135  21.800  54.397  1.00  0.00     0.019 A 
HETATM   17  C   UNL     1       8.444  21.418  55.710  1.00  0.00    -0.044 A 
HETATM   18 BR   UNL     1       8.209  20.561  52.955  1.00  0.00    -0.051 Br
HETATM   19  C   UNL     1       8.840  20.015  56.073  1.00  0.00     0.049 C 
HETATM   20  C   UNL     1       8.381  22.393  56.715  1.00  0.00     0.010 A 
HETATM   21  C   UNL     1       8.011  23.707  56.415  1.00  0.00     0.030 A 
ENDBRANCH  10  14
ENDBRANCH   7   8
ENDBRANCH   1   7
BRANCH   4  22
HETATM   22  N   UNL     1       7.279  30.710  59.384  1.00  0.00    -0.321 N 
HETATM   23  C   UNL     1       8.024  31.780  59.849  1.00  0.00     0.279 C 
HETATM   24  O   UNL     1       8.804  32.450  59.181  1.00  0.00    -0.265 OA
HETATM   25  H   UNL     1       6.658  30.300  60.073  1.00  0.00     0.169 HD
BRANCH  23  26
HETATM   26  C   UNL     1       7.790  32.050  61.257  1.00  0.00     0.142 A 
HETATM   27  O   UNL     1       6.502  32.092  61.733  1.00  0.00    -0.317 OA
HETATM   28  C   UNL     1       6.577  32.337  63.066  1.00  0.00     0.143 A 
HETATM   29  C   UNL     1       7.888  32.462  63.463  1.00  0.00     0.027 A 
HETATM   30  C   UNL     1       8.669  32.278  62.298  1.00  0.00     0.045 A 
ENDBRANCH  23  26
ENDBRANCH   4  22
TORSDOF 5
ENDMDL
MODEL 4
REMARK VINA RESULT:      -9.3      2.502      3.693
REMARK  5 active torsions:
REMARK  status: ('A' for Active; 'I' for Inactive)
REMARK    1  A    between atoms: C_6  and  N_7 
REMARK       I    between atoms: N_7  and  C_8 
REMARK       I    between atoms: C_8  and  N_9 
REMARK    2  A    between atoms: N_9  and  C_10 
REMARK    3  A    between atoms: C_10  and  C_11 
REMARK    4  A    between atoms: C_14  and  N_15 
REMARK       I    between atoms: N_15  and  C_16 
REMARK    5  A    between atoms: C_16  and  C_17 
ROOT
HETATM    1  C   UNL     1       8.434  30.728  59.527  1.00  0.00    -0.040 A 
HETATM    2  C   UNL     1       7.306  31.548  59.418  1.00  0.00     0.011 A 
HETATM    3  C   UNL     1       6.744  32.146  60.551  1.00  0.00     0.030 A 
HETATM    4  C   UNL     1       7.308  31.947  61.811  1.00  0.00     0.035 A 
HETATM    5  C   UNL     1       8.434  31.123  61.923  1.00  0.00     0.030 A 
HETATM    6  C   UNL     1       8.994  30.519  60.793  1.00  0.00     0.011 A 
ENDROOT
BRANCH   1   7
HETATM    7  C   UNL     1       9.076  30.145  58.296  1.00  0.00     0.162 C 
BRANCH   7   8
HETATM    8  N   UNL     1       8.089  29.939  57.259  1.00  0.00    -0.339 N 
HETATM    9  C   UNL     1       7.758  28.795  56.598  1.00  0.00     0.320 C 
HETATM   10  N   UNL     1       8.198  27.631  57.161  1.00  0.00    -0.309 N 
HETATM   11  O   UNL     1       7.096  28.906  55.571  1.00  0.00    -0.247 OA
HETATM   12  H   UNL     1       8.545  27.697  58.104  1.00  0.00     0.170 HD
HETATM   13  H   UNL     1       7.764  30.760  56.761  1.00  0.00     0.164 HD
BRANCH  10  14
HETATM   14  C   UNL     1       8.034  26.320  56.662  1.00  0.00     0.037 A 
HETATM   15  C   UNL     1       7.463  26.023  55.423  1.00  0.00     0.049 A 
HETATM   16  C   UNL     1       7.330  24.692  55.004  1.00  0.00     0.019 A 
HETATM   17  C   UNL     1       7.763  23.633  55.814  1.00  0.00    -0.044 A 
HETATM   18 BR   UNL     1       6.542  24.387  53.299  1.00  0.00    -0.051 Br
HETATM   19  C   UNL     1       7.629  22.194  55.403  1.00  0.00     0.049 C 
HETATM   20  C   UNL     1       8.347  23.940  57.049  1.00  0.00     0.010 A 
HETATM   21  C   UNL     1       8.484  25.268  57.466  1.00  0.00     0.030 A 
ENDBRANCH  10  14
ENDBRANCH   7   8
ENDBRANCH   1   7
BRANCH   4  22
HETATM   22  N   UNL     1       6.833  32.551  62.989  1.00  0.00    -0.321 N 
HETATM   23  C   UNL     1       5.645  32.314  63.659  1.00  0.00     0.279 C 
HETATM   24  O   UNL     1       4.819  31.456  63.364  1.00  0.00    -0.265 OA
HETATM   25  H   UNL     1       7.408  33.278  63.401  1.00  0.00     0.169 HD
BRANCH  23  26
HETATM   26  C   UNL     1       5.455  33.207  64.789  1.00  0.00     0.142 A 
HETATM   27  O   UNL     1       4.182  33.487  65.223  1.00  0.00    -0.317 OA
HETATM   28  C   UNL     1       4.299  34.319  66.291  1.00  0.00     0.143 A 
HETATM   29  C   UNL     1       5.622  34.588  66.553  1.00  0.00     0.027 A 
HETATM   30  C   UNL     1       6.367  33.873  65.585  1.00  0.00     0.045 A 
ENDBRANCH  23  26
ENDBRANCH   4  22
TORSDOF 5
ENDMDL
MODEL 5
REMARK VINA RESULT:      -9.3      1.808      2.322
REMARK  5 active torsions:
REMARK  status: ('A' for Active; 'I' for Inactive)
REMARK    1  A    between atoms: C_6  and  N_7 
REMARK       I    between atoms: N_7  and  C_8 
REMARK       I    between atoms: C_8  and  N_9 
REMARK    2  A    between atoms: N_9  and  C_10 
REMARK    3  A    between atoms: C_10  and  C_11 
REMARK    4  A    between atoms: C_14  and  N_15 
REMARK       I    between atoms: N_15  and  C_16 
REMARK    5  A    between atoms: C_16  and  C_17 
ROOT
HETATM    1  C   UNL     1       5.865  28.146  54.958  1.00  0.00    -0.040 A 
HETATM    2  C   UNL     1       4.984  28.346  56.027  1.00  0.00     0.011 A 
HETATM    3  C   UNL     1       5.445  28.848  57.249  1.00  0.00     0.030 A 
HETATM    4  C   UNL     1       6.790  29.174  57.419  1.00  0.00     0.035 A 
HETATM    5  C   UNL     1       7.673  28.970  56.352  1.00  0.00     0.030 A 
HETATM    6  C   UNL     1       7.217  28.462  55.132  1.00  0.00     0.011 A 
ENDROOT
BRANCH   1   7
HETATM    7  C   UNL     1       5.351  27.672  53.624  1.00  0.00     0.162 C 
BRANCH   7   8
HETATM    8  N   UNL     1       6.440  27.197  52.801  1.00  0.00    -0.339 N 
HETATM    9  C   UNL     1       7.145  26.034  52.889  1.00  0.00     0.320 C 
HETATM   10  N   UNL     1       6.588  25.056  53.665  1.00  0.00    -0.309 N 
HETATM   11  O   UNL     1       8.200  25.963  52.269  1.00  0.00    -0.247 OA
HETATM   12  H   UNL     1       5.628  25.195  53.933  1.00  0.00     0.170 HD
HETATM   13  H   UNL     1       6.934  27.885  52.245  1.00  0.00     0.164 HD
BRANCH  10  14
HETATM   14  C   UNL     1       7.126  23.784  53.959  1.00  0.00     0.037 A 
HETATM   15  C   UNL     1       7.370  23.319  55.252  1.00  0.00     0.049 A 
HETATM   16  C   UNL     1       7.914  22.044  55.458  1.00  0.00     0.019 A 
HETATM   17  C   UNL     1       8.224  21.208  54.376  1.00  0.00    -0.044 A 
HETATM   18 BR   UNL     1       8.209  21.498  57.256  1.00  0.00    -0.051 Br
HETATM   19  C   UNL     1       8.816  19.839  54.555  1.00  0.00     0.049 C 
HETATM   20  C   UNL     1       7.963  21.676  53.081  1.00  0.00     0.010 A 
HETATM   21  C   UNL     1       7.417  22.947  52.876  1.00  0.00     0.030 A 
ENDBRANCH  10  14
ENDBRANCH   7   8
ENDBRANCH   1   7
BRANCH   4  22
HETATM   22  N   UNL     1       7.322  29.728  58.598  1.00  0.00    -0.321 N 
HETATM   23  C   UNL     1       7.406  31.062  58.959  1.00  0.00     0.279 C 
HETATM   24  O   UNL     1       6.949  32.004  58.320  1.00  0.00    -0.265 OA
HETATM   25  H   UNL     1       7.726  29.085  59.270  1.00  0.00     0.169 HD
BRANCH  23  26
HETATM   26  C   UNL     1       8.114  31.255  60.213  1.00  0.00     0.142 A 
HETATM   27  O   UNL     1       8.885  30.237  60.718  1.00  0.00    -0.317 OA
HETATM   28  C   UNL     1       9.441  30.692  61.871  1.00  0.00     0.143 A 
HETATM   29  C   UNL     1       9.040  31.982  62.126  1.00  0.00     0.027 A 
HETATM   30  C   UNL     1       8.184  32.346  61.059  1.00  0.00     0.045 A 
ENDBRANCH  23  26
ENDBRANCH   4  22
TORSDOF 5
ENDMDL
MODEL 6
REMARK VINA RESULT:      -8.9      4.903      8.698
REMARK  5 active torsions:
REMARK  status: ('A' for Active; 'I' for Inactive)
REMARK    1  A    between atoms: C_6  and  N_7 
REMARK       I    between atoms: N_7  and  C_8 
REMARK       I    between atoms: C_8  and  N_9 
REMARK    2  A    between atoms: N_9  and  C_10 
REMARK    3  A    between atoms: C_10  and  C_11 
REMARK    4  A    between atoms: C_14  and  N_15 
REMARK       I    between atoms: N_15  and  C_16 
REMARK    5  A    between atoms: C_16  and  C_17 
ROOT
HETATM    1  C   UNL     1       5.721  28.185  54.373  1.00  0.00    -0.040 A 
HETATM    2  C   UNL     1       6.392  28.097  53.148  1.00  0.00     0.011 A 
HETATM    3  C   UNL     1       5.679  28.024  51.946  1.00  0.00     0.030 A 
HETATM    4  C   UNL     1       4.285  28.052  51.945  1.00  0.00     0.035 A 
HETATM    5  C   UNL     1       3.612  28.135  53.170  1.00  0.00     0.030 A 
HETATM    6  C   UNL     1       4.321  28.202  54.373  1.00  0.00     0.011 A 
ENDROOT
BRANCH   1   7
HETATM    7  C   UNL     1       6.493  28.335  55.657  1.00  0.00     0.162 C 
BRANCH   7   8
HETATM    8  N   UNL     1       6.235  27.217  56.537  1.00  0.00    -0.339 N 
HETATM    9  C   UNL     1       6.414  25.885  56.315  1.00  0.00     0.320 C 
HETATM   10  N   UNL     1       7.196  25.558  55.243  1.00  0.00    -0.309 N 
HETATM   11  O   UNL     1       5.871  25.104  57.089  1.00  0.00    -0.247 OA
HETATM   12  H   UNL     1       7.730  26.308  54.838  1.00  0.00     0.170 HD
HETATM   13  H   UNL     1       5.613  27.379  57.320  1.00  0.00     0.164 HD
BRANCH  10  14
HETATM   14  C   UNL     1       7.503  24.264  54.768  1.00  0.00     0.037 A 
HETATM   15  C   UNL     1       7.845  23.191  55.592  1.00  0.00     0.049 A 
HETATM   16  C   UNL     1       8.143  21.938  55.039  1.00  0.00     0.019 A 
HETATM   17  C   UNL     1       8.105  21.732  53.653  1.00  0.00    -0.044 A 
HETATM   18 BR   UNL     1       8.597  20.536  56.243  1.00  0.00    -0.051 Br
HETATM   19  C   UNL     1       8.426  20.407  53.023  1.00  0.00     0.049 C 
HETATM   20  C   UNL     1       7.746  22.810  52.834  1.00  0.00     0.010 A 
HETATM   21  C   UNL     1       7.445  24.060  53.385  1.00  0.00     0.030 A 
ENDBRANCH  10  14
ENDBRANCH   7   8
ENDBRANCH   1   7
BRANCH   4  22
HETATM   22  N   UNL     1       3.499  28.032  50.779  1.00  0.00    -0.321 N 
HETATM   23  C   UNL     1       3.117  29.097  49.981  1.00  0.00     0.279 C 
HETATM   24  O   UNL     1       3.475  30.261  50.125  1.00  0.00    -0.265 OA
HETATM   25  H   UNL     1       3.131  27.134  50.484  1.00  0.00     0.169 HD
BRANCH  23  26
HETATM   26  C   UNL     1       2.216  28.697  48.913  1.00  0.00     0.142 A 
HETATM   27  O   UNL     1       2.031  27.362  48.650  1.00  0.00    -0.317 OA
HETATM   28  C   UNL     1       1.135  27.277  47.633  1.00  0.00     0.143 A 
HETATM   29  C   UNL     1       0.741  28.530  47.228  1.00  0.00     0.027 A 
HETATM   30  C   UNL     1       1.438  29.446  48.052  1.00  0.00     0.045 A 
ENDBRANCH  23  26
ENDBRANCH   4  22
TORSDOF 5
ENDMDL
MODEL 7
REMARK VINA RESULT:      -8.7      1.714      1.983
REMARK  5 active torsions:
REMARK  status: ('A' for Active; 'I' for Inactive)
REMARK    1  A    between atoms: C_6  and  N_7 
REMARK       I    between atoms: N_7  and  C_8 
REMARK       I    between atoms: C_8  and  N_9 
REMARK    2  A    between atoms: N_9  and  C_10 
REMARK    3  A    between atoms: C_10  and  C_11 
REMARK    4  A    between atoms: C_14  and  N_15 
REMARK       I    between atoms: N_15  and  C_16 
REMARK    5  A    between atoms: C_16  and  C_17 
ROOT
HETATM    1  C   UNL     1       7.163  29.825  57.600  1.00  0.00    -0.040 A 
HETATM    2  C   UNL     1       5.976  30.554  57.466  1.00  0.00     0.011 A 
HETATM    3  C   UNL     1       5.628  31.534  58.402  1.00  0.00     0.030 A 
HETATM    4  C   UNL     1       6.467  31.814  59.480  1.00  0.00     0.035 A 
HETATM    5  C   UNL     1       7.653  31.084  59.619  1.00  0.00     0.030 A 
HETATM    6  C   UNL     1       8.000  30.099  58.689  1.00  0.00     0.011 A 
ENDROOT
BRANCH   1   7
HETATM    7  C   UNL     1       7.566  28.823  56.553  1.00  0.00     0.162 C 
BRANCH   7   8
HETATM    8  N   UNL     1       6.402  28.146  56.024  1.00  0.00    -0.339 N 
HETATM    9  C   UNL     1       6.315  26.938  55.400  1.00  0.00     0.320 C 
HETATM   10  N   UNL     1       7.402  26.120  55.529  1.00  0.00    -0.309 N 
HETATM   11  O   UNL     1       5.281  26.689  54.790  1.00  0.00    -0.247 OA
HETATM   12  H   UNL     1       8.077  26.384  56.228  1.00  0.00     0.170 HD
HETATM   13  H   UNL     1       5.579  28.711  55.850  1.00  0.00     0.164 HD
BRANCH  10  14
HETATM   14  C   UNL     1       7.589  24.845  54.952  1.00  0.00     0.037 A 
HETATM   15  C   UNL     1       7.627  23.655  55.681  1.00  0.00     0.049 A 
HETATM   16  C   UNL     1       7.824  22.429  55.031  1.00  0.00     0.019 A 
HETATM   17  C   UNL     1       7.988  22.368  53.639  1.00  0.00    -0.044 A 
HETATM   18 BR   UNL     1       7.858  20.862  56.109  1.00  0.00    -0.051 Br
HETATM   19  C   UNL     1       8.210  21.075  52.908  1.00  0.00     0.049 C 
HETATM   20  C   UNL     1       7.935  23.565  52.913  1.00  0.00     0.010 A 
HETATM   21  C   UNL     1       7.734  24.787  53.562  1.00  0.00     0.030 A 
ENDBRANCH  10  14
ENDBRANCH   7   8
ENDBRANCH   1   7
BRANCH   4  22
HETATM   22  N   UNL     1       6.213  32.816  60.434  1.00  0.00    -0.321 N 
HETATM   23  C   UNL     1       5.384  32.759  61.542  1.00  0.00     0.279 C 
HETATM   24  O   UNL     1       4.773  31.767  61.925  1.00  0.00    -0.265 OA
HETATM   25  H   UNL     1       6.664  33.714  60.293  1.00  0.00     0.169 HD
BRANCH  23  26
HETATM   26  C   UNL     1       5.299  34.031  62.239  1.00  0.00     0.142 A 
HETATM   27  O   UNL     1       4.315  34.223  63.178  1.00  0.00    -0.317 OA
HETATM   28  C   UNL     1       4.481  35.474  63.679  1.00  0.00     0.143 A 
HETATM   29  C   UNL     1       5.549  36.098  63.080  1.00  0.00     0.027 A 
HETATM   30  C   UNL     1       6.076  35.170  62.151  1.00  0.00     0.045 A 
ENDBRANCH  23  26
ENDBRANCH   4  22
TORSDOF 5
ENDMDL
MODEL 8
REMARK VINA RESULT:      -8.7      4.131      7.732
REMARK  5 active torsions:
REMARK  status: ('A' for Active; 'I' for Inactive)
REMARK    1  A    between atoms: C_6  and  N_7 
REMARK       I    between atoms: N_7  and  C_8 
REMARK       I    between atoms: C_8  and  N_9 
REMARK    2  A    between atoms: N_9  and  C_10 
REMARK    3  A    between atoms: C_10  and  C_11 
REMARK    4  A    between atoms: C_14  and  N_15 
REMARK       I    between atoms: N_15  and  C_16 
REMARK    5  A    between atoms: C_16  and  C_17 
ROOT
HETATM    1  C   UNL     1       5.948  33.064  63.031  1.00  0.00    -0.040 A 
HETATM    2  C   UNL     1       4.835  33.251  63.859  1.00  0.00     0.011 A 
HETATM    3  C   UNL     1       4.995  33.604  65.203  1.00  0.00     0.030 A 
HETATM    4  C   UNL     1       6.268  33.791  65.741  1.00  0.00     0.035 A 
HETATM    5  C   UNL     1       7.382  33.600  64.916  1.00  0.00     0.030 A 
HETATM    6  C   UNL     1       7.226  33.240  63.573  1.00  0.00     0.011 A 
ENDROOT
BRANCH   1   7
HETATM    7  C   UNL     1       5.768  32.754  61.569  1.00  0.00     0.162 C 
BRANCH   7   8
HETATM    8  N   UNL     1       7.051  32.665  60.908  1.00  0.00    -0.339 N 
HETATM    9  C   UNL     1       7.430  31.881  59.860  1.00  0.00     0.320 C 
HETATM   10  N   UNL     1       6.415  31.307  59.147  1.00  0.00    -0.309 N 
HETATM   11  O   UNL     1       8.631  31.764  59.645  1.00  0.00    -0.247 OA
HETATM   12  H   UNL     1       5.491  31.666  59.322  1.00  0.00     0.170 HD
HETATM   13  H   UNL     1       7.856  33.020  61.411  1.00  0.00     0.164 HD
BRANCH  10  14
HETATM   14  C   UNL     1       6.529  30.423  58.051  1.00  0.00     0.037 A 
HETATM   15  C   UNL     1       7.225  29.214  58.094  1.00  0.00     0.049 A 
HETATM   16  C   UNL     1       7.297  28.396  56.958  1.00  0.00     0.019 A 
HETATM   17  C   UNL     1       6.675  28.770  55.758  1.00  0.00    -0.044 A 
HETATM   18 BR   UNL     1       8.266  26.766  57.113  1.00  0.00    -0.051 Br
HETATM   19  C   UNL     1       6.738  27.925  54.517  1.00  0.00     0.049 C 
HETATM   20  C   UNL     1       5.967  29.979  55.728  1.00  0.00     0.010 A 
HETATM   21  C   UNL     1       5.892  30.793  56.862  1.00  0.00     0.030 A 
ENDBRANCH  10  14
ENDBRANCH   7   8
ENDBRANCH   1   7
BRANCH   4  22
HETATM   22  N   UNL     1       6.510  34.193  67.067  1.00  0.00    -0.321 N 
HETATM   23  C   UNL     1       5.617  34.259  68.123  1.00  0.00     0.279 C 
HETATM   24  O   UNL     1       4.446  33.896  68.090  1.00  0.00    -0.265 OA
HETATM   25  H   UNL     1       7.449  34.506  67.291  1.00  0.00     0.169 HD
BRANCH  23  26
HETATM   26  C   UNL     1       6.214  34.822  69.322  1.00  0.00     0.142 A 
HETATM   27  O   UNL     1       5.616  34.608  70.539  1.00  0.00    -0.317 OA
HETATM   28  C   UNL     1       6.387  35.219  71.476  1.00  0.00     0.143 A 
HETATM   29  C   UNL     1       7.470  35.829  70.888  1.00  0.00     0.027 A 
HETATM   30  C   UNL     1       7.359  35.575  69.500  1.00  0.00     0.045 A 
ENDBRANCH  23  26
ENDBRANCH   4  22
TORSDOF 5
ENDMDL
MODEL 9
REMARK VINA RESULT:      -8.7      3.849     11.302
REMARK  5 active torsions:
REMARK  status: ('A' for Active; 'I' for Inactive)
REMARK    1  A    between atoms: C_6  and  N_7 
REMARK       I    between atoms: N_7  and  C_8 
REMARK       I    between atoms: C_8  and  N_9 
REMARK    2  A    between atoms: N_9  and  C_10 
REMARK    3  A    between atoms: C_10  and  C_11 
REMARK    4  A    between atoms: C_14  and  N_15 
REMARK       I    between atoms: N_15  and  C_16 
REMARK    5  A    between atoms: C_16  and  C_17 
ROOT
HETATM    1  C   UNL     1       7.545  30.202  58.047  1.00  0.00    -0.040 A 
HETATM    2  C   UNL     1       8.726  29.463  57.913  1.00  0.00     0.011 A 
HETATM    3  C   UNL     1       8.757  28.300  57.137  1.00  0.00     0.030 A 
HETATM    4  C   UNL     1       7.614  27.861  56.470  1.00  0.00     0.035 A 
HETATM    5  C   UNL     1       6.430  28.596  56.607  1.00  0.00     0.030 A 
HETATM    6  C   UNL     1       6.394  29.756  57.387  1.00  0.00     0.011 A 
ENDROOT
BRANCH   1   7
HETATM    7  C   UNL     1       7.535  31.491  58.825  1.00  0.00     0.162 C 
BRANCH   7   8
HETATM    8  N   UNL     1       6.196  31.804  59.271  1.00  0.00    -0.339 N 
HETATM    9  C   UNL     1       5.773  32.242  60.490  1.00  0.00     0.320 C 
HETATM   10  N   UNL     1       6.744  32.724  61.322  1.00  0.00    -0.309 N 
HETATM   11  O   UNL     1       4.572  32.175  60.730  1.00  0.00    -0.247 OA
HETATM   12  H   UNL     1       7.641  32.902  60.901  1.00  0.00     0.170 HD
HETATM   13  H   UNL     1       5.428  31.426  58.729  1.00  0.00     0.164 HD
BRANCH  10  14
HETATM   14  C   UNL     1       6.586  33.195  62.644  1.00  0.00     0.037 A 
HETATM   15  C   UNL     1       5.577  34.072  63.044  1.00  0.00     0.049 A 
HETATM   16  C   UNL     1       5.493  34.498  64.377  1.00  0.00     0.019 A 
HETATM   17  C   UNL     1       6.416  34.055  65.336  1.00  0.00    -0.044 A 
HETATM   18 BR   UNL     1       4.082  35.692  64.827  1.00  0.00    -0.051 Br
HETATM   19  C   UNL     1       6.365  34.496  66.771  1.00  0.00     0.049 C 
HETATM   20  C   UNL     1       7.417  33.164  64.928  1.00  0.00     0.010 A 
HETATM   21  C   UNL     1       7.498  32.736  63.600  1.00  0.00     0.030 A 
ENDBRANCH  10  14
ENDBRANCH   7   8
ENDBRANCH   1   7
BRANCH   4  22
HETATM   22  N   UNL     1       7.576  26.731  55.633  1.00  0.00    -0.321 N 
HETATM   23  C   UNL     1       7.492  25.397  55.993  1.00  0.00     0.279 C 
HETATM   24  O   UNL     1       7.358  24.973  57.136  1.00  0.00    -0.265 OA
HETATM   25  H   UNL     1       7.648  26.893  54.634  1.00  0.00     0.169 HD
BRANCH  23  26
HETATM   26  C   UNL     1       7.581  24.506  54.849  1.00  0.00     0.142 A 
HETATM   27  O   UNL     1       7.409  23.155  55.029  1.00  0.00    -0.317 OA
HETATM   28  C   UNL     1       7.521  22.572  53.807  1.00  0.00     0.143 A 
HETATM   29  C   UNL     1       7.767  23.519  52.840  1.00  0.00     0.027 A 
HETATM   30  C   UNL     1       7.807  24.764  53.510  1.00  0.00     0.045 A 
ENDBRANCH  23  26
ENDBRANCH   4  22
TORSDOF 5
ENDMDL
MODEL 10
REMARK VINA RESULT:      -8.4      1.532      2.066
REMARK  5 active torsions:
REMARK  status: ('A' for Active; 'I' for Inactive)
REMARK    1  A    between atoms: C_6  and  N_7 
REMARK       I    between atoms: N_7  and  C_8 
REMARK       I    between atoms: C_8  and  N_9 
REMARK    2  A    between atoms: N_9  and  C_10 
REMARK    3  A    between atoms: C_10  and  C_11 
REMARK    4  A    between atoms: C_14  and  N_15 
REMARK       I    between atoms: N_15  and  C_16 
REMARK    5  A    between atoms: C_16  and  C_17 
ROOT
HETATM    1  C   UNL     1       7.374  29.642  56.962  1.00  0.00    -0.040 A 
HETATM    2  C   UNL     1       6.101  30.201  57.124  1.00  0.00     0.011 A 
HETATM    3  C   UNL     1       5.843  31.104  58.161  1.00  0.00     0.030 A 
HETATM    4  C   UNL     1       6.854  31.475  59.046  1.00  0.00     0.035 A 
HETATM    5  C   UNL     1       8.127  30.913  58.889  1.00  0.00     0.030 A 
HETATM    6  C   UNL     1       8.386  30.006  57.857  1.00  0.00     0.011 A 
ENDROOT
BRANCH   1   7
HETATM    7  C   UNL     1       7.664  28.727  55.802  1.00  0.00     0.162 C 
BRANCH   7   8
HETATM    8  N   UNL     1       6.534  27.862  55.544  1.00  0.00    -0.339 N 
HETATM    9  C   UNL     1       6.496  26.506  55.416  1.00  0.00     0.320 C 
HETATM   10  N   UNL     1       7.599  25.833  55.861  1.00  0.00    -0.309 N 
HETATM   11  O   UNL     1       5.487  26.012  54.924  1.00  0.00    -0.247 OA
HETATM   12  H   UNL     1       8.246  26.363  56.422  1.00  0.00     0.170 HD
HETATM   13  H   UNL     1       5.702  28.292  55.156  1.00  0.00     0.164 HD
BRANCH  10  14
HETATM   14  C   UNL     1       7.836  24.442  55.806  1.00  0.00     0.037 A 
HETATM   15  C   UNL     1       7.854  23.700  54.624  1.00  0.00     0.049 A 
HETATM   16  C   UNL     1       8.089  22.319  54.656  1.00  0.00     0.019 A 
HETATM   17  C   UNL     1       8.312  21.652  55.870  1.00  0.00    -0.044 A 
HETATM   18 BR   UNL     1       8.097  21.393  52.994  1.00  0.00    -0.051 Br
HETATM   19  C   UNL     1       8.559  20.172  55.946  1.00  0.00     0.049 C 
HETATM   20  C   UNL     1       8.306  22.407  57.050  1.00  0.00     0.010 A 
HETATM   21  C   UNL     1       8.075  23.786  57.018  1.00  0.00     0.030 A 
ENDBRANCH  10  14
ENDBRANCH   7   8
ENDBRANCH   1   7
BRANCH   4  22
HETATM   22  N   UNL     1       6.688  32.412  60.082  1.00  0.00    -0.321 N 
HETATM   23  C   UNL     1       6.802  32.214  61.447  1.00  0.00     0.279 C 
HETATM   24  O   UNL     1       7.151  31.171  61.990  1.00  0.00    -0.265 OA
HETATM   25  H   UNL     1       6.421  33.354  59.815  1.00  0.00     0.169 HD
BRANCH  23  26
HETATM   26  C   UNL     1       6.457  33.400  62.212  1.00  0.00     0.142 A 
HETATM   27  O   UNL     1       6.914  33.530  63.501  1.00  0.00    -0.317 OA
HETATM   28  C   UNL     1       6.466  34.726  63.964  1.00  0.00     0.143 A 
HETATM   29  C   UNL     1       5.723  35.370  63.002  1.00  0.00     0.027 A 
HETATM   30  C   UNL     1       5.716  34.516  61.874  1.00  0.00     0.045 A 
ENDBRANCH  23  26
ENDBRANCH   4  22
TORSDOF 5
ENDMDL
