MODEL 1
REMARK VINA RESULT:      -9.1      0.000      0.000
REMARK  4 active torsions:
REMARK  status: ('A' for Active; 'I' for Inactive)
REMARK    1  A    between atoms: O_2  and  C_3 
REMARK    2  A    between atoms: C_4  and  C_5 
REMARK    3  A    between atoms: C_9  and  N_10 
REMARK    4  A    between atoms: C_13  and  C_14 
ROOT
HETATM    1  C   UNL     1       5.595  27.176  51.192  1.00  0.00     0.167 C 
HETATM    2  N   UNL     1       4.797  27.820  52.239  1.00  0.00    -0.074 N 
HETATM    3  C   UNL     1       4.735  27.382  53.539  1.00  0.00     0.736 A 
HETATM    4  N   UNL     1       4.040  28.235  54.245  1.00  0.00     0.131 NA
HETATM    5  C   UNL     1       3.764  29.222  53.349  1.00  0.00     0.753 A 
HETATM    6  N   UNL     1       4.227  29.034  52.116  1.00  0.00     0.037 NA
HETATM    7  N   UNL     1       5.363  26.254  53.932  1.00  0.00    -0.214 N 
HETATM    8  C   UNL     1       6.495  25.817  53.122  1.00  0.00     0.135 C 
HETATM    9  C   UNL     1       6.061  25.776  51.650  1.00  0.00     0.063 C 
HETATM   10  H   UNL     1       5.485  26.151  54.936  1.00  0.00     0.178 HD
ENDROOT
BRANCH   1  11
HETATM   11  C   UNL     1       4.900  27.073  49.835  1.00  0.00     0.001 A 
HETATM   12  C   UNL     1       5.125  28.069  48.862  1.00  0.00     0.076 A 
HETATM   13  C   UNL     1       4.495  27.997  47.615  1.00  0.00     0.037 A 
HETATM   14  C   UNL     1       3.671  26.917  47.304  1.00  0.00     0.003 A 
HETATM   15  C   UNL     1       3.474  25.905  48.237  1.00  0.00     0.001 A 
HETATM   16  C   UNL     1       4.085  25.978  49.490  1.00  0.00     0.012 A 
BRANCH  12  17
HETATM   17  O   UNL     1       5.957  29.101  49.222  1.00  0.00    -0.355 OA
HETATM   18  C   UNL     1       5.410  30.407  49.048  1.00  0.00     0.210 C 
ENDBRANCH  12  17
ENDBRANCH   1  11
BRANCH   8  19
HETATM   19  C   UNL     1       6.992  24.473  53.618  1.00  0.00    -0.035 A 
HETATM   20  C   UNL     1       7.567  23.534  52.745  1.00  0.00     0.010 A 
HETATM   21  C   UNL     1       8.038  22.309  53.223  1.00  0.00     0.019 A 
HETATM   22  C   UNL     1       7.928  22.007  54.578  1.00  0.00     0.011 A 
HETATM   23 BR   UNL     1       8.567  20.351  55.227  1.00  0.00    -0.051 Br
HETATM   24  C   UNL     1       7.348  22.918  55.459  1.00  0.00     0.019 A 
HETATM   25  C   UNL     1       6.882  24.144  54.979  1.00  0.00     0.010 A 
ENDBRANCH   8  19
BRANCH   5  26
HETATM   26  N   UNL     1       3.062  30.275  53.759  1.00  0.00    -0.229 N 
HETATM   27  H   UNL     1       2.063  30.237  53.613  1.00  0.00     0.174 HD
HETATM   28  H   UNL     1       3.482  31.183  53.617  1.00  0.00     0.174 HD
ENDBRANCH   5  26
TORSDOF 4
ENDMDL
MODEL 2
REMARK VINA RESULT:      -8.9      4.503      6.615
REMARK  4 active torsions:
REMARK  status: ('A' for Active; 'I' for Inactive)
REMARK    1  A    between atoms: O_2  and  C_3 
REMARK    2  A    between atoms: C_4  and  C_5 
REMARK    3  A    between atoms: C_9  and  N_10 
REMARK    4  A    between atoms: C_13  and  C_14 
ROOT
HETATM    1  C   UNL     1       7.437  28.314  56.768  1.00  0.00     0.167 C 
HETATM    2  N   UNL     1       6.448  28.937  55.884  1.00  0.00    -0.074 N 
HETATM    3  C   UNL     1       5.816  28.284  54.853  1.00  0.00     0.736 A 
HETATM    4  N   UNL     1       4.911  29.074  54.338  1.00  0.00     0.131 NA
HETATM    5  C   UNL     1       4.971  30.174  55.139  1.00  0.00     0.753 A 
HETATM    6  N   UNL     1       5.873  30.132  56.116  1.00  0.00     0.037 NA
HETATM    7  N   UNL     1       6.128  27.011  54.531  1.00  0.00    -0.214 N 
HETATM    8  C   UNL     1       6.733  26.198  55.579  1.00  0.00     0.135 C 
HETATM    9  C   UNL     1       7.918  26.968  56.179  1.00  0.00     0.063 C 
HETATM   10  H   UNL     1       5.446  26.530  53.950  1.00  0.00     0.178 HD
ENDROOT
BRANCH   1  11
HETATM   11  C   UNL     1       8.640  29.195  57.098  1.00  0.00     0.001 A 
HETATM   12  C   UNL     1       8.575  30.074  58.198  1.00  0.00     0.076 A 
HETATM   13  C   UNL     1       9.664  30.894  58.516  1.00  0.00     0.037 A 
HETATM   14  C   UNL     1      10.842  30.819  57.774  1.00  0.00     0.003 A 
HETATM   15  C   UNL     1      10.936  29.925  56.713  1.00  0.00     0.001 A 
HETATM   16  C   UNL     1       9.848  29.116  56.380  1.00  0.00     0.012 A 
BRANCH  12  17
HETATM   17  O   UNL     1       7.395  30.095  58.899  1.00  0.00    -0.355 OA
HETATM   18  C   UNL     1       6.963  31.387  59.321  1.00  0.00     0.210 C 
ENDBRANCH  12  17
ENDBRANCH   1  11
BRANCH   8  19
HETATM   19  C   UNL     1       7.142  24.852  55.014  1.00  0.00    -0.035 A 
HETATM   20  C   UNL     1       7.251  23.713  55.829  1.00  0.00     0.010 A 
HETATM   21  C   UNL     1       7.611  22.478  55.287  1.00  0.00     0.019 A 
HETATM   22  C   UNL     1       7.876  22.371  53.924  1.00  0.00     0.011 A 
HETATM   23 BR   UNL     1       8.361  20.699  53.188  1.00  0.00    -0.051 Br
HETATM   24  C   UNL     1       7.789  23.491  53.099  1.00  0.00     0.019 A 
HETATM   25  C   UNL     1       7.424  24.725  53.643  1.00  0.00     0.010 A 
ENDBRANCH   8  19
BRANCH   5  26
HETATM   26  N   UNL     1       4.150  31.189  54.887  1.00  0.00    -0.229 N 
HETATM   27  H   UNL     1       4.259  32.012  55.463  1.00  0.00     0.174 HD
HETATM   28  H   UNL     1       3.196  30.953  54.652  1.00  0.00     0.174 HD
ENDBRANCH   5  26
TORSDOF 4
ENDMDL
MODEL 3
REMARK VINA RESULT:      -8.5      4.781      6.978
REMARK  4 active torsions:
REMARK  status: ('A' for Active; 'I' for Inactive)
REMARK    1  A    between atoms: O_2  and  C_3 
REMARK    2  A    between atoms: C_4  and  C_5 
REMARK    3  A    between atoms: C_9  and  N_10 
REMARK    4  A    between atoms: C_13  and  C_14 
ROOT
HETATM    1  C   UNL     1       7.243  26.976  54.909  1.00  0.00     0.167 C 
HETATM    2  N   UNL     1       5.885  27.438  54.611  1.00  0.00    -0.074 N 
HETATM    3  C   UNL     1       5.295  28.529  55.201  1.00  0.00     0.736 A 
HETATM    4  N   UNL     1       4.136  28.747  54.636  1.00  0.00     0.131 NA
HETATM    5  C   UNL     1       4.095  27.810  53.650  1.00  0.00     0.753 A 
HETATM    6  N   UNL     1       5.149  27.002  53.571  1.00  0.00     0.037 NA
HETATM    7  N   UNL     1       5.918  29.223  56.176  1.00  0.00    -0.214 N 
HETATM    8  C   UNL     1       7.373  29.132  56.221  1.00  0.00     0.135 C 
HETATM    9  C   UNL     1       7.774  27.650  56.195  1.00  0.00     0.063 C 
HETATM   10  H   UNL     1       5.538  30.148  56.364  1.00  0.00     0.178 HD
ENDROOT
BRANCH   1  11
HETATM   11  C   UNL     1       7.389  25.460  55.021  1.00  0.00     0.001 A 
HETATM   12  C   UNL     1       7.842  24.722  53.907  1.00  0.00     0.076 A 
HETATM   13  C   UNL     1       7.979  23.332  53.985  1.00  0.00     0.037 A 
HETATM   14  C   UNL     1       7.711  22.664  55.179  1.00  0.00     0.003 A 
HETATM   15  C   UNL     1       7.306  23.383  56.299  1.00  0.00     0.001 A 
HETATM   16  C   UNL     1       7.151  24.768  56.223  1.00  0.00     0.012 A 
BRANCH  12  17
HETATM   17  O   UNL     1       8.102  25.436  52.763  1.00  0.00    -0.355 OA
HETATM   18  C   UNL     1       7.310  25.078  51.632  1.00  0.00     0.210 C 
ENDBRANCH  12  17
ENDBRANCH   1  11
BRANCH   8  19
HETATM   19  C   UNL     1       7.896  29.852  57.448  1.00  0.00    -0.035 A 
HETATM   20  C   UNL     1       7.036  30.546  58.317  1.00  0.00     0.010 A 
HETATM   21  C   UNL     1       7.534  31.187  59.453  1.00  0.00     0.019 A 
HETATM   22  C   UNL     1       8.899  31.151  59.726  1.00  0.00     0.011 A 
HETATM   23 BR   UNL     1       9.574  32.017  61.264  1.00  0.00    -0.051 Br
HETATM   24  C   UNL     1       9.771  30.482  58.870  1.00  0.00     0.019 A 
HETATM   25  C   UNL     1       9.271  29.837  57.736  1.00  0.00     0.010 A 
ENDBRANCH   8  19
BRANCH   5  26
HETATM   26  N   UNL     1       3.026  27.765  52.860  1.00  0.00    -0.229 N 
HETATM   27  H   UNL     1       2.239  27.227  53.194  1.00  0.00     0.174 HD
HETATM   28  H   UNL     1       3.198  27.700  51.866  1.00  0.00     0.174 HD
ENDBRANCH   5  26
TORSDOF 4
ENDMDL
MODEL 4
REMARK VINA RESULT:      -8.3      4.770      6.749
REMARK  4 active torsions:
REMARK  status: ('A' for Active; 'I' for Inactive)
REMARK    1  A    between atoms: O_2  and  C_3 
REMARK    2  A    between atoms: C_4  and  C_5 
REMARK    3  A    between atoms: C_9  and  N_10 
REMARK    4  A    between atoms: C_13  and  C_14 
ROOT
HETATM    1  C   UNL     1       7.105  27.427  54.206  1.00  0.00     0.167 C 
HETATM    2  N   UNL     1       5.707  27.846  54.073  1.00  0.00    -0.074 N 
HETATM    3  C   UNL     1       5.107  28.794  54.866  1.00  0.00     0.736 A 
HETATM    4  N   UNL     1       3.900  29.025  54.418  1.00  0.00     0.131 NA
HETATM    5  C   UNL     1       3.835  28.251  53.300  1.00  0.00     0.753 A 
HETATM    6  N   UNL     1       4.920  27.532  53.026  1.00  0.00     0.037 NA
HETATM    7  N   UNL     1       5.764  29.365  55.897  1.00  0.00    -0.214 N 
HETATM    8  C   UNL     1       7.220  29.357  55.833  1.00  0.00     0.135 C 
HETATM    9  C   UNL     1       7.694  27.925  55.546  1.00  0.00     0.063 C 
HETATM   10  H   UNL     1       5.352  30.224  56.253  1.00  0.00     0.178 HD
ENDROOT
BRANCH   1  11
HETATM   11  C   UNL     1       7.335  25.924  54.066  1.00  0.00     0.001 A 
HETATM   12  C   UNL     1       7.029  25.071  55.147  1.00  0.00     0.076 A 
HETATM   13  C   UNL     1       7.237  23.691  55.042  1.00  0.00     0.037 A 
HETATM   14  C   UNL     1       7.708  23.139  53.852  1.00  0.00     0.003 A 
HETATM   15  C   UNL     1       7.973  23.962  52.763  1.00  0.00     0.001 A 
HETATM   16  C   UNL     1       7.784  25.341  52.865  1.00  0.00     0.012 A 
BRANCH  12  17
HETATM   17  O   UNL     1       6.557  25.671  56.288  1.00  0.00    -0.355 OA
HETATM   18  C   UNL     1       5.253  25.259  56.693  1.00  0.00     0.210 C 
ENDBRANCH  12  17
ENDBRANCH   1  11
BRANCH   8  19
HETATM   19  C   UNL     1       7.795  29.909  57.123  1.00  0.00    -0.035 A 
HETATM   20  C   UNL     1       9.166  29.819  57.417  1.00  0.00     0.010 A 
HETATM   21  C   UNL     1       9.680  30.351  58.602  1.00  0.00     0.019 A 
HETATM   22  C   UNL     1       8.824  30.969  59.510  1.00  0.00     0.011 A 
HETATM   23 BR   UNL     1       9.518  31.691  61.113  1.00  0.00    -0.051 Br
HETATM   24  C   UNL     1       7.459  31.056  59.246  1.00  0.00     0.019 A 
HETATM   25  C   UNL     1       6.948  30.527  58.059  1.00  0.00     0.010 A 
ENDBRANCH   8  19
BRANCH   5  26
HETATM   26  N   UNL     1       2.714  28.264  52.584  1.00  0.00    -0.229 N 
HETATM   27  H   UNL     1       2.026  27.560  52.809  1.00  0.00     0.174 HD
HETATM   28  H   UNL     1       2.808  28.473  51.599  1.00  0.00     0.174 HD
ENDBRANCH   5  26
TORSDOF 4
ENDMDL
MODEL 5
REMARK VINA RESULT:      -7.9      4.666      7.585
REMARK  4 active torsions:
REMARK  status: ('A' for Active; 'I' for Inactive)
REMARK    1  A    between atoms: O_2  and  C_3 
REMARK    2  A    between atoms: C_4  and  C_5 
REMARK    3  A    between atoms: C_9  and  N_10 
REMARK    4  A    between atoms: C_13  and  C_14 
ROOT
HETATM    1  C   UNL     1       7.803  27.786  55.516  1.00  0.00     0.167 C 
HETATM    2  N   UNL     1       7.646  26.404  55.977  1.00  0.00    -0.074 N 
HETATM    3  C   UNL     1       7.014  25.419  55.258  1.00  0.00     0.736 A 
HETATM    4  N   UNL     1       7.147  24.279  55.884  1.00  0.00     0.131 NA
HETATM    5  C   UNL     1       7.937  24.603  56.945  1.00  0.00     0.753 A 
HETATM    6  N   UNL     1       8.295  25.881  57.035  1.00  0.00     0.037 NA
HETATM    7  N   UNL     1       6.415  25.685  54.078  1.00  0.00    -0.214 N 
HETATM    8  C   UNL     1       6.885  26.859  53.352  1.00  0.00     0.135 C 
HETATM    9  C   UNL     1       6.882  28.062  54.307  1.00  0.00     0.063 C 
HETATM   10  H   UNL     1       6.212  24.873  53.500  1.00  0.00     0.178 HD
ENDROOT
BRANCH   1  11
HETATM   11  C   UNL     1       7.577  28.846  56.593  1.00  0.00     0.001 A 
HETATM   12  C   UNL     1       8.680  29.351  57.312  1.00  0.00     0.076 A 
HETATM   13  C   UNL     1       8.495  30.319  58.306  1.00  0.00     0.037 A 
HETATM   14  C   UNL     1       7.223  30.826  58.566  1.00  0.00     0.003 A 
HETATM   15  C   UNL     1       6.132  30.369  57.836  1.00  0.00     0.001 A 
HETATM   16  C   UNL     1       6.306  29.392  56.854  1.00  0.00     0.012 A 
BRANCH  12  17
HETATM   17  O   UNL     1       9.909  28.823  57.003  1.00  0.00    -0.355 OA
HETATM   18  C   UNL     1      10.986  29.757  56.999  1.00  0.00     0.210 C 
ENDBRANCH  12  17
ENDBRANCH   1  11
BRANCH   8  19
HETATM   19  C   UNL     1       6.019  27.088  52.129  1.00  0.00    -0.035 A 
HETATM   20  C   UNL     1       5.587  28.374  51.763  1.00  0.00     0.010 A 
HETATM   21  C   UNL     1       4.806  28.567  50.621  1.00  0.00     0.019 A 
HETATM   22  C   UNL     1       4.441  27.474  49.839  1.00  0.00     0.011 A 
HETATM   23 BR   UNL     1       3.387  27.733  48.292  1.00  0.00    -0.051 Br
HETATM   24  C   UNL     1       4.847  26.188  50.192  1.00  0.00     0.019 A 
HETATM   25  C   UNL     1       5.631  25.998  51.332  1.00  0.00     0.010 A 
ENDBRANCH   8  19
BRANCH   5  26
HETATM   26  N   UNL     1       8.280  23.642  57.798  1.00  0.00    -0.229 N 
HETATM   27  H   UNL     1       9.261  23.406  57.843  1.00  0.00     0.174 HD
HETATM   28  H   UNL     1       7.646  22.859  57.877  1.00  0.00     0.174 HD
ENDBRANCH   5  26
TORSDOF 4
ENDMDL
MODEL 6
REMARK VINA RESULT:      -7.8      2.483      4.250
REMARK  4 active torsions:
REMARK  status: ('A' for Active; 'I' for Inactive)
REMARK    1  A    between atoms: O_2  and  C_3 
REMARK    2  A    between atoms: C_4  and  C_5 
REMARK    3  A    between atoms: C_9  and  N_10 
REMARK    4  A    between atoms: C_13  and  C_14 
ROOT
HETATM    1  C   UNL     1       4.228  28.467  50.957  1.00  0.00     0.167 C 
HETATM    2  N   UNL     1       3.914  27.728  49.732  1.00  0.00    -0.074 N 
HETATM    3  C   UNL     1       4.245  26.412  49.518  1.00  0.00     0.736 A 
HETATM    4  N   UNL     1       3.722  26.017  48.388  1.00  0.00     0.131 NA
HETATM    5  C   UNL     1       3.011  27.105  47.982  1.00  0.00     0.753 A 
HETATM    6  N   UNL     1       3.070  28.168  48.779  1.00  0.00     0.037 NA
HETATM    7  N   UNL     1       4.968  25.715  50.420  1.00  0.00    -0.214 N 
HETATM    8  C   UNL     1       4.938  26.192  51.797  1.00  0.00     0.135 C 
HETATM    9  C   UNL     1       5.262  27.693  51.807  1.00  0.00     0.063 C 
HETATM   10  H   UNL     1       4.940  24.704  50.312  1.00  0.00     0.178 HD
ENDROOT
BRANCH   1  11
HETATM   11  C   UNL     1       4.712  29.898  50.731  1.00  0.00     0.001 A 
HETATM   12  C   UNL     1       4.181  30.942  51.518  1.00  0.00     0.076 A 
HETATM   13  C   UNL     1       4.606  32.262  51.325  1.00  0.00     0.037 A 
HETATM   14  C   UNL     1       5.590  32.553  50.382  1.00  0.00     0.003 A 
HETATM   15  C   UNL     1       6.154  31.529  49.629  1.00  0.00     0.001 A 
HETATM   16  C   UNL     1       5.723  30.212  49.805  1.00  0.00     0.012 A 
BRANCH  12  17
HETATM   17  O   UNL     1       3.225  30.592  52.439  1.00  0.00    -0.355 OA
HETATM   18  C   UNL     1       3.585  30.815  53.801  1.00  0.00     0.210 C 
ENDBRANCH  12  17
ENDBRANCH   1  11
BRANCH   8  19
HETATM   19  C   UNL     1       5.904  25.385  52.643  1.00  0.00    -0.035 A 
HETATM   20  C   UNL     1       5.644  25.109  53.996  1.00  0.00     0.010 A 
HETATM   21  C   UNL     1       6.537  24.348  54.754  1.00  0.00     0.019 A 
HETATM   22  C   UNL     1       7.703  23.863  54.168  1.00  0.00     0.011 A 
HETATM   23 BR   UNL     1       8.911  22.830  55.191  1.00  0.00    -0.051 Br
HETATM   24  C   UNL     1       7.987  24.137  52.831  1.00  0.00     0.019 A 
HETATM   25  C   UNL     1       7.091  24.896  52.074  1.00  0.00     0.010 A 
ENDBRANCH   8  19
BRANCH   5  26
HETATM   26  N   UNL     1       2.332  27.030  46.841  1.00  0.00    -0.229 N 
HETATM   27  H   UNL     1       1.329  26.936  46.917  1.00  0.00     0.174 HD
HETATM   28  H   UNL     1       2.758  26.499  46.093  1.00  0.00     0.174 HD
ENDBRANCH   5  26
TORSDOF 4
ENDMDL
MODEL 7
REMARK VINA RESULT:      -7.7     10.591     13.384
REMARK  4 active torsions:
REMARK  status: ('A' for Active; 'I' for Inactive)
REMARK    1  A    between atoms: O_2  and  C_3 
REMARK    2  A    between atoms: C_4  and  C_5 
REMARK    3  A    between atoms: C_9  and  N_10 
REMARK    4  A    between atoms: C_13  and  C_14 
ROOT
HETATM    1  C   UNL     1       4.914  34.430  62.500  1.00  0.00     0.167 C 
HETATM    2  N   UNL     1       3.681  34.310  61.717  1.00  0.00    -0.074 N 
HETATM    3  C   UNL     1       3.573  33.586  60.555  1.00  0.00     0.736 A 
HETATM    4  N   UNL     1       2.324  33.579  60.169  1.00  0.00     0.131 NA
HETATM    5  C   UNL     1       1.690  34.249  61.171  1.00  0.00     0.753 A 
HETATM    6  N   UNL     1       2.467  34.693  62.156  1.00  0.00     0.037 NA
HETATM    7  N   UNL     1       4.644  32.979  60.003  1.00  0.00    -0.214 N 
HETATM    8  C   UNL     1       5.756  32.670  60.895  1.00  0.00     0.135 C 
HETATM    9  C   UNL     1       6.127  33.937  61.679  1.00  0.00     0.063 C 
HETATM   10  H   UNL     1       4.432  32.262  59.313  1.00  0.00     0.178 HD
ENDROOT
BRANCH   1  11
HETATM   11  C   UNL     1       5.190  35.831  63.041  1.00  0.00     0.001 A 
HETATM   12  C   UNL     1       4.933  36.113  64.399  1.00  0.00     0.076 A 
HETATM   13  C   UNL     1       5.175  37.391  64.916  1.00  0.00     0.037 A 
HETATM   14  C   UNL     1       5.713  38.388  64.104  1.00  0.00     0.003 A 
HETATM   15  C   UNL     1       6.012  38.113  62.774  1.00  0.00     0.001 A 
HETATM   16  C   UNL     1       5.758  36.845  62.248  1.00  0.00     0.012 A 
BRANCH  12  17
HETATM   17  O   UNL     1       4.416  35.088  65.152  1.00  0.00    -0.355 OA
HETATM   18  C   UNL     1       3.529  35.490  66.194  1.00  0.00     0.210 C 
ENDBRANCH  12  17
ENDBRANCH   1  11
BRANCH   8  19
HETATM   19  C   UNL     1       6.921  32.122  60.093  1.00  0.00    -0.035 A 
HETATM   20  C   UNL     1       6.721  31.293  58.977  1.00  0.00     0.010 A 
HETATM   21  C   UNL     1       7.806  30.813  58.239  1.00  0.00     0.019 A 
HETATM   22  C   UNL     1       9.103  31.150  58.618  1.00  0.00     0.011 A 
HETATM   23 BR   UNL     1      10.572  30.505  57.620  1.00  0.00    -0.051 Br
HETATM   24  C   UNL     1       9.324  31.959  59.731  1.00  0.00     0.019 A 
HETATM   25  C   UNL     1       8.237  32.441  60.465  1.00  0.00     0.010 A 
ENDBRANCH   8  19
BRANCH   5  26
HETATM   26  N   UNL     1       0.373  34.413  61.091  1.00  0.00    -0.229 N 
HETATM   27  H   UNL     1       0.036  35.366  61.074  1.00  0.00     0.174 HD
HETATM   28  H   UNL     1      -0.198  33.766  61.617  1.00  0.00     0.174 HD
ENDBRANCH   5  26
TORSDOF 4
ENDMDL
MODEL 8
REMARK VINA RESULT:      -7.7      4.794      7.039
REMARK  4 active torsions:
REMARK  status: ('A' for Active; 'I' for Inactive)
REMARK    1  A    between atoms: O_2  and  C_3 
REMARK    2  A    between atoms: C_4  and  C_5 
REMARK    3  A    between atoms: C_9  and  N_10 
REMARK    4  A    between atoms: C_13  and  C_14 
ROOT
HETATM    1  C   UNL     1       6.802  29.016  57.794  1.00  0.00     0.167 C 
HETATM    2  N   UNL     1       6.128  29.453  56.568  1.00  0.00    -0.074 N 
HETATM    3  C   UNL     1       5.859  28.631  55.501  1.00  0.00     0.736 A 
HETATM    4  N   UNL     1       5.148  29.289  54.623  1.00  0.00     0.131 NA
HETATM    5  C   UNL     1       4.939  30.487  55.233  1.00  0.00     0.753 A 
HETATM    6  N   UNL     1       5.491  30.632  56.435  1.00  0.00     0.037 NA
HETATM    7  N   UNL     1       6.275  27.347  55.480  1.00  0.00    -0.214 N 
HETATM    8  C   UNL     1       6.535  26.720  56.771  1.00  0.00     0.135 C 
HETATM    9  C   UNL     1       7.463  27.634  57.585  1.00  0.00     0.063 C 
HETATM   10  H   UNL     1       5.815  26.752  54.796  1.00  0.00     0.178 HD
ENDROOT
BRANCH   1  11
HETATM   11  C   UNL     1       7.829  30.004  58.343  1.00  0.00     0.001 A 
HETATM   12  C   UNL     1       9.104  30.084  57.745  1.00  0.00     0.076 A 
HETATM   13  C   UNL     1      10.062  30.978  58.234  1.00  0.00     0.037 A 
HETATM   14  C   UNL     1       9.752  31.832  59.292  1.00  0.00     0.003 A 
HETATM   15  C   UNL     1       8.485  31.796  59.863  1.00  0.00     0.001 A 
HETATM   16  C   UNL     1       7.529  30.894  59.391  1.00  0.00     0.012 A 
BRANCH  12  17
HETATM   17  O   UNL     1       9.346  29.227  56.699  1.00  0.00    -0.355 OA
HETATM   18  C   UNL     1      10.253  29.716  55.713  1.00  0.00     0.210 C 
ENDBRANCH  12  17
ENDBRANCH   1  11
BRANCH   8  19
HETATM   19  C   UNL     1       7.121  25.338  56.562  1.00  0.00    -0.035 A 
HETATM   20  C   UNL     1       8.164  24.851  57.369  1.00  0.00     0.010 A 
HETATM   21  C   UNL     1       8.678  23.567  57.174  1.00  0.00     0.019 A 
HETATM   22  C   UNL     1       8.161  22.761  56.162  1.00  0.00     0.011 A 
HETATM   23 BR   UNL     1       8.853  21.022  55.898  1.00  0.00    -0.051 Br
HETATM   24  C   UNL     1       7.138  23.230  55.341  1.00  0.00     0.019 A 
HETATM   25  C   UNL     1       6.622  24.513  55.540  1.00  0.00     0.010 A 
ENDBRANCH   8  19
BRANCH   5  26
HETATM   26  N   UNL     1       4.221  31.408  54.596  1.00  0.00    -0.229 N 
HETATM   27  H   UNL     1       4.328  32.362  54.911  1.00  0.00     0.174 HD
HETATM   28  H   UNL     1       3.282  31.147  54.329  1.00  0.00     0.174 HD
ENDBRANCH   5  26
TORSDOF 4
ENDMDL
MODEL 9
REMARK VINA RESULT:      -7.6      2.077      2.541
REMARK  4 active torsions:
REMARK  status: ('A' for Active; 'I' for Inactive)
REMARK    1  A    between atoms: O_2  and  C_3 
REMARK    2  A    between atoms: C_4  and  C_5 
REMARK    3  A    between atoms: C_9  and  N_10 
REMARK    4  A    between atoms: C_13  and  C_14 
ROOT
HETATM    1  C   UNL     1       5.023  28.917  52.697  1.00  0.00     0.167 C 
HETATM    2  N   UNL     1       4.486  29.140  54.042  1.00  0.00    -0.074 N 
HETATM    3  C   UNL     1       4.669  28.280  55.098  1.00  0.00     0.736 A 
HETATM    4  N   UNL     1       4.173  28.820  56.180  1.00  0.00     0.131 NA
HETATM    5  C   UNL     1       3.766  30.047  55.752  1.00  0.00     0.753 A 
HETATM    6  N   UNL     1       3.959  30.306  54.462  1.00  0.00     0.037 NA
HETATM    7  N   UNL     1       5.312  27.104  54.942  1.00  0.00    -0.214 N 
HETATM    8  C   UNL     1       6.233  27.002  53.817  1.00  0.00     0.135 C 
HETATM    9  C   UNL     1       5.507  27.457  52.542  1.00  0.00     0.063 C 
HETATM   10  H   UNL     1       5.631  26.665  55.803  1.00  0.00     0.178 HD
ENDROOT
BRANCH   1  11
HETATM   11  C   UNL     1       4.062  29.267  51.562  1.00  0.00     0.001 A 
HETATM   12  C   UNL     1       4.545  29.966  50.436  1.00  0.00     0.076 A 
HETATM   13  C   UNL     1       3.682  30.301  49.386  1.00  0.00     0.037 A 
HETATM   14  C   UNL     1       2.344  29.910  49.423  1.00  0.00     0.003 A 
HETATM   15  C   UNL     1       1.864  29.182  50.506  1.00  0.00     0.001 A 
HETATM   16  C   UNL     1       2.715  28.859  51.565  1.00  0.00     0.012 A 
BRANCH  12  17
HETATM   17  O   UNL     1       5.873  30.313  50.451  1.00  0.00    -0.355 OA
HETATM   18  C   UNL     1       6.203  31.480  49.701  1.00  0.00     0.210 C 
ENDBRANCH  12  17
ENDBRANCH   1  11
BRANCH   8  19
HETATM   19  C   UNL     1       6.759  25.584  53.709  1.00  0.00    -0.035 A 
HETATM   20  C   UNL     1       6.646  24.674  54.775  1.00  0.00     0.010 A 
HETATM   21  C   UNL     1       7.119  23.366  54.650  1.00  0.00     0.019 A 
HETATM   22  C   UNL     1       7.719  22.958  53.462  1.00  0.00     0.011 A 
HETATM   23 BR   UNL     1       8.358  21.187  53.291  1.00  0.00    -0.051 Br
HETATM   24  C   UNL     1       7.855  23.848  52.398  1.00  0.00     0.019 A 
HETATM   25  C   UNL     1       7.377  25.155  52.523  1.00  0.00     0.010 A 
ENDBRANCH   8  19
BRANCH   5  26
HETATM   26  N   UNL     1       3.211  30.875  56.633  1.00  0.00    -0.229 N 
HETATM   27  H   UNL     1       2.875  31.757  56.275  1.00  0.00     0.174 HD
HETATM   28  H   UNL     1       3.641  30.918  57.547  1.00  0.00     0.174 HD
ENDBRANCH   5  26
TORSDOF 4
ENDMDL
MODEL 10
REMARK VINA RESULT:      -7.6      3.918      7.095
REMARK  4 active torsions:
REMARK  status: ('A' for Active; 'I' for Inactive)
REMARK    1  A    between atoms: O_2  and  C_3 
REMARK    2  A    between atoms: C_4  and  C_5 
REMARK    3  A    between atoms: C_9  and  N_10 
REMARK    4  A    between atoms: C_13  and  C_14 
ROOT
HETATM    1  C   UNL     1       6.698  27.401  53.681  1.00  0.00     0.167 C 
HETATM    2  N   UNL     1       6.897  25.956  53.812  1.00  0.00    -0.074 N 
HETATM    3  C   UNL     1       6.405  25.026  52.928  1.00  0.00     0.736 A 
HETATM    4  N   UNL     1       6.854  23.843  53.256  1.00  0.00     0.131 NA
HETATM    5  C   UNL     1       7.684  24.110  54.302  1.00  0.00     0.753 A 
HETATM    6  N   UNL     1       7.770  25.387  54.665  1.00  0.00     0.037 NA
HETATM    7  N   UNL     1       5.619  25.389  51.892  1.00  0.00    -0.214 N 
HETATM    8  C   UNL     1       5.733  26.768  51.433  1.00  0.00     0.135 C 
HETATM    9  C   UNL     1       5.594  27.704  52.643  1.00  0.00     0.063 C 
HETATM   10  H   UNL     1       5.523  24.695  51.155  1.00  0.00     0.178 HD
ENDROOT
BRANCH   1  11
HETATM   11  C   UNL     1       6.388  28.122  54.992  1.00  0.00     0.001 A 
HETATM   12  C   UNL     1       7.398  28.879  55.622  1.00  0.00     0.076 A 
HETATM   13  C   UNL     1       7.138  29.544  56.826  1.00  0.00     0.037 A 
HETATM   14  C   UNL     1       5.865  29.501  57.393  1.00  0.00     0.003 A 
HETATM   15  C   UNL     1       4.848  28.795  56.760  1.00  0.00     0.001 A 
HETATM   16  C   UNL     1       5.104  28.116  55.567  1.00  0.00     0.012 A 
BRANCH  12  17
HETATM   17  O   UNL     1       8.627  28.895  55.011  1.00  0.00    -0.355 OA
HETATM   18  C   UNL     1       9.683  29.458  55.786  1.00  0.00     0.210 C 
ENDBRANCH  12  17
ENDBRANCH   1  11
BRANCH   8  19
HETATM   19  C   UNL     1       4.693  27.042  50.365  1.00  0.00    -0.035 A 
HETATM   20  C   UNL     1       4.439  26.125  49.332  1.00  0.00     0.010 A 
HETATM   21  C   UNL     1       3.463  26.386  48.368  1.00  0.00     0.019 A 
HETATM   22  C   UNL     1       2.737  27.573  48.422  1.00  0.00     0.011 A 
HETATM   23 BR   UNL     1       1.414  27.927  47.120  1.00  0.00    -0.051 Br
HETATM   24  C   UNL     1       2.983  28.504  49.430  1.00  0.00     0.019 A 
HETATM   25  C   UNL     1       3.957  28.239  50.395  1.00  0.00     0.010 A 
ENDBRANCH   8  19
BRANCH   5  26
HETATM   26  N   UNL     1       8.328  23.098  54.876  1.00  0.00    -0.229 N 
HETATM   27  H   UNL     1       8.116  22.920  55.848  1.00  0.00     0.174 HD
HETATM   28  H   UNL     1       9.297  22.972  54.618  1.00  0.00     0.174 HD
ENDBRANCH   5  26
TORSDOF 4
ENDMDL
