MODEL 1
REMARK VINA RESULT:      -8.0      0.000      0.000
REMARK  5 active torsions:
REMARK  status: ('A' for Active; 'I' for Inactive)
REMARK    1  A    between atoms: C_2  and  O_3 
REMARK    2  A    between atoms: C_4  and  C_5 
REMARK    3  A    between atoms: C_5  and  O_6 
REMARK    4  A    between atoms: C_9  and  C_10 
REMARK    5  A    between atoms: C_22  and  O_23 
ROOT
HETATM    1  C   UNL     1       5.749  28.629  52.537  1.00  0.00     0.047 C 
HETATM    2  C   UNL     1       5.836  27.390  53.444  1.00  0.00     0.073 C 
HETATM    3  C   UNL     1       7.314  27.051  53.834  1.00  0.00     0.133 C 
HETATM    4  C   UNL     1       7.525  25.979  54.944  1.00  0.00     0.074 C 
HETATM    5  C   UNL     1       6.367  25.895  55.876  1.00  0.00     0.030 A 
HETATM    6  C   UNL     1       5.192  26.599  55.719  1.00  0.00     0.042 A 
HETATM    7  N   UNL     1       4.401  26.295  56.791  1.00  0.00    -0.279 N 
HETATM    8  H   UNL     1       3.473  26.641  57.015  1.00  0.00     0.189 HD
HETATM    9  N   UNL     1       4.990  25.432  57.646  1.00  0.00    -0.149 NA
HETATM   10  C   UNL     1       6.176  25.231  57.089  1.00  0.00     0.190 A 
HETATM   11  C   UNL     1       4.868  27.572  54.648  1.00  0.00     0.097 C 
ENDROOT
BRANCH   4  12
HETATM   12  C   UNL     1       7.801  24.582  54.390  1.00  0.00    -0.048 A 
HETATM   13  C   UNL     1       8.604  23.718  55.161  1.00  0.00     0.009 A 
HETATM   14  C   UNL     1       8.909  22.427  54.721  1.00  0.00     0.024 A 
HETATM   15  C   UNL     1       8.425  21.982  53.496  1.00  0.00     0.034 A 
HETATM   16 CL   UNL     1       8.797  20.393  52.952  1.00  0.00    -0.084 Cl
HETATM   17  C   UNL     1       7.637  22.817  52.709  1.00  0.00     0.024 A 
HETATM   18  C   UNL     1       7.326  24.107  53.154  1.00  0.00     0.009 A 
ENDBRANCH   4  12
BRANCH   3  19
HETATM   19  C   UNL     1       8.030  28.304  54.295  1.00  0.00     0.266 C 
HETATM   20  O   UNL     1       9.123  28.675  53.890  1.00  0.00    -0.265 OA
BRANCH  19  21
HETATM   21  O   UNL     1       7.283  28.956  55.230  1.00  0.00    -0.326 OA
HETATM   22  C   UNL     1       8.009  29.347  56.396  1.00  0.00     0.213 C 
ENDBRANCH  19  21
ENDBRANCH   3  19
BRANCH   2  23
HETATM   23  O   UNL     1       5.338  26.322  52.613  1.00  0.00    -0.389 OA
HETATM   24  H   UNL     1       6.078  25.984  52.080  1.00  0.00     0.210 HD
ENDBRANCH   2  23
BRANCH  10  25
HETATM   25  O   UNL     1       7.000  24.441  57.768  1.00  0.00    -0.343 OA
HETATM   26  H   UNL     1       7.283  23.771  57.122  1.00  0.00     0.219 HD
ENDBRANCH  10  25
TORSDOF 5
ENDMDL
MODEL 2
REMARK VINA RESULT:      -8.0      2.335      3.734
REMARK  5 active torsions:
REMARK  status: ('A' for Active; 'I' for Inactive)
REMARK    1  A    between atoms: C_2  and  O_3 
REMARK    2  A    between atoms: C_4  and  C_5 
REMARK    3  A    between atoms: C_5  and  O_6 
REMARK    4  A    between atoms: C_9  and  C_10 
REMARK    5  A    between atoms: C_22  and  O_23 
ROOT
HETATM    1  C   UNL     1       2.897  28.581  51.597  1.00  0.00     0.047 C 
HETATM    2  C   UNL     1       3.984  28.184  52.612  1.00  0.00     0.073 C 
HETATM    3  C   UNL     1       5.321  27.775  51.909  1.00  0.00     0.133 C 
HETATM    4  C   UNL     1       6.572  27.594  52.820  1.00  0.00     0.074 C 
HETATM    5  C   UNL     1       6.488  28.406  54.064  1.00  0.00     0.030 A 
HETATM    6  C   UNL     1       5.387  29.150  54.433  1.00  0.00     0.042 A 
HETATM    7  N   UNL     1       5.709  29.785  55.599  1.00  0.00    -0.279 N 
HETATM    8  H   UNL     1       5.146  30.427  56.149  1.00  0.00     0.189 HD
HETATM    9  N   UNL     1       6.960  29.504  56.017  1.00  0.00    -0.149 NA
HETATM   10  C   UNL     1       7.414  28.700  55.067  1.00  0.00     0.190 A 
HETATM   11  C   UNL     1       4.121  29.311  53.675  1.00  0.00     0.097 C 
ENDROOT
BRANCH   4  12
HETATM   12  C   UNL     1       6.829  26.139  53.209  1.00  0.00    -0.048 A 
HETATM   13  C   UNL     1       7.636  25.363  52.353  1.00  0.00     0.009 A 
HETATM   14  C   UNL     1       7.913  24.023  52.635  1.00  0.00     0.024 A 
HETATM   15  C   UNL     1       7.378  23.432  53.773  1.00  0.00     0.034 A 
HETATM   16 CL   UNL     1       7.718  21.782  54.124  1.00  0.00    -0.084 Cl
HETATM   17  C   UNL     1       6.571  24.170  54.633  1.00  0.00     0.024 A 
HETATM   18  C   UNL     1       6.300  25.515  54.354  1.00  0.00     0.009 A 
ENDBRANCH   4  12
BRANCH   3  19
HETATM   19  C   UNL     1       5.691  28.802  50.859  1.00  0.00     0.266 C 
HETATM   20  O   UNL     1       6.027  29.954  51.094  1.00  0.00    -0.265 OA
BRANCH  19  21
HETATM   21  O   UNL     1       5.593  28.258  49.614  1.00  0.00    -0.326 OA
HETATM   22  C   UNL     1       5.139  29.166  48.608  1.00  0.00     0.213 C 
ENDBRANCH  19  21
ENDBRANCH   3  19
BRANCH   2  23
HETATM   23  O   UNL     1       3.440  27.012  53.253  1.00  0.00    -0.389 OA
HETATM   24  H   UNL     1       3.847  26.933  54.132  1.00  0.00     0.210 HD
ENDBRANCH   2  23
BRANCH  10  25
HETATM   25  O   UNL     1       8.674  28.303  55.207  1.00  0.00    -0.343 OA
HETATM   26  H   UNL     1       8.609  27.417  55.602  1.00  0.00     0.219 HD
ENDBRANCH  10  25
TORSDOF 5
ENDMDL
MODEL 3
REMARK VINA RESULT:      -7.9      3.108      5.613
REMARK  5 active torsions:
REMARK  status: ('A' for Active; 'I' for Inactive)
REMARK    1  A    between atoms: C_2  and  O_3 
REMARK    2  A    between atoms: C_4  and  C_5 
REMARK    3  A    between atoms: C_5  and  O_6 
REMARK    4  A    between atoms: C_9  and  C_10 
REMARK    5  A    between atoms: C_22  and  O_23 
ROOT
HETATM    1  C   UNL     1       6.970  23.725  56.525  1.00  0.00     0.047 C 
HETATM    2  C   UNL     1       6.785  25.252  56.571  1.00  0.00     0.073 C 
HETATM    3  C   UNL     1       7.569  25.972  55.424  1.00  0.00     0.133 C 
HETATM    4  C   UNL     1       7.270  27.485  55.204  1.00  0.00     0.074 C 
HETATM    5  C   UNL     1       5.903  27.863  55.657  1.00  0.00     0.030 A 
HETATM    6  C   UNL     1       5.035  27.007  56.300  1.00  0.00     0.042 A 
HETATM    7  N   UNL     1       3.876  27.699  56.508  1.00  0.00    -0.279 N 
HETATM    8  H   UNL     1       3.014  27.381  56.941  1.00  0.00     0.189 HD
HETATM    9  N   UNL     1       3.931  28.962  56.036  1.00  0.00    -0.149 NA
HETATM   10  C   UNL     1       5.144  29.025  55.506  1.00  0.00     0.190 A 
HETATM   11  C   UNL     1       5.266  25.579  56.631  1.00  0.00     0.097 C 
ENDROOT
BRANCH   4  12
HETATM   12  C   UNL     1       8.278  28.406  55.891  1.00  0.00    -0.048 A 
HETATM   13  C   UNL     1       8.085  28.685  57.259  1.00  0.00     0.009 A 
HETATM   14  C   UNL     1       8.958  29.524  57.958  1.00  0.00     0.024 A 
HETATM   15  C   UNL     1      10.033  30.106  57.297  1.00  0.00     0.034 A 
HETATM   16 CL   UNL     1      11.111  31.137  58.154  1.00  0.00    -0.084 Cl
HETATM   17  C   UNL     1      10.244  29.855  55.945  1.00  0.00     0.024 A 
HETATM   18  C   UNL     1       9.373  29.009  55.247  1.00  0.00     0.009 A 
ENDBRANCH   4  12
BRANCH   3  19
HETATM   19  C   UNL     1       7.309  25.280  54.102  1.00  0.00     0.266 C 
HETATM   20  O   UNL     1       6.326  25.463  53.398  1.00  0.00    -0.265 OA
BRANCH  19  21
HETATM   21  O   UNL     1       8.326  24.420  53.813  1.00  0.00    -0.326 OA
HETATM   22  C   UNL     1       7.964  23.355  52.933  1.00  0.00     0.213 C 
ENDBRANCH  19  21
ENDBRANCH   3  19
BRANCH   2  23
HETATM   23  O   UNL     1       7.385  25.630  57.828  1.00  0.00    -0.389 OA
HETATM   24  H   UNL     1       6.919  25.159  58.538  1.00  0.00     0.210 HD
ENDBRANCH   2  23
BRANCH  10  25
HETATM   25  O   UNL     1       5.450  30.172  54.912  1.00  0.00    -0.343 OA
HETATM   26  H   UNL     1       4.901  30.186  54.109  1.00  0.00     0.219 HD
ENDBRANCH  10  25
TORSDOF 5
ENDMDL
MODEL 4
REMARK VINA RESULT:      -7.9      2.417      3.714
REMARK  5 active torsions:
REMARK  status: ('A' for Active; 'I' for Inactive)
REMARK    1  A    between atoms: C_2  and  O_3 
REMARK    2  A    between atoms: C_4  and  C_5 
REMARK    3  A    between atoms: C_5  and  O_6 
REMARK    4  A    between atoms: C_9  and  C_10 
REMARK    5  A    between atoms: C_22  and  O_23 
ROOT
HETATM    1  C   UNL     1       7.415  28.959  55.387  1.00  0.00     0.047 C 
HETATM    2  C   UNL     1       7.129  27.834  54.377  1.00  0.00     0.073 C 
HETATM    3  C   UNL     1       6.304  26.668  55.016  1.00  0.00     0.133 C 
HETATM    4  C   UNL     1       5.734  25.590  54.047  1.00  0.00     0.074 C 
HETATM    5  C   UNL     1       5.516  26.123  52.674  1.00  0.00     0.030 A 
HETATM    6  C   UNL     1       5.877  27.390  52.267  1.00  0.00     0.042 A 
HETATM    7  N   UNL     1       5.473  27.520  50.968  1.00  0.00    -0.279 N 
HETATM    8  H   UNL     1       5.559  28.324  50.354  1.00  0.00     0.189 HD
HETATM    9  N   UNL     1       4.863  26.412  50.498  1.00  0.00    -0.149 NA
HETATM   10  C   UNL     1       4.877  25.602  51.547  1.00  0.00     0.190 A 
HETATM   11  C   UNL     1       6.504  28.451  53.093  1.00  0.00     0.097 C 
ENDROOT
BRANCH   4  12
HETATM   12  C   UNL     1       6.612  24.343  53.946  1.00  0.00    -0.048 A 
HETATM   13  C   UNL     1       6.790  23.571  55.111  1.00  0.00     0.009 A 
HETATM   14  C   UNL     1       7.583  22.420  55.104  1.00  0.00     0.024 A 
HETATM   15  C   UNL     1       8.222  22.029  53.934  1.00  0.00     0.034 A 
HETATM   16 CL   UNL     1       9.198  20.612  53.921  1.00  0.00    -0.084 Cl
HETATM   17  C   UNL     1       8.072  22.777  52.770  1.00  0.00     0.024 A 
HETATM   18  C   UNL     1       7.271  23.925  52.776  1.00  0.00     0.009 A 
ENDBRANCH   4  12
BRANCH   3  19
HETATM   19  C   UNL     1       5.126  27.226  55.788  1.00  0.00     0.266 C 
HETATM   20  O   UNL     1       4.231  27.904  55.304  1.00  0.00    -0.265 OA
BRANCH  19  21
HETATM   21  O   UNL     1       5.210  26.868  57.100  1.00  0.00    -0.326 OA
HETATM   22  C   UNL     1       4.858  25.508  57.362  1.00  0.00     0.213 C 
ENDBRANCH  19  21
ENDBRANCH   3  19
BRANCH   2  23
HETATM   23  O   UNL     1       8.440  27.327  54.051  1.00  0.00    -0.389 OA
HETATM   24  H   UNL     1       9.099  27.947  54.405  1.00  0.00     0.210 HD
ENDBRANCH   2  23
BRANCH  10  25
HETATM   25  O   UNL     1       4.280  24.429  51.371  1.00  0.00    -0.343 OA
HETATM   26  H   UNL     1       4.756  24.021  50.628  1.00  0.00     0.219 HD
ENDBRANCH  10  25
TORSDOF 5
ENDMDL
MODEL 5
REMARK VINA RESULT:      -7.8      3.553      5.530
REMARK  5 active torsions:
REMARK  status: ('A' for Active; 'I' for Inactive)
REMARK    1  A    between atoms: C_2  and  O_3 
REMARK    2  A    between atoms: C_4  and  C_5 
REMARK    3  A    between atoms: C_5  and  O_6 
REMARK    4  A    between atoms: C_9  and  C_10 
REMARK    5  A    between atoms: C_22  and  O_23 
ROOT
HETATM    1  C   UNL     1       6.121  28.257  52.540  1.00  0.00     0.047 C 
HETATM    2  C   UNL     1       6.859  27.889  53.839  1.00  0.00     0.073 C 
HETATM    3  C   UNL     1       6.112  28.417  55.108  1.00  0.00     0.133 C 
HETATM    4  C   UNL     1       6.613  27.903  56.490  1.00  0.00     0.074 C 
HETATM    5  C   UNL     1       7.271  26.571  56.393  1.00  0.00     0.030 A 
HETATM    6  C   UNL     1       7.514  25.910  55.207  1.00  0.00     0.042 A 
HETATM    7  N   UNL     1       8.082  24.710  55.531  1.00  0.00    -0.279 N 
HETATM    8  H   UNL     1       8.379  23.960  54.913  1.00  0.00     0.189 HD
HETATM    9  N   UNL     1       8.224  24.542  56.862  1.00  0.00    -0.149 NA
HETATM   10  C   UNL     1       7.705  25.657  57.355  1.00  0.00     0.190 A 
HETATM   11  C   UNL     1       7.153  26.361  53.841  1.00  0.00     0.097 C 
ENDROOT
BRANCH   4  12
HETATM   12  C   UNL     1       7.576  28.867  57.181  1.00  0.00    -0.048 A 
HETATM   13  C   UNL     1       7.026  29.844  58.034  1.00  0.00     0.009 A 
HETATM   14  C   UNL     1       7.838  30.768  58.697  1.00  0.00     0.024 A 
HETATM   15  C   UNL     1       9.215  30.738  58.508  1.00  0.00     0.034 A 
HETATM   16 CL   UNL     1      10.219  31.872  59.325  1.00  0.00    -0.084 Cl
HETATM   17  C   UNL     1       9.786  29.789  57.666  1.00  0.00     0.024 A 
HETATM   18  C   UNL     1       8.972  28.860  57.008  1.00  0.00     0.009 A 
ENDBRANCH   4  12
BRANCH   3  19
HETATM   19  C   UNL     1       4.639  28.074  55.024  1.00  0.00     0.266 C 
HETATM   20  O   UNL     1       4.112  27.473  54.098  1.00  0.00    -0.265 OA
BRANCH  19  21
HETATM   21  O   UNL     1       3.984  28.536  56.126  1.00  0.00    -0.326 OA
HETATM   22  C   UNL     1       3.676  29.931  56.087  1.00  0.00     0.213 C 
ENDBRANCH  19  21
ENDBRANCH   3  19
BRANCH   2  23
HETATM   23  O   UNL     1       8.112  28.597  53.732  1.00  0.00    -0.389 OA
HETATM   24  H   UNL     1       7.921  29.506  53.446  1.00  0.00     0.210 HD
ENDBRANCH   2  23
BRANCH  10  25
HETATM   25  O   UNL     1       7.671  25.734  58.681  1.00  0.00    -0.343 OA
HETATM   26  H   UNL     1       6.847  25.282  58.931  1.00  0.00     0.219 HD
ENDBRANCH  10  25
TORSDOF 5
ENDMDL
MODEL 6
REMARK VINA RESULT:      -7.7      9.139     11.670
REMARK  5 active torsions:
REMARK  status: ('A' for Active; 'I' for Inactive)
REMARK    1  A    between atoms: C_2  and  O_3 
REMARK    2  A    between atoms: C_4  and  C_5 
REMARK    3  A    between atoms: C_5  and  O_6 
REMARK    4  A    between atoms: C_9  and  C_10 
REMARK    5  A    between atoms: C_22  and  O_23 
ROOT
HETATM    1  C   UNL     1       5.007  36.744  64.396  1.00  0.00     0.047 C 
HETATM    2  C   UNL     1       4.841  35.783  63.205  1.00  0.00     0.073 C 
HETATM    3  C   UNL     1       4.916  34.284  63.647  1.00  0.00     0.133 C 
HETATM    4  C   UNL     1       4.515  33.213  62.589  1.00  0.00     0.074 C 
HETATM    5  C   UNL     1       3.562  33.747  61.578  1.00  0.00     0.030 A 
HETATM    6  C   UNL     1       3.160  35.064  61.509  1.00  0.00     0.042 A 
HETATM    7  N   UNL     1       2.255  35.151  60.490  1.00  0.00    -0.279 N 
HETATM    8  H   UNL     1       1.740  35.964  60.164  1.00  0.00     0.189 HD
HETATM    9  N   UNL     1       2.035  33.965  59.885  1.00  0.00    -0.149 NA
HETATM   10  C   UNL     1       2.808  33.137  60.573  1.00  0.00     0.190 A 
HETATM   11  C   UNL     1       3.557  36.169  62.417  1.00  0.00     0.097 C 
ENDROOT
BRANCH   4  12
HETATM   12  C   UNL     1       5.713  32.613  61.854  1.00  0.00    -0.048 A 
HETATM   13  C   UNL     1       6.596  31.800  62.592  1.00  0.00     0.009 A 
HETATM   14  C   UNL     1       7.718  31.220  61.995  1.00  0.00     0.024 A 
HETATM   15  C   UNL     1       7.983  31.452  60.651  1.00  0.00     0.034 A 
HETATM   16 CL   UNL     1       9.363  30.738  59.912  1.00  0.00    -0.084 Cl
HETATM   17  C   UNL     1       7.133  32.257  59.898  1.00  0.00     0.024 A 
HETATM   18  C   UNL     1       6.005  32.832  60.495  1.00  0.00     0.009 A 
ENDBRANCH   4  12
BRANCH   3  19
HETATM   19  C   UNL     1       4.033  34.053  64.856  1.00  0.00     0.266 C 
HETATM   20  O   UNL     1       2.818  34.192  64.872  1.00  0.00    -0.265 OA
BRANCH  19  21
HETATM   21  O   UNL     1       4.788  33.671  65.924  1.00  0.00    -0.326 OA
HETATM   22  C   UNL     1       4.373  34.235  67.170  1.00  0.00     0.213 C 
ENDBRANCH  19  21
ENDBRANCH   3  19
BRANCH   2  23
HETATM   23  O   UNL     1       5.989  36.063  62.378  1.00  0.00    -0.389 OA
HETATM   24  H   UNL     1       6.782  36.015  62.937  1.00  0.00     0.210 HD
ENDBRANCH   2  23
BRANCH  10  25
HETATM   25  O   UNL     1       2.745  31.861  60.211  1.00  0.00    -0.343 OA
HETATM   26  H   UNL     1       2.699  31.884  59.240  1.00  0.00     0.219 HD
ENDBRANCH  10  25
TORSDOF 5
ENDMDL
MODEL 7
REMARK VINA RESULT:      -7.7     10.005     12.179
REMARK  5 active torsions:
REMARK  status: ('A' for Active; 'I' for Inactive)
REMARK    1  A    between atoms: C_2  and  O_3 
REMARK    2  A    between atoms: C_4  and  C_5 
REMARK    3  A    between atoms: C_5  and  O_6 
REMARK    4  A    between atoms: C_9  and  C_10 
REMARK    5  A    between atoms: C_22  and  O_23 
ROOT
HETATM    1  C   UNL     1       1.725  34.595  62.107  1.00  0.00     0.047 C 
HETATM    2  C   UNL     1       2.999  34.128  62.833  1.00  0.00     0.073 C 
HETATM    3  C   UNL     1       4.275  34.869  62.314  1.00  0.00     0.133 C 
HETATM    4  C   UNL     1       5.587  34.676  63.130  1.00  0.00     0.074 C 
HETATM    5  C   UNL     1       5.321  34.356  64.560  1.00  0.00     0.030 A 
HETATM    6  C   UNL     1       4.065  34.143  65.087  1.00  0.00     0.042 A 
HETATM    7  N   UNL     1       4.228  33.927  66.426  1.00  0.00    -0.279 N 
HETATM    8  H   UNL     1       3.519  33.752  67.132  1.00  0.00     0.189 HD
HETATM    9  N   UNL     1       5.519  33.989  66.812  1.00  0.00    -0.149 NA
HETATM   10  C   UNL     1       6.149  34.275  65.681  1.00  0.00     0.190 A 
HETATM   11  C   UNL     1       2.769  34.218  64.369  1.00  0.00     0.097 C 
ENDROOT
BRANCH   4  12
HETATM   12  C   UNL     1       6.502  33.595  62.556  1.00  0.00    -0.048 A 
HETATM   13  C   UNL     1       6.281  33.187  61.226  1.00  0.00     0.009 A 
HETATM   14  C   UNL     1       7.070  32.200  60.629  1.00  0.00     0.024 A 
HETATM   15  C   UNL     1       8.087  31.594  61.359  1.00  0.00     0.034 A 
HETATM   16 CL   UNL     1       9.061  30.379  60.627  1.00  0.00    -0.084 Cl
HETATM   17  C   UNL     1       8.323  31.971  62.677  1.00  0.00     0.024 A 
HETATM   18  C   UNL     1       7.537  32.965  63.271  1.00  0.00     0.009 A 
ENDBRANCH   4  12
BRANCH   3  19
HETATM   19  C   UNL     1       4.019  36.360  62.247  1.00  0.00     0.266 C 
HETATM   20  O   UNL     1       3.762  37.070  63.209  1.00  0.00    -0.265 OA
BRANCH  19  21
HETATM   21  O   UNL     1       4.112  36.797  60.959  1.00  0.00    -0.326 OA
HETATM   22  C   UNL     1       4.993  37.907  60.776  1.00  0.00     0.213 C 
ENDBRANCH  19  21
ENDBRANCH   3  19
BRANCH   2  23
HETATM   23  O   UNL     1       3.110  32.737  62.467  1.00  0.00    -0.389 OA
HETATM   24  H   UNL     1       3.523  32.262  63.209  1.00  0.00     0.210 HD
ENDBRANCH   2  23
BRANCH  10  25
HETATM   25  O   UNL     1       7.462  34.446  65.786  1.00  0.00    -0.343 OA
HETATM   26  H   UNL     1       7.838  33.563  65.630  1.00  0.00     0.219 HD
ENDBRANCH  10  25
TORSDOF 5
ENDMDL
MODEL 8
REMARK VINA RESULT:      -7.6     10.139     12.178
REMARK  5 active torsions:
REMARK  status: ('A' for Active; 'I' for Inactive)
REMARK    1  A    between atoms: C_2  and  O_3 
REMARK    2  A    between atoms: C_4  and  C_5 
REMARK    3  A    between atoms: C_5  and  O_6 
REMARK    4  A    between atoms: C_9  and  C_10 
REMARK    5  A    between atoms: C_22  and  O_23 
ROOT
HETATM    1  C   UNL     1       4.232  37.361  59.659  1.00  0.00     0.047 C 
HETATM    2  C   UNL     1       4.243  36.168  60.631  1.00  0.00     0.073 C 
HETATM    3  C   UNL     1       5.409  36.270  61.670  1.00  0.00     0.133 C 
HETATM    4  C   UNL     1       5.385  35.266  62.861  1.00  0.00     0.074 C 
HETATM    5  C   UNL     1       4.007  34.803  63.182  1.00  0.00     0.030 A 
HETATM    6  C   UNL     1       2.887  35.130  62.447  1.00  0.00     0.042 A 
HETATM    7  N   UNL     1       1.818  34.561  63.079  1.00  0.00    -0.279 N 
HETATM    8  H   UNL     1       0.834  34.606  62.829  1.00  0.00     0.189 HD
HETATM    9  N   UNL     1       2.170  33.880  64.189  1.00  0.00    -0.149 NA
HETATM   10  C   UNL     1       3.481  34.064  64.243  1.00  0.00     0.190 A 
HETATM   11  C   UNL     1       2.826  36.005  61.251  1.00  0.00     0.097 C 
ENDROOT
BRANCH   4  12
HETATM   12  C   UNL     1       6.266  34.038  62.633  1.00  0.00    -0.048 A 
HETATM   13  C   UNL     1       7.160  33.674  63.659  1.00  0.00     0.009 A 
HETATM   14  C   UNL     1       8.005  32.568  63.526  1.00  0.00     0.024 A 
HETATM   15  C   UNL     1       7.978  31.815  62.358  1.00  0.00     0.034 A 
HETATM   16 CL   UNL     1       9.015  30.452  62.190  1.00  0.00    -0.084 Cl
HETATM   17  C   UNL     1       7.111  32.156  61.325  1.00  0.00     0.024 A 
HETATM   18  C   UNL     1       6.260  33.259  61.462  1.00  0.00     0.009 A 
ENDBRANCH   4  12
BRANCH   3  19
HETATM   19  C   UNL     1       5.448  37.659  62.272  1.00  0.00     0.266 C 
HETATM   20  O   UNL     1       4.599  38.122  63.020  1.00  0.00    -0.265 OA
BRANCH  19  21
HETATM   21  O   UNL     1       6.566  38.320  61.858  1.00  0.00    -0.326 OA
HETATM   22  C   UNL     1       6.896  39.468  62.643  1.00  0.00     0.213 C 
ENDBRANCH  19  21
ENDBRANCH   3  19
BRANCH   2  23
HETATM   23  O   UNL     1       4.504  35.035  59.777  1.00  0.00    -0.389 OA
HETATM   24  H   UNL     1       3.659  34.747  59.393  1.00  0.00     0.210 HD
ENDBRANCH   2  23
BRANCH  10  25
HETATM   25  O   UNL     1       4.091  33.528  65.294  1.00  0.00    -0.343 OA
HETATM   26  H   UNL     1       3.831  32.591  65.276  1.00  0.00     0.219 HD
ENDBRANCH  10  25
TORSDOF 5
ENDMDL
MODEL 9
REMARK VINA RESULT:      -7.4      4.561      7.187
REMARK  5 active torsions:
REMARK  status: ('A' for Active; 'I' for Inactive)
REMARK    1  A    between atoms: C_2  and  O_3 
REMARK    2  A    between atoms: C_4  and  C_5 
REMARK    3  A    between atoms: C_5  and  O_6 
REMARK    4  A    between atoms: C_9  and  C_10 
REMARK    5  A    between atoms: C_22  and  O_23 
ROOT
HETATM    1  C   UNL     1       8.542  26.472  56.731  1.00  0.00     0.047 C 
HETATM    2  C   UNL     1       7.636  27.591  57.275  1.00  0.00     0.073 C 
HETATM    3  C   UNL     1       8.279  29.006  57.093  1.00  0.00     0.133 C 
HETATM    4  C   UNL     1       7.367  30.238  57.370  1.00  0.00     0.074 C 
HETATM    5  C   UNL     1       5.925  29.933  57.158  1.00  0.00     0.030 A 
HETATM    6  C   UNL     1       5.433  28.680  56.860  1.00  0.00     0.042 A 
HETATM    7  N   UNL     1       4.083  28.813  56.694  1.00  0.00    -0.279 N 
HETATM    8  H   UNL     1       3.399  28.102  56.452  1.00  0.00     0.189 HD
HETATM    9  N   UNL     1       3.659  30.083  56.862  1.00  0.00    -0.149 NA
HETATM   10  C   UNL     1       4.785  30.737  57.111  1.00  0.00     0.190 A 
HETATM   11  C   UNL     1       6.214  27.434  56.665  1.00  0.00     0.097 C 
ENDROOT
BRANCH   4  12
HETATM   12  C   UNL     1       7.537  30.812  58.776  1.00  0.00    -0.048 A 
HETATM   13  C   UNL     1       8.564  30.280  59.581  1.00  0.00     0.009 A 
HETATM   14  C   UNL     1       8.781  30.746  60.881  1.00  0.00     0.024 A 
HETATM   15  C   UNL     1       7.965  31.744  61.402  1.00  0.00     0.034 A 
HETATM   16 CL   UNL     1       8.230  32.321  63.001  1.00  0.00    -0.084 Cl
HETATM   17  C   UNL     1       6.938  32.282  60.633  1.00  0.00     0.024 A 
HETATM   18  C   UNL     1       6.727  31.820  59.328  1.00  0.00     0.009 A 
ENDBRANCH   4  12
BRANCH   3  19
HETATM   19  C   UNL     1       8.804  29.160  55.681  1.00  0.00     0.266 C 
HETATM   20  O   UNL     1       8.254  28.726  54.678  1.00  0.00    -0.265 OA
BRANCH  19  21
HETATM   21  O   UNL     1       9.979  29.849  55.688  1.00  0.00    -0.326 OA
HETATM   22  C   UNL     1      10.863  29.494  56.753  1.00  0.00     0.213 C 
ENDBRANCH  19  21
ENDBRANCH   3  19
BRANCH   2  23
HETATM   23  O   UNL     1       7.562  27.312  58.689  1.00  0.00    -0.389 OA
HETATM   24  H   UNL     1       7.175  26.428  58.802  1.00  0.00     0.210 HD
ENDBRANCH   2  23
BRANCH  10  25
HETATM   25  O   UNL     1       4.660  32.050  57.270  1.00  0.00    -0.343 OA
HETATM   26  H   UNL     1       4.995  32.431  56.441  1.00  0.00     0.219 HD
ENDBRANCH  10  25
TORSDOF 5
ENDMDL
MODEL 10
REMARK VINA RESULT:      -7.4     11.017     13.573
REMARK  5 active torsions:
REMARK  status: ('A' for Active; 'I' for Inactive)
REMARK    1  A    between atoms: C_2  and  O_3 
REMARK    2  A    between atoms: C_4  and  C_5 
REMARK    3  A    between atoms: C_5  and  O_6 
REMARK    4  A    between atoms: C_9  and  C_10 
REMARK    5  A    between atoms: C_22  and  O_23 
ROOT
HETATM    1  C   UNL     1       3.553  32.004  61.500  1.00  0.00     0.047 C 
HETATM    2  C   UNL     1       3.900  33.286  62.278  1.00  0.00     0.073 C 
HETATM    3  C   UNL     1       5.358  33.252  62.844  1.00  0.00     0.133 C 
HETATM    4  C   UNL     1       5.920  34.580  63.433  1.00  0.00     0.074 C 
HETATM    5  C   UNL     1       5.276  35.781  62.833  1.00  0.00     0.030 A 
HETATM    6  C   UNL     1       4.226  35.734  61.940  1.00  0.00     0.042 A 
HETATM    7  N   UNL     1       3.950  37.024  61.585  1.00  0.00    -0.279 N 
HETATM    8  H   UNL     1       3.250  37.368  60.934  1.00  0.00     0.189 HD
HETATM    9  N   UNL     1       4.761  37.917  62.190  1.00  0.00    -0.149 NA
HETATM   10  C   UNL     1       5.563  37.145  62.909  1.00  0.00     0.190 A 
HETATM   11  C   UNL     1       3.570  34.522  61.393  1.00  0.00     0.097 C 
ENDROOT
BRANCH   4  12
HETATM   12  C   UNL     1       5.788  34.671  64.953  1.00  0.00    -0.048 A 
HETATM   13  C   UNL     1       6.781  34.050  65.736  1.00  0.00     0.009 A 
HETATM   14  C   UNL     1       6.729  34.082  67.132  1.00  0.00     0.024 A 
HETATM   15  C   UNL     1       5.675  34.725  67.769  1.00  0.00     0.034 A 
HETATM   16 CL   UNL     1       5.608  34.768  69.488  1.00  0.00    -0.084 Cl
HETATM   17  C   UNL     1       4.675  35.339  67.022  1.00  0.00     0.024 A 
HETATM   18  C   UNL     1       4.732  35.314  65.624  1.00  0.00     0.009 A 
ENDBRANCH   4  12
BRANCH   3  19
HETATM   19  C   UNL     1       6.325  32.810  61.765  1.00  0.00     0.266 C 
HETATM   20  O   UNL     1       6.504  33.393  60.705  1.00  0.00    -0.265 OA
BRANCH  19  21
HETATM   21  O   UNL     1       6.963  31.668  62.144  1.00  0.00    -0.326 OA
HETATM   22  C   UNL     1       8.216  31.882  62.797  1.00  0.00     0.213 C 
ENDBRANCH  19  21
ENDBRANCH   3  19
BRANCH   2  23
HETATM   23  O   UNL     1       2.986  33.265  63.394  1.00  0.00    -0.389 OA
HETATM   24  H   UNL     1       3.238  33.980  64.003  1.00  0.00     0.210 HD
ENDBRANCH   2  23
BRANCH  10  25
HETATM   25  O   UNL     1       6.515  37.780  63.583  1.00  0.00    -0.343 OA
HETATM   26  H   UNL     1       7.341  37.527  63.138  1.00  0.00     0.219 HD
ENDBRANCH  10  25
TORSDOF 5
ENDMDL
