MODEL 1
REMARK VINA RESULT:     -10.6      0.000      0.000
REMARK  8 active torsions:
REMARK  status: ('A' for Active; 'I' for Inactive)
REMARK    1  A    between atoms: C_4  and  C_5 
REMARK    2  A    between atoms: C_9  and  C_10 
REMARK       I    between atoms: C_10  and  N_11 
REMARK    3  A    between atoms: N_11  and  C_12 
REMARK    4  A    between atoms: C_12  and  C_13 
REMARK    5  A    between atoms: C_13  and  C_14 
REMARK    6  A    between atoms: C_14  and  C_15 
REMARK    7  A    between atoms: C_15  and  O_16 
REMARK    8  A    between atoms: O_16  and  C_17 
ROOT
HETATM    1  C   UNL     1       9.609  31.353  59.038  1.00  0.00     0.270 C 
HETATM    2  N   UNL     1       9.494  30.135  58.421  1.00  0.00    -0.345 N 
HETATM    3  O   UNL     1      10.198  32.299  58.527  1.00  0.00    -0.266 OA
HETATM    4  H   UNL     1       8.909  29.420  58.824  1.00  0.00     0.163 HD
ENDROOT
BRANCH   2   5
HETATM    5  C   UNL     1      10.023  29.915  57.100  1.00  0.00     0.217 C 
BRANCH   5   6
HETATM    6  C   UNL     1       9.013  29.107  56.301  1.00  0.00    -0.085 C 
BRANCH   6   7
HETATM    7  C   UNL     1       8.148  28.414  55.616  1.00  0.00    -0.078 C 
BRANCH   7   8
HETATM    8  C   UNL     1       7.138  27.606  54.818  1.00  0.00     0.269 C 
BRANCH   8   9
HETATM    9  O   UNL     1       6.806  26.436  55.562  1.00  0.00    -0.339 OA
BRANCH   9  10
HETATM   10  C   UNL     1       7.106  25.232  54.988  1.00  0.00     0.072 A 
HETATM   11  C   UNL     1       7.250  24.014  55.658  1.00  0.00     0.069 A 
HETATM   12  C   UNL     1       7.563  22.841  54.980  1.00  0.00     0.069 A 
HETATM   13  C   UNL     1       7.734  22.895  53.580  1.00  0.00    -0.007 A 
HETATM   14  N   UNL     1       7.694  21.697  55.675  1.00  0.00    -0.260 NA
HETATM   15  C   UNL     1       7.586  24.112  52.900  1.00  0.00     0.016 A 
HETATM   16  C   UNL     1       8.050  21.708  52.909  1.00  0.00     0.015 A 
HETATM   17  C   UNL     1       7.273  25.272  53.605  1.00  0.00     0.038 A 
HETATM   18  C   UNL     1       8.187  20.525  53.624  1.00  0.00     0.020 A 
HETATM   19  C   UNL     1       8.001  20.572  54.993  1.00  0.00     0.117 A 
ENDBRANCH   9  10
ENDBRANCH   8   9
ENDBRANCH   7   8
ENDBRANCH   6   7
ENDBRANCH   5   6
ENDBRANCH   2   5
BRANCH   1  20
HETATM   20  C   UNL     1       8.969  31.446  60.322  1.00  0.00     0.120 A 
HETATM   21  N   UNL     1       9.026  30.427  61.230  1.00  0.00    -0.272 N 
HETATM   22  N   UNL     1       8.404  30.687  62.391  1.00  0.00    -0.174 NA
HETATM   23  H   UNL     1       9.493  29.532  61.112  1.00  0.00     0.189 HD
HETATM   24  C   UNL     1       7.881  31.912  62.227  1.00  0.00     0.089 A 
HETATM   25  C   UNL     1       8.215  32.422  60.941  1.00  0.00     0.071 A 
BRANCH  24  26
HETATM   26  C   UNL     1       7.101  32.569  63.281  1.00  0.00    -0.006 A 
HETATM   27  C   UNL     1       7.746  33.165  64.374  1.00  0.00     0.014 A 
HETATM   28  C   UNL     1       7.012  33.811  65.372  1.00  0.00     0.001 A 
HETATM   29  C   UNL     1       5.622  33.863  65.292  1.00  0.00     0.000 A 
HETATM   30  C   UNL     1       4.966  33.267  64.217  1.00  0.00     0.001 A 
HETATM   31  C   UNL     1       5.701  32.625  63.216  1.00  0.00     0.014 A 
ENDBRANCH  24  26
ENDBRANCH   1  20
TORSDOF 8
ENDMDL
MODEL 2
REMARK VINA RESULT:      -9.6      1.958     11.994
REMARK  8 active torsions:
REMARK  status: ('A' for Active; 'I' for Inactive)
REMARK    1  A    between atoms: C_4  and  C_5 
REMARK    2  A    between atoms: C_9  and  C_10 
REMARK       I    between atoms: C_10  and  N_11 
REMARK    3  A    between atoms: N_11  and  C_12 
REMARK    4  A    between atoms: C_12  and  C_13 
REMARK    5  A    between atoms: C_13  and  C_14 
REMARK    6  A    between atoms: C_14  and  C_15 
REMARK    7  A    between atoms: C_15  and  O_16 
REMARK    8  A    between atoms: O_16  and  C_17 
ROOT
HETATM    1  C   UNL     1       7.406  27.898  57.148  1.00  0.00     0.270 C 
HETATM    2  N   UNL     1       8.593  28.569  57.283  1.00  0.00    -0.345 N 
HETATM    3  O   UNL     1       6.317  28.454  57.246  1.00  0.00    -0.266 OA
HETATM    4  H   UNL     1       9.462  28.098  57.086  1.00  0.00     0.163 HD
ENDROOT
BRANCH   2   5
HETATM    5  C   UNL     1       8.624  29.992  57.497  1.00  0.00     0.217 C 
BRANCH   5   6
HETATM    6  C   UNL     1       8.745  30.255  58.989  1.00  0.00    -0.085 C 
BRANCH   6   7
HETATM    7  C   UNL     1       8.849  30.480  60.269  1.00  0.00    -0.078 C 
BRANCH   7   8
HETATM    8  C   UNL     1       8.972  30.742  61.761  1.00  0.00     0.269 C 
BRANCH   8   9
HETATM    9  O   UNL     1       8.822  32.141  61.988  1.00  0.00    -0.339 OA
BRANCH   9  10
HETATM   10  C   UNL     1       7.789  32.530  62.796  1.00  0.00     0.072 A 
HETATM   11  C   UNL     1       7.903  33.018  64.100  1.00  0.00     0.069 A 
HETATM   12  C   UNL     1       6.786  33.383  64.843  1.00  0.00     0.069 A 
HETATM   13  C   UNL     1       5.511  33.254  64.253  1.00  0.00    -0.007 A 
HETATM   14  N   UNL     1       6.953  33.844  66.095  1.00  0.00    -0.260 NA
HETATM   15  C   UNL     1       5.388  32.769  62.942  1.00  0.00     0.016 A 
HETATM   16  C   UNL     1       4.393  33.623  65.011  1.00  0.00     0.015 A 
HETATM   17  C   UNL     1       6.525  32.410  62.222  1.00  0.00     0.038 A 
HETATM   18  C   UNL     1       4.563  34.098  66.305  1.00  0.00     0.020 A 
HETATM   19  C   UNL     1       5.851  34.189  66.797  1.00  0.00     0.117 A 
ENDBRANCH   9  10
ENDBRANCH   8   9
ENDBRANCH   7   8
ENDBRANCH   6   7
ENDBRANCH   5   6
ENDBRANCH   2   5
BRANCH   1  20
HETATM   20  C   UNL     1       7.532  26.494  56.865  1.00  0.00     0.120 A 
HETATM   21  N   UNL     1       7.636  25.564  57.861  1.00  0.00    -0.272 N 
HETATM   22  N   UNL     1       7.713  24.297  57.427  1.00  0.00    -0.174 NA
HETATM   23  H   UNL     1       7.644  25.743  58.861  1.00  0.00     0.189 HD
HETATM   24  C   UNL     1       7.700  24.396  56.088  1.00  0.00     0.089 A 
HETATM   25  C   UNL     1       7.586  25.759  55.697  1.00  0.00     0.071 A 
BRANCH  24  26
HETATM   26  C   UNL     1       7.780  23.216  55.221  1.00  0.00    -0.006 A 
HETATM   27  C   UNL     1       7.845  21.931  55.778  1.00  0.00     0.014 A 
HETATM   28  C   UNL     1       7.902  20.799  54.960  1.00  0.00     0.001 A 
HETATM   29  C   UNL     1       7.899  20.941  53.574  1.00  0.00     0.000 A 
HETATM   30  C   UNL     1       7.844  22.211  53.006  1.00  0.00     0.001 A 
HETATM   31  C   UNL     1       7.784  23.343  53.824  1.00  0.00     0.014 A 
ENDBRANCH  24  26
ENDBRANCH   1  20
TORSDOF 8
ENDMDL
MODEL 3
REMARK VINA RESULT:      -9.6      2.947      3.259
REMARK  8 active torsions:
REMARK  status: ('A' for Active; 'I' for Inactive)
REMARK    1  A    between atoms: C_4  and  C_5 
REMARK    2  A    between atoms: C_9  and  C_10 
REMARK       I    between atoms: C_10  and  N_11 
REMARK    3  A    between atoms: N_11  and  C_12 
REMARK    4  A    between atoms: C_12  and  C_13 
REMARK    5  A    between atoms: C_13  and  C_14 
REMARK    6  A    between atoms: C_14  and  C_15 
REMARK    7  A    between atoms: C_15  and  O_16 
REMARK    8  A    between atoms: O_16  and  C_17 
ROOT
HETATM    1  C   UNL     1       3.891  31.721  58.700  1.00  0.00     0.270 C 
HETATM    2  N   UNL     1       4.402  30.555  58.191  1.00  0.00    -0.345 N 
HETATM    3  O   UNL     1       3.258  32.518  58.017  1.00  0.00    -0.266 OA
HETATM    4  H   UNL     1       4.819  29.877  58.810  1.00  0.00     0.163 HD
ENDROOT
BRANCH   2   5
HETATM    5  C   UNL     1       4.174  30.176  56.822  1.00  0.00     0.217 C 
BRANCH   5   6
HETATM    6  C   UNL     1       4.574  28.720  56.648  1.00  0.00    -0.085 C 
BRANCH   6   7
HETATM    7  C   UNL     1       4.918  27.472  56.500  1.00  0.00    -0.078 C 
BRANCH   7   8
HETATM    8  C   UNL     1       5.320  26.016  56.327  1.00  0.00     0.269 C 
BRANCH   8   9
HETATM    9  O   UNL     1       6.638  25.972  55.787  1.00  0.00    -0.339 OA
BRANCH   9  10
HETATM   10  C   UNL     1       6.999  24.831  55.125  1.00  0.00     0.072 A 
HETATM   11  C   UNL     1       7.303  23.600  55.711  1.00  0.00     0.069 A 
HETATM   12  C   UNL     1       7.666  22.497  54.945  1.00  0.00     0.069 A 
HETATM   13  C   UNL     1       7.722  22.638  53.543  1.00  0.00    -0.007 A 
HETATM   14  N   UNL     1       7.951  21.337  55.562  1.00  0.00    -0.260 NA
HETATM   15  C   UNL     1       7.414  23.870  52.946  1.00  0.00     0.016 A 
HETATM   16  C   UNL     1       8.090  21.521  52.782  1.00  0.00     0.015 A 
HETATM   17  C   UNL     1       7.054  24.958  53.738  1.00  0.00     0.038 A 
HETATM   18  C   UNL     1       8.387  20.322  53.417  1.00  0.00     0.020 A 
HETATM   19  C   UNL     1       8.304  20.281  54.796  1.00  0.00     0.117 A 
ENDBRANCH   9  10
ENDBRANCH   8   9
ENDBRANCH   7   8
ENDBRANCH   6   7
ENDBRANCH   5   6
ENDBRANCH   2   5
BRANCH   1  20
HETATM   20  C   UNL     1       4.137  31.930  60.101  1.00  0.00     0.120 A 
HETATM   21  N   UNL     1       3.275  31.479  61.059  1.00  0.00    -0.272 N 
HETATM   22  N   UNL     1       3.668  31.728  62.318  1.00  0.00    -0.174 NA
HETATM   23  H   UNL     1       2.405  30.976  60.907  1.00  0.00     0.189 HD
HETATM   24  C   UNL     1       4.818  32.409  62.184  1.00  0.00     0.089 A 
HETATM   25  C   UNL     1       5.146  32.554  60.807  1.00  0.00     0.071 A 
BRANCH  24  26
HETATM   26  C   UNL     1       5.577  32.885  63.345  1.00  0.00    -0.006 A 
HETATM   27  C   UNL     1       4.912  33.437  64.449  1.00  0.00     0.014 A 
HETATM   28  C   UNL     1       5.626  33.876  65.567  1.00  0.00     0.001 A 
HETATM   29  C   UNL     1       7.015  33.774  65.592  1.00  0.00     0.000 A 
HETATM   30  C   UNL     1       7.690  33.237  64.498  1.00  0.00     0.001 A 
HETATM   31  C   UNL     1       6.976  32.794  63.381  1.00  0.00     0.014 A 
ENDBRANCH  24  26
ENDBRANCH   1  20
TORSDOF 8
ENDMDL
MODEL 4
REMARK VINA RESULT:      -9.5      1.483      2.109
REMARK  8 active torsions:
REMARK  status: ('A' for Active; 'I' for Inactive)
REMARK    1  A    between atoms: C_4  and  C_5 
REMARK    2  A    between atoms: C_9  and  C_10 
REMARK       I    between atoms: C_10  and  N_11 
REMARK    3  A    between atoms: N_11  and  C_12 
REMARK    4  A    between atoms: C_12  and  C_13 
REMARK    5  A    between atoms: C_13  and  C_14 
REMARK    6  A    between atoms: C_14  and  C_15 
REMARK    7  A    between atoms: C_15  and  O_16 
REMARK    8  A    between atoms: O_16  and  C_17 
ROOT
HETATM    1  C   UNL     1       9.735  29.951  57.261  1.00  0.00     0.270 C 
HETATM    2  N   UNL     1       8.655  29.618  56.484  1.00  0.00    -0.345 N 
HETATM    3  O   UNL     1      10.881  29.626  56.973  1.00  0.00    -0.266 OA
HETATM    4  H   UNL     1       7.746  29.998  56.697  1.00  0.00     0.163 HD
ENDROOT
BRANCH   2   5
HETATM    5  C   UNL     1       8.821  28.904  55.246  1.00  0.00     0.217 C 
BRANCH   5   6
HETATM    6  C   UNL     1       7.665  27.928  55.091  1.00  0.00    -0.085 C 
BRANCH   6   7
HETATM    7  C   UNL     1       6.674  27.092  54.958  1.00  0.00    -0.078 C 
BRANCH   7   8
HETATM    8  C   UNL     1       5.518  26.117  54.805  1.00  0.00     0.269 C 
BRANCH   8   9
HETATM    9  O   UNL     1       5.792  25.264  53.696  1.00  0.00    -0.339 OA
BRANCH   9  10
HETATM   10  C   UNL     1       6.551  24.153  53.943  1.00  0.00     0.072 A 
HETATM   11  C   UNL     1       6.824  23.604  55.198  1.00  0.00     0.069 A 
HETATM   12  C   UNL     1       7.617  22.470  55.342  1.00  0.00     0.069 A 
HETATM   13  C   UNL     1       8.150  21.868  54.183  1.00  0.00    -0.007 A 
HETATM   14  N   UNL     1       7.850  21.986  56.574  1.00  0.00    -0.260 NA
HETATM   15  C   UNL     1       7.877  22.410  52.918  1.00  0.00     0.016 A 
HETATM   16  C   UNL     1       8.948  20.728  54.340  1.00  0.00     0.015 A 
HETATM   17  C   UNL     1       7.081  23.547  52.804  1.00  0.00     0.038 A 
HETATM   18  C   UNL     1       9.192  20.226  55.613  1.00  0.00     0.020 A 
HETATM   19  C   UNL     1       8.625  20.885  56.687  1.00  0.00     0.117 A 
ENDBRANCH   9  10
ENDBRANCH   8   9
ENDBRANCH   7   8
ENDBRANCH   6   7
ENDBRANCH   5   6
ENDBRANCH   2   5
BRANCH   1  20
HETATM   20  C   UNL     1       9.424  30.727  58.431  1.00  0.00     0.120 A 
HETATM   21  N   UNL     1      10.194  31.786  58.818  1.00  0.00    -0.272 N 
HETATM   22  N   UNL     1       9.747  32.423  59.912  1.00  0.00    -0.174 NA
HETATM   23  H   UNL     1      11.033  32.128  58.359  1.00  0.00     0.189 HD
HETATM   24  C   UNL     1       8.659  31.731  60.286  1.00  0.00     0.089 A 
HETATM   25  C   UNL     1       8.423  30.659  59.380  1.00  0.00     0.071 A 
BRANCH  24  26
HETATM   26  C   UNL     1       7.871  32.102  61.465  1.00  0.00    -0.006 A 
HETATM   27  C   UNL     1       8.504  32.361  62.688  1.00  0.00     0.014 A 
HETATM   28  C   UNL     1       7.762  32.734  63.812  1.00  0.00     0.001 A 
HETATM   29  C   UNL     1       6.376  32.848  63.726  1.00  0.00     0.000 A 
HETATM   30  C   UNL     1       5.732  32.584  62.520  1.00  0.00     0.001 A 
HETATM   31  C   UNL     1       6.474  32.214  61.395  1.00  0.00     0.014 A 
ENDBRANCH  24  26
ENDBRANCH   1  20
TORSDOF 8
ENDMDL
MODEL 5
REMARK VINA RESULT:      -9.3      1.905      2.622
REMARK  8 active torsions:
REMARK  status: ('A' for Active; 'I' for Inactive)
REMARK    1  A    between atoms: C_4  and  C_5 
REMARK    2  A    between atoms: C_9  and  C_10 
REMARK       I    between atoms: C_10  and  N_11 
REMARK    3  A    between atoms: N_11  and  C_12 
REMARK    4  A    between atoms: C_12  and  C_13 
REMARK    5  A    between atoms: C_13  and  C_14 
REMARK    6  A    between atoms: C_14  and  C_15 
REMARK    7  A    between atoms: C_15  and  O_16 
REMARK    8  A    between atoms: O_16  and  C_17 
ROOT
HETATM    1  C   UNL     1       7.498  31.982  60.042  1.00  0.00     0.270 C 
HETATM    2  N   UNL     1       6.942  30.981  59.288  1.00  0.00    -0.345 N 
HETATM    3  O   UNL     1       8.496  32.600  59.687  1.00  0.00    -0.266 OA
HETATM    4  H   UNL     1       6.061  30.575  59.563  1.00  0.00     0.163 HD
ENDROOT
BRANCH   2   5
HETATM    5  C   UNL     1       7.477  30.634  57.998  1.00  0.00     0.217 C 
BRANCH   5   6
HETATM    6  C   UNL     1       6.764  29.390  57.496  1.00  0.00    -0.085 C 
BRANCH   6   7
HETATM    7  C   UNL     1       6.152  28.322  57.065  1.00  0.00    -0.078 C 
BRANCH   7   8
HETATM    8  C   UNL     1       5.440  27.076  56.563  1.00  0.00     0.269 C 
BRANCH   8   9
HETATM    9  O   UNL     1       5.913  25.955  57.305  1.00  0.00    -0.339 OA
BRANCH   9  10
HETATM   10  C   UNL     1       6.693  25.054  56.634  1.00  0.00     0.072 A 
HETATM   11  C   UNL     1       6.454  24.552  55.352  1.00  0.00     0.069 A 
HETATM   12  C   UNL     1       7.309  23.630  54.759  1.00  0.00     0.069 A 
HETATM   13  C   UNL     1       8.444  23.200  55.478  1.00  0.00    -0.007 A 
HETATM   14  N   UNL     1       7.030  23.178  53.523  1.00  0.00    -0.260 NA
HETATM   15  C   UNL     1       8.693  23.702  56.764  1.00  0.00     0.016 A 
HETATM   16  C   UNL     1       9.296  22.269  54.871  1.00  0.00     0.015 A 
HETATM   17  C   UNL     1       7.819  24.624  57.335  1.00  0.00     0.038 A 
HETATM   18  C   UNL     1       9.009  21.799  53.596  1.00  0.00     0.020 A 
HETATM   19  C   UNL     1       7.875  22.280  52.970  1.00  0.00     0.117 A 
ENDBRANCH   9  10
ENDBRANCH   8   9
ENDBRANCH   7   8
ENDBRANCH   6   7
ENDBRANCH   5   6
ENDBRANCH   2   5
BRANCH   1  20
HETATM   20  C   UNL     1       6.813  32.266  61.273  1.00  0.00     0.120 A 
HETATM   21  N   UNL     1       5.522  31.872  61.487  1.00  0.00    -0.272 N 
HETATM   22  N   UNL     1       5.043  32.188  62.700  1.00  0.00    -0.174 NA
HETATM   23  H   UNL     1       4.925  31.367  60.839  1.00  0.00     0.189 HD
HETATM   24  C   UNL     1       6.044  32.854  63.297  1.00  0.00     0.089 A 
HETATM   25  C   UNL     1       7.173  32.923  62.433  1.00  0.00     0.071 A 
BRANCH  24  26
HETATM   26  C   UNL     1       5.918  33.389  64.656  1.00  0.00    -0.006 A 
HETATM   27  C   UNL     1       4.652  33.610  65.217  1.00  0.00     0.014 A 
HETATM   28  C   UNL     1       4.523  34.102  66.519  1.00  0.00     0.001 A 
HETATM   29  C   UNL     1       5.659  34.384  67.274  1.00  0.00     0.000 A 
HETATM   30  C   UNL     1       6.924  34.178  66.727  1.00  0.00     0.001 A 
HETATM   31  C   UNL     1       7.053  33.683  65.426  1.00  0.00     0.014 A 
ENDBRANCH  24  26
ENDBRANCH   1  20
TORSDOF 8
ENDMDL
MODEL 6
REMARK VINA RESULT:      -9.1      2.447     11.652
REMARK  8 active torsions:
REMARK  status: ('A' for Active; 'I' for Inactive)
REMARK    1  A    between atoms: C_4  and  C_5 
REMARK    2  A    between atoms: C_9  and  C_10 
REMARK       I    between atoms: C_10  and  N_11 
REMARK    3  A    between atoms: N_11  and  C_12 
REMARK    4  A    between atoms: C_12  and  C_13 
REMARK    5  A    between atoms: C_13  and  C_14 
REMARK    6  A    between atoms: C_14  and  C_15 
REMARK    7  A    between atoms: C_15  and  O_16 
REMARK    8  A    between atoms: O_16  and  C_17 
ROOT
HETATM    1  C   UNL     1       5.925  27.777  54.350  1.00  0.00     0.270 C 
HETATM    2  N   UNL     1       5.070  28.215  55.328  1.00  0.00    -0.345 N 
HETATM    3  O   UNL     1       6.159  28.427  53.337  1.00  0.00    -0.266 OA
HETATM    4  H   UNL     1       4.990  27.704  56.193  1.00  0.00     0.163 HD
ENDROOT
BRANCH   2   5
HETATM    5  C   UNL     1       4.434  29.503  55.239  1.00  0.00     0.217 C 
BRANCH   5   6
HETATM    6  C   UNL     1       5.028  30.412  56.303  1.00  0.00    -0.085 C 
BRANCH   6   7
HETATM    7  C   UNL     1       5.537  31.192  57.215  1.00  0.00    -0.078 C 
BRANCH   7   8
HETATM    8  C   UNL     1       6.132  32.101  58.278  1.00  0.00     0.269 C 
BRANCH   8   9
HETATM    9  O   UNL     1       6.899  31.304  59.176  1.00  0.00    -0.339 OA
BRANCH   9  10
HETATM   10  C   UNL     1       7.035  31.769  60.456  1.00  0.00     0.072 A 
HETATM   11  C   UNL     1       6.001  32.209  61.285  1.00  0.00     0.069 A 
HETATM   12  C   UNL     1       6.246  32.671  62.574  1.00  0.00     0.069 A 
HETATM   13  C   UNL     1       7.576  32.688  63.044  1.00  0.00    -0.007 A 
HETATM   14  N   UNL     1       5.213  33.086  63.329  1.00  0.00    -0.260 NA
HETATM   15  C   UNL     1       8.620  32.243  62.219  1.00  0.00     0.016 A 
HETATM   16  C   UNL     1       7.810  33.156  64.343  1.00  0.00     0.015 A 
HETATM   17  C   UNL     1       8.345  31.787  60.931  1.00  0.00     0.038 A 
HETATM   18  C   UNL     1       6.745  33.587  65.124  1.00  0.00     0.020 A 
HETATM   19  C   UNL     1       5.477  33.532  64.577  1.00  0.00     0.117 A 
ENDBRANCH   9  10
ENDBRANCH   8   9
ENDBRANCH   7   8
ENDBRANCH   6   7
ENDBRANCH   5   6
ENDBRANCH   2   5
BRANCH   1  20
HETATM   20  C   UNL     1       6.542  26.505  54.610  1.00  0.00     0.120 A 
HETATM   21  N   UNL     1       7.375  26.312  55.676  1.00  0.00    -0.272 N 
HETATM   22  N   UNL     1       7.840  25.059  55.793  1.00  0.00    -0.174 NA
HETATM   23  H   UNL     1       7.647  27.005  56.367  1.00  0.00     0.189 HD
HETATM   24  C   UNL     1       7.326  24.407  54.738  1.00  0.00     0.089 A 
HETATM   25  C   UNL     1       6.505  25.281  53.972  1.00  0.00     0.071 A 
BRANCH  24  26
HETATM   26  C   UNL     1       7.607  22.989  54.490  1.00  0.00    -0.006 A 
HETATM   27  C   UNL     1       7.861  22.534  53.188  1.00  0.00     0.014 A 
HETATM   28  C   UNL     1       8.149  21.188  52.945  1.00  0.00     0.001 A 
HETATM   29  C   UNL     1       8.181  20.280  54.002  1.00  0.00     0.000 A 
HETATM   30  C   UNL     1       7.922  20.717  55.299  1.00  0.00     0.001 A 
HETATM   31  C   UNL     1       7.638  22.063  55.543  1.00  0.00     0.014 A 
ENDBRANCH  24  26
ENDBRANCH   1  20
TORSDOF 8
ENDMDL
MODEL 7
REMARK VINA RESULT:      -9.0      3.734     10.485
REMARK  8 active torsions:
REMARK  status: ('A' for Active; 'I' for Inactive)
REMARK    1  A    between atoms: C_4  and  C_5 
REMARK    2  A    between atoms: C_9  and  C_10 
REMARK       I    between atoms: C_10  and  N_11 
REMARK    3  A    between atoms: N_11  and  C_12 
REMARK    4  A    between atoms: C_12  and  C_13 
REMARK    5  A    between atoms: C_13  and  C_14 
REMARK    6  A    between atoms: C_14  and  C_15 
REMARK    7  A    between atoms: C_15  and  O_16 
REMARK    8  A    between atoms: O_16  and  C_17 
ROOT
HETATM    1  C   UNL     1       5.569  27.108  52.629  1.00  0.00     0.270 C 
HETATM    2  N   UNL     1       4.275  27.064  53.080  1.00  0.00    -0.345 N 
HETATM    3  O   UNL     1       6.076  28.129  52.178  1.00  0.00    -0.266 OA
HETATM    4  H   UNL     1       3.932  26.238  53.545  1.00  0.00     0.163 HD
ENDROOT
BRANCH   2   5
HETATM    5  C   UNL     1       3.451  28.244  53.095  1.00  0.00     0.217 C 
BRANCH   5   6
HETATM    6  C   UNL     1       3.678  28.978  54.407  1.00  0.00    -0.085 C 
BRANCH   6   7
HETATM    7  C   UNL     1       3.875  29.607  55.531  1.00  0.00    -0.078 C 
BRANCH   7   8
HETATM    8  C   UNL     1       4.103  30.341  56.843  1.00  0.00     0.269 C 
BRANCH   8   9
HETATM    9  O   UNL     1       4.923  29.529  57.678  1.00  0.00    -0.339 OA
BRANCH   9  10
HETATM   10  C   UNL     1       6.245  29.869  57.767  1.00  0.00     0.072 A 
HETATM   11  C   UNL     1       7.305  29.229  57.120  1.00  0.00     0.069 A 
HETATM   12  C   UNL     1       8.620  29.651  57.282  1.00  0.00     0.069 A 
HETATM   13  C   UNL     1       8.877  30.755  58.122  1.00  0.00    -0.007 A 
HETATM   14  N   UNL     1       9.602  28.996  56.637  1.00  0.00    -0.260 NA
HETATM   15  C   UNL     1       7.818  31.406  58.772  1.00  0.00     0.016 A 
HETATM   16  C   UNL     1      10.205  31.169  58.279  1.00  0.00     0.015 A 
HETATM   17  C   UNL     1       6.510  30.961  58.592  1.00  0.00     0.038 A 
HETATM   18  C   UNL     1      11.222  30.494  57.615  1.00  0.00     0.020 A 
HETATM   19  C   UNL     1      10.872  29.424  56.814  1.00  0.00     0.117 A 
ENDBRANCH   9  10
ENDBRANCH   8   9
ENDBRANCH   7   8
ENDBRANCH   6   7
ENDBRANCH   5   6
ENDBRANCH   2   5
BRANCH   1  20
HETATM   20  C   UNL     1       6.293  25.872  52.743  1.00  0.00     0.120 A 
HETATM   21  N   UNL     1       7.238  25.504  51.828  1.00  0.00    -0.272 N 
HETATM   22  N   UNL     1       7.843  24.337  52.098  1.00  0.00    -0.174 NA
HETATM   23  H   UNL     1       7.521  26.024  51.002  1.00  0.00     0.189 HD
HETATM   24  C   UNL     1       7.245  23.896  53.216  1.00  0.00     0.089 A 
HETATM   25  C   UNL     1       6.267  24.833  53.652  1.00  0.00     0.071 A 
BRANCH  24  26
HETATM   26  C   UNL     1       7.617  22.626  53.846  1.00  0.00    -0.006 A 
HETATM   27  C   UNL     1       8.019  21.536  53.061  1.00  0.00     0.014 A 
HETATM   28  C   UNL     1       8.393  20.327  53.654  1.00  0.00     0.001 A 
HETATM   29  C   UNL     1       8.365  20.192  55.041  1.00  0.00     0.000 A 
HETATM   30  C   UNL     1       7.959  21.263  55.833  1.00  0.00     0.001 A 
HETATM   31  C   UNL     1       7.588  22.474  55.241  1.00  0.00     0.014 A 
ENDBRANCH  24  26
ENDBRANCH   1  20
TORSDOF 8
ENDMDL
MODEL 8
REMARK VINA RESULT:      -9.0      2.498      3.932
REMARK  8 active torsions:
REMARK  status: ('A' for Active; 'I' for Inactive)
REMARK    1  A    between atoms: C_4  and  C_5 
REMARK    2  A    between atoms: C_9  and  C_10 
REMARK       I    between atoms: C_10  and  N_11 
REMARK    3  A    between atoms: N_11  and  C_12 
REMARK    4  A    between atoms: C_12  and  C_13 
REMARK    5  A    between atoms: C_13  and  C_14 
REMARK    6  A    between atoms: C_14  and  C_15 
REMARK    7  A    between atoms: C_15  and  O_16 
REMARK    8  A    between atoms: O_16  and  C_17 
ROOT
HETATM    1  C   UNL     1       5.647  29.568  55.911  1.00  0.00     0.270 C 
HETATM    2  N   UNL     1       5.262  28.269  55.697  1.00  0.00    -0.345 N 
HETATM    3  O   UNL     1       5.330  30.483  55.160  1.00  0.00    -0.266 OA
HETATM    4  H   UNL     1       5.451  27.567  56.396  1.00  0.00     0.163 HD
ENDROOT
BRANCH   2   5
HETATM    5  C   UNL     1       4.410  27.917  54.592  1.00  0.00     0.217 C 
BRANCH   5   6
HETATM    6  C   UNL     1       5.217  27.095  53.601  1.00  0.00    -0.085 C 
BRANCH   6   7
HETATM    7  C   UNL     1       5.909  26.389  52.751  1.00  0.00    -0.078 C 
BRANCH   7   8
HETATM    8  C   UNL     1       6.715  25.566  51.759  1.00  0.00     0.269 C 
BRANCH   8   9
HETATM    9  O   UNL     1       7.962  25.228  52.361  1.00  0.00    -0.339 OA
BRANCH   9  10
HETATM   10  C   UNL     1       7.987  24.110  53.148  1.00  0.00     0.072 A 
HETATM   11  C   UNL     1       8.170  24.081  54.532  1.00  0.00     0.069 A 
HETATM   12  C   UNL     1       8.185  22.885  55.242  1.00  0.00     0.069 A 
HETATM   13  C   UNL     1       8.008  21.678  54.534  1.00  0.00    -0.007 A 
HETATM   14  N   UNL     1       8.368  22.916  56.574  1.00  0.00    -0.260 NA
HETATM   15  C   UNL     1       7.819  21.698  53.144  1.00  0.00     0.016 A 
HETATM   16  C   UNL     1       8.027  20.480  55.259  1.00  0.00     0.015 A 
HETATM   17  C   UNL     1       7.810  22.911  52.459  1.00  0.00     0.038 A 
HETATM   18  C   UNL     1       8.217  20.509  56.635  1.00  0.00     0.020 A 
HETATM   19  C   UNL     1       8.381  21.740  57.240  1.00  0.00     0.117 A 
ENDBRANCH   9  10
ENDBRANCH   8   9
ENDBRANCH   7   8
ENDBRANCH   6   7
ENDBRANCH   5   6
ENDBRANCH   2   5
BRANCH   1  20
HETATM   20  C   UNL     1       6.436  29.779  57.094  1.00  0.00     0.120 A 
HETATM   21  N   UNL     1       7.424  28.912  57.466  1.00  0.00    -0.272 N 
HETATM   22  N   UNL     1       8.086  29.273  58.576  1.00  0.00    -0.174 NA
HETATM   23  H   UNL     1       7.698  28.060  56.985  1.00  0.00     0.189 HD
HETATM   24  C   UNL     1       7.484  30.404  58.977  1.00  0.00     0.089 A 
HETATM   25  C   UNL     1       6.444  30.755  58.071  1.00  0.00     0.071 A 
BRANCH  24  26
HETATM   26  C   UNL     1       7.910  31.125  60.180  1.00  0.00    -0.006 A 
HETATM   27  C   UNL     1       7.036  32.016  60.820  1.00  0.00     0.014 A 
HETATM   28  C   UNL     1       7.426  32.693  61.979  1.00  0.00     0.001 A 
HETATM   29  C   UNL     1       8.699  32.491  62.508  1.00  0.00     0.000 A 
HETATM   30  C   UNL     1       9.581  31.616  61.879  1.00  0.00     0.001 A 
HETATM   31  C   UNL     1       9.190  30.936  60.722  1.00  0.00     0.014 A 
ENDBRANCH  24  26
ENDBRANCH   1  20
TORSDOF 8
ENDMDL
MODEL 9
REMARK VINA RESULT:      -8.4      6.441     10.244
REMARK  8 active torsions:
REMARK  status: ('A' for Active; 'I' for Inactive)
REMARK    1  A    between atoms: C_4  and  C_5 
REMARK    2  A    between atoms: C_9  and  C_10 
REMARK       I    between atoms: C_10  and  N_11 
REMARK    3  A    between atoms: N_11  and  C_12 
REMARK    4  A    between atoms: C_12  and  C_13 
REMARK    5  A    between atoms: C_13  and  C_14 
REMARK    6  A    between atoms: C_14  and  C_15 
REMARK    7  A    between atoms: C_15  and  O_16 
REMARK    8  A    between atoms: O_16  and  C_17 
ROOT
HETATM    1  C   UNL     1       5.433  28.499  52.690  1.00  0.00     0.270 C 
HETATM    2  N   UNL     1       4.582  29.074  53.598  1.00  0.00    -0.345 N 
HETATM    3  O   UNL     1       6.588  28.197  52.968  1.00  0.00    -0.266 OA
HETATM    4  H   UNL     1       3.610  29.205  53.364  1.00  0.00     0.163 HD
ENDROOT
BRANCH   2   5
HETATM    5  C   UNL     1       4.991  29.308  54.958  1.00  0.00     0.217 C 
BRANCH   5   6
HETATM    6  C   UNL     1       5.099  27.969  55.669  1.00  0.00    -0.085 C 
BRANCH   6   7
HETATM    7  C   UNL     1       5.192  26.821  56.279  1.00  0.00    -0.078 C 
BRANCH   7   8
HETATM    8  C   UNL     1       5.302  25.482  56.991  1.00  0.00     0.269 C 
BRANCH   8   9
HETATM    9  O   UNL     1       6.666  25.071  56.972  1.00  0.00    -0.339 OA
BRANCH   9  10
HETATM   10  C   UNL     1       7.019  24.141  56.033  1.00  0.00     0.072 A 
HETATM   11  C   UNL     1       7.608  22.899  56.285  1.00  0.00     0.069 A 
HETATM   12  C   UNL     1       7.935  22.024  55.255  1.00  0.00     0.069 A 
HETATM   13  C   UNL     1       7.658  22.411  53.927  1.00  0.00    -0.007 A 
HETATM   14  N   UNL     1       8.503  20.843  55.555  1.00  0.00    -0.260 NA
HETATM   15  C   UNL     1       7.063  23.654  53.665  1.00  0.00     0.016 A 
HETATM   16  C   UNL     1       7.994  21.523  52.898  1.00  0.00     0.015 A 
HETATM   17  C   UNL     1       6.747  24.511  54.717  1.00  0.00     0.038 A 
HETATM   18  C   UNL     1       8.582  20.302  53.205  1.00  0.00     0.020 A 
HETATM   19  C   UNL     1       8.814  20.011  54.536  1.00  0.00     0.117 A 
ENDBRANCH   9  10
ENDBRANCH   8   9
ENDBRANCH   7   8
ENDBRANCH   6   7
ENDBRANCH   5   6
ENDBRANCH   2   5
BRANCH   1  20
HETATM   20  C   UNL     1       4.863  28.259  51.392  1.00  0.00     0.120 A 
HETATM   21  N   UNL     1       5.500  27.495  50.456  1.00  0.00    -0.272 N 
HETATM   22  N   UNL     1       4.817  27.343  49.311  1.00  0.00    -0.174 NA
HETATM   23  H   UNL     1       6.401  27.036  50.556  1.00  0.00     0.189 HD
HETATM   24  C   UNL     1       3.703  28.072  49.482  1.00  0.00     0.089 A 
HETATM   25  C   UNL     1       3.695  28.661  50.777  1.00  0.00     0.071 A 
BRANCH  24  26
HETATM   26  C   UNL     1       2.679  28.180  48.438  1.00  0.00    -0.006 A 
HETATM   27  C   UNL     1       1.746  27.150  48.250  1.00  0.00     0.014 A 
HETATM   28  C   UNL     1       0.755  27.254  47.270  1.00  0.00     0.001 A 
HETATM   29  C   UNL     1       0.688  28.387  46.463  1.00  0.00     0.000 A 
HETATM   30  C   UNL     1       1.614  29.414  46.632  1.00  0.00     0.001 A 
HETATM   31  C   UNL     1       2.603  29.313  47.614  1.00  0.00     0.014 A 
ENDBRANCH  24  26
ENDBRANCH   1  20
TORSDOF 8
ENDMDL
MODEL 10
REMARK VINA RESULT:      -8.1      7.900     12.219
REMARK  8 active torsions:
REMARK  status: ('A' for Active; 'I' for Inactive)
REMARK    1  A    between atoms: C_4  and  C_5 
REMARK    2  A    between atoms: C_9  and  C_10 
REMARK       I    between atoms: C_10  and  N_11 
REMARK    3  A    between atoms: N_11  and  C_12 
REMARK    4  A    between atoms: C_12  and  C_13 
REMARK    5  A    between atoms: C_13  and  C_14 
REMARK    6  A    between atoms: C_14  and  C_15 
REMARK    7  A    between atoms: C_15  and  O_16 
REMARK    8  A    between atoms: O_16  and  C_17 
ROOT
HETATM    1  C   UNL     1       5.237  27.076  53.475  1.00  0.00     0.270 C 
HETATM    2  N   UNL     1       5.780  27.516  52.295  1.00  0.00    -0.345 N 
HETATM    3  O   UNL     1       4.290  27.636  54.015  1.00  0.00    -0.266 OA
HETATM    4  H   UNL     1       6.484  26.965  51.829  1.00  0.00     0.163 HD
ENDROOT
BRANCH   2   5
HETATM    5  C   UNL     1       5.224  28.643  51.594  1.00  0.00     0.217 C 
BRANCH   5   6
HETATM    6  C   UNL     1       4.468  28.132  50.378  1.00  0.00    -0.085 C 
BRANCH   6   7
HETATM    7  C   UNL     1       3.820  27.693  49.335  1.00  0.00    -0.078 C 
BRANCH   7   8
HETATM    8  C   UNL     1       3.065  27.180  48.120  1.00  0.00     0.269 C 
BRANCH   8   9
HETATM    9  O   UNL     1       1.670  27.365  48.344  1.00  0.00    -0.339 OA
BRANCH   9  10
HETATM   10  C   UNL     1       0.941  27.893  47.314  1.00  0.00     0.072 A 
HETATM   11  C   UNL     1       0.378  27.180  46.253  1.00  0.00     0.069 A 
HETATM   12  C   UNL     1      -0.343  27.815  45.248  1.00  0.00     0.069 A 
HETATM   13  C   UNL     1      -0.505  29.215  45.314  1.00  0.00    -0.007 A 
HETATM   14  N   UNL     1      -0.861  27.079  44.249  1.00  0.00    -0.260 NA
HETATM   15  C   UNL     1       0.053  29.938  46.379  1.00  0.00     0.016 A 
HETATM   16  C   UNL     1      -1.232  29.843  44.296  1.00  0.00     0.015 A 
HETATM   17  C   UNL     1       0.772  29.276  47.371  1.00  0.00     0.038 A 
HETATM   18  C   UNL     1      -1.767  29.086  43.261  1.00  0.00     0.020 A 
HETATM   19  C   UNL     1      -1.556  27.720  43.283  1.00  0.00     0.117 A 
ENDBRANCH   9  10
ENDBRANCH   8   9
ENDBRANCH   7   8
ENDBRANCH   6   7
ENDBRANCH   5   6
ENDBRANCH   2   5
BRANCH   1  20
HETATM   20  C   UNL     1       5.851  25.897  54.023  1.00  0.00     0.120 A 
HETATM   21  N   UNL     1       6.066  25.754  55.364  1.00  0.00    -0.272 N 
HETATM   22  N   UNL     1       6.617  24.581  55.712  1.00  0.00    -0.174 NA
HETATM   23  H   UNL     1       5.838  26.425  56.092  1.00  0.00     0.189 HD
HETATM   24  C   UNL     1       6.812  23.940  54.549  1.00  0.00     0.089 A 
HETATM   25  C   UNL     1       6.342  24.734  53.465  1.00  0.00     0.071 A 
BRANCH  24  26
HETATM   26  C   UNL     1       7.415  22.604  54.490  1.00  0.00    -0.006 A 
HETATM   27  C   UNL     1       7.717  22.016  53.254  1.00  0.00     0.014 A 
HETATM   28  C   UNL     1       8.309  20.752  53.189  1.00  0.00     0.001 A 
HETATM   29  C   UNL     1       8.602  20.059  54.362  1.00  0.00     0.000 A 
HETATM   30  C   UNL     1       8.299  20.627  55.597  1.00  0.00     0.001 A 
HETATM   31  C   UNL     1       7.710  21.892  55.662  1.00  0.00     0.014 A 
ENDBRANCH  24  26
ENDBRANCH   1  20
TORSDOF 8
ENDMDL
