MODEL 1
REMARK VINA RESULT:      -9.9      0.000      0.000
REMARK  10 active torsions:
REMARK  status: ('A' for Active; 'I' for Inactive)
REMARK    1  A    between atoms: C_2  and  N_3 
REMARK    2  A    between atoms: N_3  and  C_4 
REMARK    3  A    between atoms: N_3  and  C_37 
REMARK    4  A    between atoms: C_7  and  C_8 
REMARK    5  A    between atoms: N_9  and  C_11 
REMARK    6  A    between atoms: C_11  and  C_12 
REMARK       I    between atoms: C_12  and  N_13 
REMARK    7  A    between atoms: N_13  and  C_14 
REMARK    8  A    between atoms: C_20  and  C_21 
REMARK    9  A    between atoms: C_21  and  O_22 
REMARK   10  A    between atoms: C_28  and  O_29 
ROOT
HETATM    1  C   UNL     1       7.111  27.495  54.636  1.00  0.00     0.228 C 
HETATM    2  N   UNL     1       6.856  27.995  56.077  1.00  0.00    -0.054 N 
HETATM    3  H   UNL     1       7.434  27.368  56.658  1.00  0.00     0.281 HD
HETATM    4  C   UNL     1       5.412  27.893  56.517  1.00  0.00     0.239 C 
HETATM    5  C   UNL     1       4.490  28.640  55.570  1.00  0.00     0.066 C 
HETATM    6  C   UNL     1       4.657  28.162  54.121  1.00  0.00     0.065 C 
HETATM    7  C   UNL     1       6.137  28.282  53.692  1.00  0.00     0.055 C 
HETATM    8  C   UNL     1       3.727  28.985  53.207  1.00  0.00     0.038 C 
HETATM    9  C   UNL     1       3.955  28.726  51.718  1.00  0.00     0.003 C 
HETATM   10  C   UNL     1       5.419  28.899  51.340  1.00  0.00     0.001 C 
HETATM   11  C   UNL     1       6.313  27.998  52.189  1.00  0.00     0.010 C 
ENDROOT
BRANCH   2  12
HETATM   12  C   UNL     1       7.425  29.389  56.386  1.00  0.00     0.338 C 
BRANCH  12  13
HETATM   13  C   UNL     1       7.599  29.689  57.874  1.00  0.00     0.248 C 
HETATM   14  N   UNL     1       7.214  30.978  58.183  1.00  0.00    -0.319 N 
HETATM   15  H   UNL     1       6.933  31.609  57.429  1.00  0.00     0.169 HD
HETATM   16  O   UNL     1       8.047  28.814  58.609  1.00  0.00    -0.271 OA
BRANCH  14  17
HETATM   17  C   UNL     1       7.180  31.591  59.428  1.00  0.00     0.094 A 
HETATM   18  S   UNL     1       8.342  31.266  60.606  1.00  0.00    -0.076 SA
HETATM   19  C   UNL     1       7.592  32.298  61.740  1.00  0.00    -0.012 A 
HETATM   20  C   UNL     1       8.192  32.430  63.104  1.00  0.00     0.057 C 
HETATM   21  C   UNL     1       6.472  32.929  61.217  1.00  0.00    -0.030 A 
HETATM   22  C   UNL     1       5.641  33.925  61.971  1.00  0.00     0.050 C 
HETATM   23  C   UNL     1       6.209  32.491  59.854  1.00  0.00     0.080 A 
BRANCH  23  24
HETATM   24  C   UNL     1       5.108  32.886  58.961  1.00  0.00     0.296 C 
HETATM   25  O   UNL     1       5.290  33.653  58.016  1.00  0.00    -0.259 OA
BRANCH  24  26
HETATM   26  O   UNL     1       3.912  32.323  59.273  1.00  0.00    -0.322 OA
HETATM   27  C   UNL     1       3.571  31.126  58.568  1.00  0.00     0.213 C 
ENDBRANCH  24  26
ENDBRANCH  23  24
ENDBRANCH  14  17
ENDBRANCH  12  13
ENDBRANCH   2  12
BRANCH   1  28
HETATM   28  C   UNL     1       7.150  25.971  54.475  1.00  0.00    -0.027 C 
HETATM   29  C   UNL     1       7.624  25.295  53.348  1.00  0.00     0.011 C 
HETATM   30  C   UNL     1       7.834  23.904  53.355  1.00  0.00     0.030 C 
HETATM   31  C   UNL     1       7.574  23.108  54.476  1.00  0.00     0.030 C 
HETATM   32  C   UNL     1       6.913  23.766  55.519  1.00  0.00     0.030 C 
HETATM   33  C   UNL     1       6.688  25.153  55.514  1.00  0.00     0.011 C 
BRANCH  31  34
HETATM   34  N   UNL     1       7.925  21.760  54.551  1.00  0.00    -0.382 N 
BRANCH  34  35
HETATM   35  C   UNL     1       7.790  21.050  55.839  1.00  0.00     0.118 C 
HETATM   36  C   UNL     1       9.111  20.426  56.272  1.00  0.00     0.026 C 
ENDBRANCH  34  35
BRANCH  34  37
HETATM   37  C   UNL     1       8.909  21.171  53.626  1.00  0.00     0.118 C 
HETATM   38  C   UNL     1       8.216  20.325  52.570  1.00  0.00     0.026 C 
ENDBRANCH  34  37
ENDBRANCH  31  34
ENDBRANCH   1  28
BRANCH   6  39
HETATM   39  O   UNL     1       4.240  26.800  54.104  1.00  0.00    -0.389 OA
HETATM   40  H   UNL     1       4.864  26.246  54.607  1.00  0.00     0.210 HD
ENDBRANCH   6  39
TORSDOF 10
ENDMDL
MODEL 2
REMARK VINA RESULT:      -9.8      1.488      2.370
REMARK  10 active torsions:
REMARK  status: ('A' for Active; 'I' for Inactive)
REMARK    1  A    between atoms: C_2  and  N_3 
REMARK    2  A    between atoms: N_3  and  C_4 
REMARK    3  A    between atoms: N_3  and  C_37 
REMARK    4  A    between atoms: C_7  and  C_8 
REMARK    5  A    between atoms: N_9  and  C_11 
REMARK    6  A    between atoms: C_11  and  C_12 
REMARK       I    between atoms: C_12  and  N_13 
REMARK    7  A    between atoms: N_13  and  C_14 
REMARK    8  A    between atoms: C_20  and  C_21 
REMARK    9  A    between atoms: C_21  and  O_22 
REMARK   10  A    between atoms: C_28  and  O_29 
ROOT
HETATM    1  C   UNL     1       7.069  27.549  54.579  1.00  0.00     0.228 C 
HETATM    2  N   UNL     1       6.765  28.024  56.019  1.00  0.00    -0.054 N 
HETATM    3  H   UNL     1       7.377  27.434  56.604  1.00  0.00     0.281 HD
HETATM    4  C   UNL     1       5.326  27.824  56.441  1.00  0.00     0.239 C 
HETATM    5  C   UNL     1       4.367  28.513  55.486  1.00  0.00     0.066 C 
HETATM    6  C   UNL     1       4.582  28.054  54.037  1.00  0.00     0.065 C 
HETATM    7  C   UNL     1       6.056  28.274  53.627  1.00  0.00     0.055 C 
HETATM    8  C   UNL     1       3.611  28.818  53.115  1.00  0.00     0.038 C 
HETATM    9  C   UNL     1       3.873  28.582  51.628  1.00  0.00     0.003 C 
HETATM   10  C   UNL     1       5.327  28.854  51.268  1.00  0.00     0.001 C 
HETATM   11  C   UNL     1       6.268  28.010  52.125  1.00  0.00     0.010 C 
ENDROOT
BRANCH   2  12
HETATM   12  C   UNL     1       7.236  29.451  56.341  1.00  0.00     0.338 C 
BRANCH  12  13
HETATM   13  C   UNL     1       7.223  29.805  57.827  1.00  0.00     0.248 C 
HETATM   14  N   UNL     1       6.722  31.072  58.045  1.00  0.00    -0.319 N 
HETATM   15  H   UNL     1       6.487  31.661  57.243  1.00  0.00     0.169 HD
HETATM   16  O   UNL     1       7.642  28.984  58.637  1.00  0.00    -0.271 OA
BRANCH  14  17
HETATM   17  C   UNL     1       6.510  31.717  59.256  1.00  0.00     0.094 A 
HETATM   18  S   UNL     1       4.984  32.281  59.702  1.00  0.00    -0.076 SA
HETATM   19  C   UNL     1       5.569  32.933  61.167  1.00  0.00    -0.012 A 
HETATM   20  C   UNL     1       4.614  33.643  62.074  1.00  0.00     0.057 C 
HETATM   21  C   UNL     1       6.925  32.692  61.346  1.00  0.00    -0.030 A 
HETATM   22  C   UNL     1       7.698  33.109  62.563  1.00  0.00     0.050 C 
HETATM   23  C   UNL     1       7.491  31.994  60.202  1.00  0.00     0.080 A 
BRANCH  23  24
HETATM   24  C   UNL     1       8.887  31.585  59.977  1.00  0.00     0.296 C 
HETATM   25  O   UNL     1       9.419  30.713  60.663  1.00  0.00    -0.259 OA
BRANCH  24  26
HETATM   26  O   UNL     1       9.500  32.241  58.958  1.00  0.00    -0.322 OA
HETATM   27  C   UNL     1      10.382  31.465  58.143  1.00  0.00     0.213 C 
ENDBRANCH  24  26
ENDBRANCH  23  24
ENDBRANCH  14  17
ENDBRANCH  12  13
ENDBRANCH   2  12
BRANCH   1  28
HETATM   28  C   UNL     1       7.211  26.032  54.412  1.00  0.00    -0.027 C 
HETATM   29  C   UNL     1       7.607  25.388  53.237  1.00  0.00     0.011 C 
HETATM   30  C   UNL     1       7.928  24.018  53.218  1.00  0.00     0.030 C 
HETATM   31  C   UNL     1       7.861  23.212  54.359  1.00  0.00     0.030 C 
HETATM   32  C   UNL     1       7.272  23.823  55.472  1.00  0.00     0.030 C 
HETATM   33  C   UNL     1       6.938  25.187  55.495  1.00  0.00     0.011 C 
BRANCH  31  34
HETATM   34  N   UNL     1       8.325  21.897  54.393  1.00  0.00    -0.382 N 
BRANCH  34  35
HETATM   35  C   UNL     1       7.690  20.885  53.525  1.00  0.00     0.118 C 
HETATM   36  C   UNL     1       8.689  20.292  52.538  1.00  0.00     0.026 C 
ENDBRANCH  34  35
BRANCH  34  37
HETATM   37  C   UNL     1       8.991  21.350  55.588  1.00  0.00     0.118 C 
HETATM   38  C   UNL     1       8.098  20.336  56.285  1.00  0.00     0.026 C 
ENDBRANCH  34  37
ENDBRANCH  31  34
ENDBRANCH   1  28
BRANCH   6  39
HETATM   39  O   UNL     1       4.258  26.667  54.009  1.00  0.00    -0.389 OA
HETATM   40  H   UNL     1       3.492  26.485  54.583  1.00  0.00     0.210 HD
ENDBRANCH   6  39
TORSDOF 10
ENDMDL
MODEL 3
REMARK VINA RESULT:      -8.6      1.552      2.714
REMARK  10 active torsions:
REMARK  status: ('A' for Active; 'I' for Inactive)
REMARK    1  A    between atoms: C_2  and  N_3 
REMARK    2  A    between atoms: N_3  and  C_4 
REMARK    3  A    between atoms: N_3  and  C_37 
REMARK    4  A    between atoms: C_7  and  C_8 
REMARK    5  A    between atoms: N_9  and  C_11 
REMARK    6  A    between atoms: C_11  and  C_12 
REMARK       I    between atoms: C_12  and  N_13 
REMARK    7  A    between atoms: N_13  and  C_14 
REMARK    8  A    between atoms: C_20  and  C_21 
REMARK    9  A    between atoms: C_21  and  O_22 
REMARK   10  A    between atoms: C_28  and  O_29 
ROOT
HETATM    1  C   UNL     1       6.127  28.181  54.148  1.00  0.00     0.228 C 
HETATM    2  N   UNL     1       5.310  28.686  55.361  1.00  0.00    -0.054 N 
HETATM    3  H   UNL     1       5.770  28.235  56.168  1.00  0.00     0.281 HD
HETATM    4  C   UNL     1       3.852  28.285  55.329  1.00  0.00     0.239 C 
HETATM    5  C   UNL     1       3.175  28.756  54.053  1.00  0.00     0.066 C 
HETATM    6  C   UNL     1       3.909  28.252  52.803  1.00  0.00     0.065 C 
HETATM    7  C   UNL     1       5.393  28.679  52.854  1.00  0.00     0.055 C 
HETATM    8  C   UNL     1       3.199  28.797  51.547  1.00  0.00     0.038 C 
HETATM    9  C   UNL     1       3.960  28.519  50.252  1.00  0.00     0.003 C 
HETATM   10  C   UNL     1       5.403  28.996  50.338  1.00  0.00     0.001 C 
HETATM   11  C   UNL     1       6.116  28.364  51.532  1.00  0.00     0.010 C 
ENDROOT
BRANCH   2  12
HETATM   12  C   UNL     1       5.459  30.186  55.660  1.00  0.00     0.338 C 
BRANCH  12  13
HETATM   13  C   UNL     1       5.480  30.538  57.146  1.00  0.00     0.248 C 
HETATM   14  N   UNL     1       6.700  31.055  57.531  1.00  0.00    -0.319 N 
HETATM   15  H   UNL     1       7.465  31.088  56.853  1.00  0.00     0.169 HD
HETATM   16  O   UNL     1       4.475  30.333  57.820  1.00  0.00    -0.271 OA
BRANCH  14  17
HETATM   17  C   UNL     1       7.077  31.533  58.779  1.00  0.00     0.094 A 
HETATM   18  S   UNL     1       6.066  32.531  59.687  1.00  0.00    -0.076 SA
HETATM   19  C   UNL     1       7.216  32.687  60.938  1.00  0.00    -0.012 A 
HETATM   20  C   UNL     1       6.885  33.541  62.121  1.00  0.00     0.057 C 
HETATM   21  C   UNL     1       8.365  31.948  60.692  1.00  0.00    -0.030 A 
HETATM   22  C   UNL     1       9.525  31.860  61.640  1.00  0.00     0.050 C 
HETATM   23  C   UNL     1       8.297  31.283  59.399  1.00  0.00     0.080 A 
BRANCH  23  24
HETATM   24  C   UNL     1       9.311  30.439  58.748  1.00  0.00     0.296 C 
HETATM   25  O   UNL     1       9.164  29.221  58.647  1.00  0.00    -0.259 OA
BRANCH  24  26
HETATM   26  O   UNL     1      10.384  31.125  58.277  1.00  0.00    -0.322 OA
HETATM   27  C   UNL     1      11.296  30.390  57.457  1.00  0.00     0.213 C 
ENDBRANCH  24  26
ENDBRANCH  23  24
ENDBRANCH  14  17
ENDBRANCH  12  13
ENDBRANCH   2  12
BRANCH   1  28
HETATM   28  C   UNL     1       6.513  26.698  54.197  1.00  0.00    -0.027 C 
HETATM   29  C   UNL     1       7.311  26.046  53.253  1.00  0.00     0.011 C 
HETATM   30  C   UNL     1       7.805  24.747  53.476  1.00  0.00     0.030 C 
HETATM   31  C   UNL     1       7.524  24.023  54.639  1.00  0.00     0.030 C 
HETATM   32  C   UNL     1       6.564  24.607  55.473  1.00  0.00     0.030 C 
HETATM   33  C   UNL     1       6.057  25.898  55.251  1.00  0.00     0.011 C 
BRANCH  31  34
HETATM   34  N   UNL     1       8.131  22.805  54.944  1.00  0.00    -0.382 N 
BRANCH  34  35
HETATM   35  C   UNL     1       8.466  22.496  56.348  1.00  0.00     0.118 C 
HETATM   36  C   UNL     1       8.379  21.000  56.626  1.00  0.00     0.026 C 
ENDBRANCH  34  35
BRANCH  34  37
HETATM   37  C   UNL     1       8.939  22.080  53.946  1.00  0.00     0.118 C 
HETATM   38  C   UNL     1       8.062  21.171  53.101  1.00  0.00     0.026 C 
ENDBRANCH  34  37
ENDBRANCH  31  34
ENDBRANCH   1  28
BRANCH   6  39
HETATM   39  O   UNL     1       3.796  26.833  52.823  1.00  0.00    -0.389 OA
HETATM   40  H   UNL     1       4.049  26.483  53.696  1.00  0.00     0.210 HD
ENDBRANCH   6  39
TORSDOF 10
ENDMDL
MODEL 4
REMARK VINA RESULT:      -8.2      3.975      7.786
REMARK  10 active torsions:
REMARK  status: ('A' for Active; 'I' for Inactive)
REMARK    1  A    between atoms: C_2  and  N_3 
REMARK    2  A    between atoms: N_3  and  C_4 
REMARK    3  A    between atoms: N_3  and  C_37 
REMARK    4  A    between atoms: C_7  and  C_8 
REMARK    5  A    between atoms: N_9  and  C_11 
REMARK    6  A    between atoms: C_11  and  C_12 
REMARK       I    between atoms: C_12  and  N_13 
REMARK    7  A    between atoms: N_13  and  C_14 
REMARK    8  A    between atoms: C_20  and  C_21 
REMARK    9  A    between atoms: C_21  and  O_22 
REMARK   10  A    between atoms: C_28  and  O_29 
ROOT
HETATM    1  C   UNL     1       5.410  26.731  55.185  1.00  0.00     0.228 C 
HETATM    2  N   UNL     1       4.922  27.390  53.874  1.00  0.00    -0.054 N 
HETATM    3  H   UNL     1       4.424  26.628  53.389  1.00  0.00     0.281 HD
HETATM    4  C   UNL     1       6.039  27.899  52.989  1.00  0.00     0.239 C 
HETATM    5  C   UNL     1       6.929  28.882  53.730  1.00  0.00     0.066 C 
HETATM    6  C   UNL     1       7.488  28.276  55.025  1.00  0.00     0.065 C 
HETATM    7  C   UNL     1       6.330  27.771  55.914  1.00  0.00     0.055 C 
HETATM    8  C   UNL     1       8.346  29.334  55.748  1.00  0.00     0.038 C 
HETATM    9  C   UNL     1       8.792  28.902  57.144  1.00  0.00     0.003 C 
HETATM   10  C   UNL     1       7.611  28.455  57.993  1.00  0.00     0.001 C 
HETATM   11  C   UNL     1       6.834  27.336  57.302  1.00  0.00     0.010 C 
ENDROOT
BRANCH   2  12
HETATM   12  C   UNL     1       3.837  28.463  54.057  1.00  0.00     0.338 C 
BRANCH  12  13
HETATM   13  C   UNL     1       3.582  29.326  52.823  1.00  0.00     0.248 C 
HETATM   14  N   UNL     1       3.074  28.583  51.776  1.00  0.00    -0.319 N 
HETATM   15  H   UNL     1       2.986  27.569  51.881  1.00  0.00     0.169 HD
HETATM   16  O   UNL     1       3.846  30.524  52.869  1.00  0.00    -0.271 OA
BRANCH  14  17
HETATM   17  C   UNL     1       2.674  29.023  50.522  1.00  0.00     0.094 A 
HETATM   18  S   UNL     1       1.167  29.739  50.275  1.00  0.00    -0.076 SA
HETATM   19  C   UNL     1       1.438  29.912  48.599  1.00  0.00    -0.012 A 
HETATM   20  C   UNL     1       0.363  30.516  47.753  1.00  0.00     0.057 C 
HETATM   21  C   UNL     1       2.695  29.461  48.220  1.00  0.00    -0.030 A 
HETATM   22  C   UNL     1       3.224  29.531  46.818  1.00  0.00     0.050 C 
HETATM   23  C   UNL     1       3.421  28.908  49.355  1.00  0.00     0.080 A 
BRANCH  23  24
HETATM   24  C   UNL     1       4.760  28.298  49.377  1.00  0.00     0.296 C 
HETATM   25  O   UNL     1       4.925  27.124  49.707  1.00  0.00    -0.259 OA
BRANCH  24  26
HETATM   26  O   UNL     1       5.758  29.136  48.994  1.00  0.00    -0.322 OA
HETATM   27  C   UNL     1       5.984  30.275  49.828  1.00  0.00     0.213 C 
ENDBRANCH  24  26
ENDBRANCH  23  24
ENDBRANCH  14  17
ENDBRANCH  12  13
ENDBRANCH   2  12
BRANCH   1  28
HETATM   28  C   UNL     1       5.962  25.308  55.030  1.00  0.00    -0.027 C 
HETATM   29  C   UNL     1       6.107  24.632  53.816  1.00  0.00     0.011 C 
HETATM   30  C   UNL     1       6.821  23.422  53.726  1.00  0.00     0.030 C 
HETATM   31  C   UNL     1       7.417  22.814  54.836  1.00  0.00     0.030 C 
HETATM   32  C   UNL     1       7.089  23.395  56.066  1.00  0.00     0.030 C 
HETATM   33  C   UNL     1       6.367  24.596  56.165  1.00  0.00     0.011 C 
BRANCH  31  34
HETATM   34  N   UNL     1       8.257  21.705  54.738  1.00  0.00    -0.382 N 
BRANCH  34  35
HETATM   35  C   UNL     1       8.997  21.467  53.482  1.00  0.00     0.118 C 
HETATM   36  C   UNL     1       8.388  20.319  52.686  1.00  0.00     0.026 C 
ENDBRANCH  34  35
BRANCH  34  37
HETATM   37  C   UNL     1       8.032  20.499  55.556  1.00  0.00     0.118 C 
HETATM   38  C   UNL     1       9.212  20.249  56.481  1.00  0.00     0.026 C 
ENDBRANCH  34  37
ENDBRANCH  31  34
ENDBRANCH   1  28
BRANCH   6  39
HETATM   39  O   UNL     1       8.323  27.193  54.626  1.00  0.00    -0.389 OA
HETATM   40  H   UNL     1       8.950  27.481  53.938  1.00  0.00     0.210 HD
ENDBRANCH   6  39
TORSDOF 10
ENDMDL
MODEL 5
REMARK VINA RESULT:      -8.2      3.322      5.777
REMARK  10 active torsions:
REMARK  status: ('A' for Active; 'I' for Inactive)
REMARK    1  A    between atoms: C_2  and  N_3 
REMARK    2  A    between atoms: N_3  and  C_4 
REMARK    3  A    between atoms: N_3  and  C_37 
REMARK    4  A    between atoms: C_7  and  C_8 
REMARK    5  A    between atoms: N_9  and  C_11 
REMARK    6  A    between atoms: C_11  and  C_12 
REMARK       I    between atoms: C_12  and  N_13 
REMARK    7  A    between atoms: N_13  and  C_14 
REMARK    8  A    between atoms: C_20  and  C_21 
REMARK    9  A    between atoms: C_21  and  O_22 
REMARK   10  A    between atoms: C_28  and  O_29 
ROOT
HETATM    1  C   UNL     1       4.343  28.564  55.890  1.00  0.00     0.228 C 
HETATM    2  N   UNL     1       4.388  29.982  56.505  1.00  0.00    -0.054 N 
HETATM    3  H   UNL     1       3.820  30.548  55.856  1.00  0.00     0.281 HD
HETATM    4  C   UNL     1       5.780  30.570  56.592  1.00  0.00     0.239 C 
HETATM    5  C   UNL     1       6.716  29.666  57.376  1.00  0.00     0.066 C 
HETATM    6  C   UNL     1       6.755  28.248  56.791  1.00  0.00     0.065 C 
HETATM    7  C   UNL     1       5.326  27.666  56.719  1.00  0.00     0.055 C 
HETATM    8  C   UNL     1       7.687  27.372  57.653  1.00  0.00     0.038 C 
HETATM    9  C   UNL     1       7.648  25.892  57.276  1.00  0.00     0.003 C 
HETATM   10  C   UNL     1       6.223  25.357  57.262  1.00  0.00     0.001 C 
HETATM   11  C   UNL     1       5.342  26.179  56.322  1.00  0.00     0.010 C 
ENDROOT
BRANCH   2  12
HETATM   12  C   UNL     1       3.648  30.129  57.844  1.00  0.00     0.338 C 
BRANCH  12  13
HETATM   13  C   UNL     1       3.600  31.554  58.391  1.00  0.00     0.248 C 
HETATM   14  N   UNL     1       3.965  31.603  59.721  1.00  0.00    -0.319 N 
HETATM   15  H   UNL     1       4.154  30.729  60.219  1.00  0.00     0.169 HD
HETATM   16  O   UNL     1       3.252  32.466  57.646  1.00  0.00    -0.271 OA
BRANCH  14  17
HETATM   17  C   UNL     1       4.091  32.717  60.539  1.00  0.00     0.094 A 
HETATM   18  S   UNL     1       2.793  33.756  60.822  1.00  0.00    -0.076 SA
HETATM   19  C   UNL     1       3.736  34.793  61.796  1.00  0.00    -0.012 A 
HETATM   20  C   UNL     1       3.100  36.015  62.377  1.00  0.00     0.057 C 
HETATM   21  C   UNL     1       5.038  34.334  61.945  1.00  0.00    -0.030 A 
HETATM   22  C   UNL     1       6.078  35.018  62.783  1.00  0.00     0.050 C 
HETATM   23  C   UNL     1       5.259  33.117  61.179  1.00  0.00     0.080 A 
BRANCH  23  24
HETATM   24  C   UNL     1       6.498  32.335  61.037  1.00  0.00     0.296 C 
HETATM   25  O   UNL     1       7.127  32.316  59.979  1.00  0.00    -0.259 OA
BRANCH  24  26
HETATM   26  O   UNL     1       6.866  31.671  62.162  1.00  0.00    -0.322 OA
HETATM   27  C   UNL     1       8.196  31.909  62.633  1.00  0.00     0.213 C 
ENDBRANCH  24  26
ENDBRANCH  23  24
ENDBRANCH  14  17
ENDBRANCH  12  13
ENDBRANCH   2  12
BRANCH   1  28
HETATM   28  C   UNL     1       4.480  28.514  54.363  1.00  0.00    -0.027 C 
HETATM   29  C   UNL     1       4.726  27.358  53.618  1.00  0.00     0.011 C 
HETATM   30  C   UNL     1       4.621  27.348  52.214  1.00  0.00     0.030 C 
HETATM   31  C   UNL     1       4.279  28.486  51.476  1.00  0.00     0.030 C 
HETATM   32  C   UNL     1       4.238  29.672  52.217  1.00  0.00     0.030 C 
HETATM   33  C   UNL     1       4.354  29.692  53.618  1.00  0.00     0.011 C 
BRANCH  31  34
HETATM   34  N   UNL     1       4.017  28.456  50.107  1.00  0.00    -0.382 N 
BRANCH  34  35
HETATM   35  C   UNL     1       5.063  27.978  49.181  1.00  0.00     0.118 C 
HETATM   36  C   UNL     1       4.635  26.701  48.468  1.00  0.00     0.026 C 
ENDBRANCH  34  35
BRANCH  34  37
HETATM   37  C   UNL     1       3.023  29.358  49.497  1.00  0.00     0.118 C 
HETATM   38  C   UNL     1       1.612  28.842  49.731  1.00  0.00     0.026 C 
ENDBRANCH  34  37
ENDBRANCH  31  34
ENDBRANCH   1  28
BRANCH   6  39
HETATM   39  O   UNL     1       7.311  28.374  55.486  1.00  0.00    -0.389 OA
HETATM   40  H   UNL     1       6.726  28.907  54.916  1.00  0.00     0.210 HD
ENDBRANCH   6  39
TORSDOF 10
ENDMDL
MODEL 6
REMARK VINA RESULT:      -8.1      2.077      2.444
REMARK  10 active torsions:
REMARK  status: ('A' for Active; 'I' for Inactive)
REMARK    1  A    between atoms: C_2  and  N_3 
REMARK    2  A    between atoms: N_3  and  C_4 
REMARK    3  A    between atoms: N_3  and  C_37 
REMARK    4  A    between atoms: C_7  and  C_8 
REMARK    5  A    between atoms: N_9  and  C_11 
REMARK    6  A    between atoms: C_11  and  C_12 
REMARK       I    between atoms: C_12  and  N_13 
REMARK    7  A    between atoms: N_13  and  C_14 
REMARK    8  A    between atoms: C_20  and  C_21 
REMARK    9  A    between atoms: C_21  and  O_22 
REMARK   10  A    between atoms: C_28  and  O_29 
ROOT
HETATM    1  C   UNL     1       6.644  27.533  54.113  1.00  0.00     0.228 C 
HETATM    2  N   UNL     1       6.230  28.202  55.444  1.00  0.00    -0.054 N 
HETATM    3  H   UNL     1       6.762  27.678  56.156  1.00  0.00     0.281 HD
HETATM    4  C   UNL     1       4.752  28.099  55.749  1.00  0.00     0.239 C 
HETATM    5  C   UNL     1       3.911  28.682  54.626  1.00  0.00     0.066 C 
HETATM    6  C   UNL     1       4.239  28.030  53.276  1.00  0.00     0.065 C 
HETATM    7  C   UNL     1       5.751  28.153  52.983  1.00  0.00     0.055 C 
HETATM    8  C   UNL     1       3.386  28.692  52.175  1.00  0.00     0.038 C 
HETATM    9  C   UNL     1       3.772  28.254  50.763  1.00  0.00     0.003 C 
HETATM   10  C   UNL     1       5.262  28.436  50.511  1.00  0.00     0.001 C 
HETATM   11  C   UNL     1       6.088  27.688  51.555  1.00  0.00     0.010 C 
ENDROOT
BRANCH   2  12
HETATM   12  C   UNL     1       6.726  29.646  55.622  1.00  0.00     0.338 C 
BRANCH  12  13
HETATM   13  C   UNL     1       6.230  30.336  56.891  1.00  0.00     0.248 C 
HETATM   14  N   UNL     1       5.579  31.520  56.607  1.00  0.00    -0.319 N 
HETATM   15  H   UNL     1       5.551  31.854  55.640  1.00  0.00     0.169 HD
HETATM   16  O   UNL     1       6.450  29.812  57.979  1.00  0.00    -0.271 OA
BRANCH  14  17
HETATM   17  C   UNL     1       4.953  32.391  57.487  1.00  0.00     0.094 A 
HETATM   18  S   UNL     1       4.539  31.920  59.053  1.00  0.00    -0.076 SA
HETATM   19  C   UNL     1       3.827  33.431  59.402  1.00  0.00    -0.012 A 
HETATM   20  C   UNL     1       3.210  33.646  60.747  1.00  0.00     0.057 C 
HETATM   21  C   UNL     1       3.934  34.321  58.341  1.00  0.00    -0.030 A 
HETATM   22  C   UNL     1       3.437  35.737  58.379  1.00  0.00     0.050 C 
HETATM   23  C   UNL     1       4.578  33.698  57.194  1.00  0.00     0.080 A 
BRANCH  23  24
HETATM   24  C   UNL     1       4.849  34.277  55.869  1.00  0.00     0.296 C 
HETATM   25  O   UNL     1       5.633  35.215  55.726  1.00  0.00    -0.259 OA
BRANCH  24  26
HETATM   26  O   UNL     1       4.175  33.679  54.853  1.00  0.00    -0.322 OA
HETATM   27  C   UNL     1       2.759  33.872  54.831  1.00  0.00     0.213 C 
ENDBRANCH  24  26
ENDBRANCH  23  24
ENDBRANCH  14  17
ENDBRANCH  12  13
ENDBRANCH   2  12
BRANCH   1  28
HETATM   28  C   UNL     1       6.741  26.003  54.157  1.00  0.00    -0.027 C 
HETATM   29  C   UNL     1       6.884  25.176  53.040  1.00  0.00     0.011 C 
HETATM   30  C   UNL     1       7.186  23.808  53.169  1.00  0.00     0.030 C 
HETATM   31  C   UNL     1       7.350  23.186  54.411  1.00  0.00     0.030 C 
HETATM   32  C   UNL     1       7.004  23.978  55.511  1.00  0.00     0.030 C 
HETATM   33  C   UNL     1       6.689  25.342  55.390  1.00  0.00     0.011 C 
BRANCH  31  34
HETATM   34  N   UNL     1       7.803  21.874  54.553  1.00  0.00    -0.382 N 
BRANCH  34  35
HETATM   35  C   UNL     1       8.983  21.605  55.398  1.00  0.00     0.118 C 
HETATM   36  C   UNL     1       8.695  20.518  56.427  1.00  0.00     0.026 C 
ENDBRANCH  34  35
BRANCH  34  37
HETATM   37  C   UNL     1       7.547  20.859  53.516  1.00  0.00     0.118 C 
HETATM   38  C   UNL     1       8.828  20.510  52.775  1.00  0.00     0.026 C 
ENDBRANCH  34  37
ENDBRANCH  31  34
ENDBRANCH   1  28
BRANCH   6  39
HETATM   39  O   UNL     1       3.863  26.661  53.396  1.00  0.00    -0.389 OA
HETATM   40  H   UNL     1       4.220  26.142  52.653  1.00  0.00     0.210 HD
ENDBRANCH   6  39
TORSDOF 10
ENDMDL
MODEL 7
REMARK VINA RESULT:      -8.1      3.561      5.864
REMARK  10 active torsions:
REMARK  status: ('A' for Active; 'I' for Inactive)
REMARK    1  A    between atoms: C_2  and  N_3 
REMARK    2  A    between atoms: N_3  and  C_4 
REMARK    3  A    between atoms: N_3  and  C_37 
REMARK    4  A    between atoms: C_7  and  C_8 
REMARK    5  A    between atoms: N_9  and  C_11 
REMARK    6  A    between atoms: C_11  and  C_12 
REMARK       I    between atoms: C_12  and  N_13 
REMARK    7  A    between atoms: N_13  and  C_14 
REMARK    8  A    between atoms: C_20  and  C_21 
REMARK    9  A    between atoms: C_21  and  O_22 
REMARK   10  A    between atoms: C_28  and  O_29 
ROOT
HETATM    1  C   UNL     1       4.270  29.141  56.489  1.00  0.00     0.228 C 
HETATM    2  N   UNL     1       4.218  30.559  57.103  1.00  0.00    -0.054 N 
HETATM    3  H   UNL     1       3.451  31.019  56.588  1.00  0.00     0.281 HD
HETATM    4  C   UNL     1       5.491  31.356  56.918  1.00  0.00     0.239 C 
HETATM    5  C   UNL     1       6.693  30.621  57.487  1.00  0.00     0.066 C 
HETATM    6  C   UNL     1       6.834  29.215  56.886  1.00  0.00     0.065 C 
HETATM    7  C   UNL     1       5.525  28.419  57.093  1.00  0.00     0.055 C 
HETATM    8  C   UNL     1       8.042  28.509  57.533  1.00  0.00     0.038 C 
HETATM    9  C   UNL     1       8.158  27.034  57.151  1.00  0.00     0.003 C 
HETATM   10  C   UNL     1       6.858  26.286  57.413  1.00  0.00     0.001 C 
HETATM   11  C   UNL     1       5.692  26.945  56.681  1.00  0.00     0.010 C 
ENDROOT
BRANCH   2  12
HETATM   12  C   UNL     1       3.746  30.613  58.564  1.00  0.00     0.338 C 
BRANCH  12  13
HETATM   13  C   UNL     1       3.665  32.019  59.155  1.00  0.00     0.248 C 
HETATM   14  N   UNL     1       4.474  32.154  60.265  1.00  0.00    -0.319 N 
HETATM   15  H   UNL     1       4.970  31.334  60.623  1.00  0.00     0.169 HD
HETATM   16  O   UNL     1       2.927  32.845  58.626  1.00  0.00    -0.271 OA
BRANCH  14  17
HETATM   17  C   UNL     1       4.701  33.288  61.032  1.00  0.00     0.094 A 
HETATM   18  S   UNL     1       4.306  34.829  60.472  1.00  0.00    -0.076 SA
HETATM   19  C   UNL     1       4.911  35.580  61.879  1.00  0.00    -0.012 A 
HETATM   20  C   UNL     1       4.858  37.072  61.982  1.00  0.00     0.057 C 
HETATM   21  C   UNL     1       5.383  34.660  62.806  1.00  0.00    -0.030 A 
HETATM   22  C   UNL     1       5.931  35.030  64.153  1.00  0.00     0.050 C 
HETATM   23  C   UNL     1       5.284  33.301  62.295  1.00  0.00     0.080 A 
BRANCH  23  24
HETATM   24  C   UNL     1       5.705  32.046  62.940  1.00  0.00     0.296 C 
HETATM   25  O   UNL     1       4.885  31.199  63.291  1.00  0.00    -0.259 OA
BRANCH  24  26
HETATM   26  O   UNL     1       7.049  31.923  63.090  1.00  0.00    -0.322 OA
HETATM   27  C   UNL     1       7.740  31.212  62.060  1.00  0.00     0.213 C 
ENDBRANCH  24  26
ENDBRANCH  23  24
ENDBRANCH  14  17
ENDBRANCH  12  13
ENDBRANCH   2  12
BRANCH   1  28
HETATM   28  C   UNL     1       4.107  29.085  54.966  1.00  0.00    -0.027 C 
HETATM   29  C   UNL     1       3.883  30.192  54.142  1.00  0.00     0.011 C 
HETATM   30  C   UNL     1       3.963  30.097  52.740  1.00  0.00     0.030 C 
HETATM   31  C   UNL     1       4.257  28.899  52.082  1.00  0.00     0.030 C 
HETATM   32  C   UNL     1       4.276  27.769  52.906  1.00  0.00     0.030 C 
HETATM   33  C   UNL     1       4.185  27.853  54.305  1.00  0.00     0.011 C 
BRANCH  31  34
HETATM   34  N   UNL     1       4.496  28.822  50.710  1.00  0.00    -0.382 N 
BRANCH  34  35
HETATM   35  C   UNL     1       5.305  27.708  50.178  1.00  0.00     0.118 C 
HETATM   36  C   UNL     1       4.467  26.773  49.314  1.00  0.00     0.026 C 
ENDBRANCH  34  35
BRANCH  34  37
HETATM   37  C   UNL     1       4.477  30.027  49.860  1.00  0.00     0.118 C 
HETATM   38  C   UNL     1       5.892  30.488  49.548  1.00  0.00     0.026 C 
ENDBRANCH  34  37
ENDBRANCH  31  34
ENDBRANCH   1  28
BRANCH   6  39
HETATM   39  O   UNL     1       7.091  29.402  55.498  1.00  0.00    -0.389 OA
HETATM   40  H   UNL     1       7.797  28.802  55.198  1.00  0.00     0.210 HD
ENDBRANCH   6  39
TORSDOF 10
ENDMDL
MODEL 8
REMARK VINA RESULT:      -7.9      3.539      9.589
REMARK  10 active torsions:
REMARK  status: ('A' for Active; 'I' for Inactive)
REMARK    1  A    between atoms: C_2  and  N_3 
REMARK    2  A    between atoms: N_3  and  C_4 
REMARK    3  A    between atoms: N_3  and  C_37 
REMARK    4  A    between atoms: C_7  and  C_8 
REMARK    5  A    between atoms: N_9  and  C_11 
REMARK    6  A    between atoms: C_11  and  C_12 
REMARK       I    between atoms: C_12  and  N_13 
REMARK    7  A    between atoms: N_13  and  C_14 
REMARK    8  A    between atoms: C_20  and  C_21 
REMARK    9  A    between atoms: C_21  and  O_22 
REMARK   10  A    between atoms: C_28  and  O_29 
ROOT
HETATM    1  C   UNL     1       7.177  28.483  54.973  1.00  0.00     0.228 C 
HETATM    2  N   UNL     1       6.028  28.778  53.981  1.00  0.00    -0.054 N 
HETATM    3  H   UNL     1       6.067  29.803  53.862  1.00  0.00     0.281 HD
HETATM    4  C   UNL     1       4.659  28.388  54.491  1.00  0.00     0.239 C 
HETATM    5  C   UNL     1       4.608  26.919  54.874  1.00  0.00     0.066 C 
HETATM    6  C   UNL     1       5.697  26.561  55.895  1.00  0.00     0.065 C 
HETATM    7  C   UNL     1       7.085  26.963  55.350  1.00  0.00     0.055 C 
HETATM    8  C   UNL     1       5.619  25.053  56.209  1.00  0.00     0.038 C 
HETATM    9  C   UNL     1       6.780  24.552  57.067  1.00  0.00     0.003 C 
HETATM   10  C   UNL     1       8.124  24.936  56.464  1.00  0.00     0.001 C 
HETATM   11  C   UNL     1       8.218  26.446  56.256  1.00  0.00     0.010 C 
ENDROOT
BRANCH   2  12
HETATM   12  C   UNL     1       6.254  28.247  52.556  1.00  0.00     0.338 C 
BRANCH  12  13
HETATM   13  C   UNL     1       5.533  29.034  51.463  1.00  0.00     0.248 C 
HETATM   14  N   UNL     1       4.356  28.420  51.084  1.00  0.00    -0.319 N 
HETATM   15  H   UNL     1       4.116  27.510  51.486  1.00  0.00     0.169 HD
HETATM   16  O   UNL     1       6.040  30.069  51.042  1.00  0.00    -0.271 OA
BRANCH  14  17
HETATM   17  C   UNL     1       3.414  28.859  50.165  1.00  0.00     0.094 A 
HETATM   18  S   UNL     1       2.321  30.088  50.536  1.00  0.00    -0.076 SA
HETATM   19  C   UNL     1       1.557  29.975  49.014  1.00  0.00    -0.012 A 
HETATM   20  C   UNL     1       0.397  30.872  48.719  1.00  0.00     0.057 C 
HETATM   21  C   UNL     1       2.155  29.025  48.195  1.00  0.00    -0.030 A 
HETATM   22  C   UNL     1       1.723  28.742  46.786  1.00  0.00     0.050 C 
HETATM   23  C   UNL     1       3.240  28.343  48.885  1.00  0.00     0.080 A 
BRANCH  23  24
HETATM   24  C   UNL     1       4.098  27.255  48.391  1.00  0.00     0.296 C 
HETATM   25  O   UNL     1       5.017  27.470  47.601  1.00  0.00    -0.259 OA
BRANCH  24  26
HETATM   26  O   UNL     1       3.787  26.031  48.891  1.00  0.00    -0.322 OA
HETATM   27  C   UNL     1       3.055  25.159  48.026  1.00  0.00     0.213 C 
ENDBRANCH  24  26
ENDBRANCH  23  24
ENDBRANCH  14  17
ENDBRANCH  12  13
ENDBRANCH   2  12
BRANCH   1  28
HETATM   28  C   UNL     1       7.304  29.476  56.134  1.00  0.00    -0.027 C 
HETATM   29  C   UNL     1       6.289  30.329  56.576  1.00  0.00     0.011 C 
HETATM   30  C   UNL     1       6.403  31.051  57.778  1.00  0.00     0.030 C 
HETATM   31  C   UNL     1       7.532  30.975  58.599  1.00  0.00     0.030 C 
HETATM   32  C   UNL     1       8.613  30.281  58.043  1.00  0.00     0.030 C 
HETATM   33  C   UNL     1       8.511  29.568  56.837  1.00  0.00     0.011 C 
BRANCH  31  34
HETATM   34  N   UNL     1       7.595  31.557  59.865  1.00  0.00    -0.382 N 
BRANCH  34  35
HETATM   35  C   UNL     1       8.461  30.952  60.897  1.00  0.00     0.118 C 
HETATM   36  C   UNL     1       9.646  31.851  61.227  1.00  0.00     0.026 C 
ENDBRANCH  34  35
BRANCH  34  37
HETATM   37  C   UNL     1       6.478  32.361  60.395  1.00  0.00     0.118 C 
HETATM   38  C   UNL     1       6.296  32.113  61.884  1.00  0.00     0.026 C 
ENDBRANCH  34  37
ENDBRANCH  31  34
ENDBRANCH   1  28
BRANCH   6  39
HETATM   39  O   UNL     1       5.390  27.299  57.074  1.00  0.00    -0.389 OA
HETATM   40  H   UNL     1       4.875  26.752  57.695  1.00  0.00     0.210 HD
ENDBRANCH   6  39
TORSDOF 10
ENDMDL
MODEL 9
REMARK VINA RESULT:      -7.9      4.360      8.892
REMARK  10 active torsions:
REMARK  status: ('A' for Active; 'I' for Inactive)
REMARK    1  A    between atoms: C_2  and  N_3 
REMARK    2  A    between atoms: N_3  and  C_4 
REMARK    3  A    between atoms: N_3  and  C_37 
REMARK    4  A    between atoms: C_7  and  C_8 
REMARK    5  A    between atoms: N_9  and  C_11 
REMARK    6  A    between atoms: C_11  and  C_12 
REMARK       I    between atoms: C_12  and  N_13 
REMARK    7  A    between atoms: N_13  and  C_14 
REMARK    8  A    between atoms: C_20  and  C_21 
REMARK    9  A    between atoms: C_21  and  O_22 
REMARK   10  A    between atoms: C_28  and  O_29 
ROOT
HETATM    1  C   UNL     1       3.699  29.238  50.124  1.00  0.00     0.228 C 
HETATM    2  N   UNL     1       4.552  28.547  51.213  1.00  0.00    -0.054 N 
HETATM    3  H   UNL     1       5.104  29.320  51.617  1.00  0.00     0.281 HD
HETATM    4  C   UNL     1       5.492  27.489  50.679  1.00  0.00     0.239 C 
HETATM    5  C   UNL     1       4.742  26.425  49.896  1.00  0.00     0.066 C 
HETATM    6  C   UNL     1       3.905  27.038  48.764  1.00  0.00     0.065 C 
HETATM    7  C   UNL     1       2.949  28.109  49.335  1.00  0.00     0.055 C 
HETATM    8  C   UNL     1       3.139  25.914  48.038  1.00  0.00     0.038 C 
HETATM    9  C   UNL     1       2.125  26.432  47.019  1.00  0.00     0.003 C 
HETATM   10  C   UNL     1       1.180  27.451  47.641  1.00  0.00     0.001 C 
HETATM   11  C   UNL     1       1.959  28.607  48.266  1.00  0.00     0.010 C 
ENDROOT
BRANCH   2  12
HETATM   12  C   UNL     1       3.755  28.015  52.415  1.00  0.00     0.338 C 
BRANCH  12  13
HETATM   13  C   UNL     1       4.408  28.267  53.772  1.00  0.00     0.248 C 
HETATM   14  N   UNL     1       5.571  27.538  53.922  1.00  0.00    -0.319 N 
HETATM   15  H   UNL     1       5.842  26.875  53.192  1.00  0.00     0.169 HD
HETATM   16  O   UNL     1       3.868  29.038  54.559  1.00  0.00    -0.271 OA
BRANCH  14  17
HETATM   17  C   UNL     1       6.459  27.543  54.989  1.00  0.00     0.094 A 
HETATM   18  S   UNL     1       7.525  28.824  55.247  1.00  0.00    -0.076 SA
HETATM   19  C   UNL     1       8.227  28.068  56.606  1.00  0.00    -0.012 A 
HETATM   20  C   UNL     1       9.343  28.761  57.322  1.00  0.00     0.057 C 
HETATM   21  C   UNL     1       7.627  26.850  56.899  1.00  0.00    -0.030 A 
HETATM   22  C   UNL     1       8.008  25.986  58.065  1.00  0.00     0.050 C 
HETATM   23  C   UNL     1       6.596  26.524  55.925  1.00  0.00     0.080 A 
BRANCH  23  24
HETATM   24  C   UNL     1       5.754  25.319  55.852  1.00  0.00     0.296 C 
HETATM   25  O   UNL     1       4.945  25.046  56.738  1.00  0.00    -0.259 OA
BRANCH  24  26
HETATM   26  O   UNL     1       5.950  24.572  54.734  1.00  0.00    -0.322 OA
HETATM   27  C   UNL     1       7.053  23.662  54.765  1.00  0.00     0.213 C 
ENDBRANCH  24  26
ENDBRANCH  23  24
ENDBRANCH  14  17
ENDBRANCH  12  13
ENDBRANCH   2  12
BRANCH   1  28
HETATM   28  C   UNL     1       4.440  30.290  49.289  1.00  0.00    -0.027 C 
HETATM   29  C   UNL     1       3.988  30.816  48.076  1.00  0.00     0.011 C 
HETATM   30  C   UNL     1       4.604  31.931  47.479  1.00  0.00     0.030 C 
HETATM   31  C   UNL     1       5.708  32.576  48.046  1.00  0.00     0.030 C 
HETATM   32  C   UNL     1       6.268  31.916  49.146  1.00  0.00     0.030 C 
HETATM   33  C   UNL     1       5.665  30.795  49.741  1.00  0.00     0.011 C 
BRANCH  31  34
HETATM   34  N   UNL     1       6.229  33.771  47.553  1.00  0.00    -0.382 N 
BRANCH  34  35
HETATM   35  C   UNL     1       5.984  34.140  46.144  1.00  0.00     0.118 C 
HETATM   36  C   UNL     1       7.089  33.622  45.232  1.00  0.00     0.026 C 
ENDBRANCH  34  35
BRANCH  34  37
HETATM   37  C   UNL     1       7.428  34.388  48.148  1.00  0.00     0.118 C 
HETATM   38  C   UNL     1       7.047  35.577  49.015  1.00  0.00     0.026 C 
ENDBRANCH  34  37
ENDBRANCH  31  34
ENDBRANCH   1  28
BRANCH   6  39
HETATM   39  O   UNL     1       4.835  27.627  47.861  1.00  0.00    -0.389 OA
HETATM   40  H   UNL     1       4.406  27.821  47.007  1.00  0.00     0.210 HD
ENDBRANCH   6  39
TORSDOF 10
ENDMDL
MODEL 10
REMARK VINA RESULT:      -7.8      4.685      9.688
REMARK  10 active torsions:
REMARK  status: ('A' for Active; 'I' for Inactive)
REMARK    1  A    between atoms: C_2  and  N_3 
REMARK    2  A    between atoms: N_3  and  C_4 
REMARK    3  A    between atoms: N_3  and  C_37 
REMARK    4  A    between atoms: C_7  and  C_8 
REMARK    5  A    between atoms: N_9  and  C_11 
REMARK    6  A    between atoms: C_11  and  C_12 
REMARK       I    between atoms: C_12  and  N_13 
REMARK    7  A    between atoms: N_13  and  C_14 
REMARK    8  A    between atoms: C_20  and  C_21 
REMARK    9  A    between atoms: C_21  and  O_22 
REMARK   10  A    between atoms: C_28  and  O_29 
ROOT
HETATM    1  C   UNL     1       3.404  29.635  49.881  1.00  0.00     0.228 C 
HETATM    2  N   UNL     1       4.334  29.289  51.068  1.00  0.00    -0.054 N 
HETATM    3  H   UNL     1       4.738  30.200  51.334  1.00  0.00     0.281 HD
HETATM    4  C   UNL     1       5.451  28.332  50.715  1.00  0.00     0.239 C 
HETATM    5  C   UNL     1       4.910  27.041  50.125  1.00  0.00     0.066 C 
HETATM    6  C   UNL     1       4.011  27.306  48.909  1.00  0.00     0.065 C 
HETATM    7  C   UNL     1       2.875  28.279  49.296  1.00  0.00     0.055 C 
HETATM    8  C   UNL     1       3.462  25.964  48.385  1.00  0.00     0.038 C 
HETATM    9  C   UNL     1       2.401  26.126  47.297  1.00  0.00     0.003 C 
HETATM   10  C   UNL     1       1.283  27.059  47.743  1.00  0.00     0.001 C 
HETATM   11  C   UNL     1       1.842  28.418  48.162  1.00  0.00     0.010 C 
ENDROOT
BRANCH   2  12
HETATM   12  C   UNL     1       3.608  28.836  52.345  1.00  0.00     0.338 C 
BRANCH  12  13
HETATM   13  C   UNL     1       4.531  28.491  53.511  1.00  0.00     0.248 C 
HETATM   14  N   UNL     1       4.624  27.127  53.702  1.00  0.00    -0.319 N 
HETATM   15  H   UNL     1       4.047  26.503  53.133  1.00  0.00     0.169 HD
HETATM   16  O   UNL     1       5.064  29.401  54.139  1.00  0.00    -0.271 OA
BRANCH  14  17
HETATM   17  C   UNL     1       5.400  26.437  54.624  1.00  0.00     0.094 A 
HETATM   18  S   UNL     1       5.752  27.082  56.142  1.00  0.00    -0.076 SA
HETATM   19  C   UNL     1       6.712  25.739  56.575  1.00  0.00    -0.012 A 
HETATM   20  C   UNL     1       7.376  25.728  57.915  1.00  0.00     0.057 C 
HETATM   21  C   UNL     1       6.740  24.770  55.580  1.00  0.00    -0.030 A 
HETATM   22  C   UNL     1       7.466  23.463  55.703  1.00  0.00     0.050 C 
HETATM   23  C   UNL     1       5.984  25.193  54.411  1.00  0.00     0.080 A 
BRANCH  23  24
HETATM   24  C   UNL     1       5.794  24.483  53.136  1.00  0.00     0.296 C 
HETATM   25  O   UNL     1       4.678  24.348  52.636  1.00  0.00    -0.259 OA
BRANCH  24  26
HETATM   26  O   UNL     1       6.944  24.018  52.584  1.00  0.00    -0.322 OA
HETATM   27  C   UNL     1       7.875  25.004  52.132  1.00  0.00     0.213 C 
ENDBRANCH  24  26
ENDBRANCH  23  24
ENDBRANCH  14  17
ENDBRANCH  12  13
ENDBRANCH   2  12
BRANCH   1  28
HETATM   28  C   UNL     1       3.978  30.644  48.879  1.00  0.00    -0.027 C 
HETATM   29  C   UNL     1       3.361  31.031  47.687  1.00  0.00     0.011 C 
HETATM   30  C   UNL     1       3.834  32.118  46.929  1.00  0.00     0.030 C 
HETATM   31  C   UNL     1       4.951  32.869  47.306  1.00  0.00     0.030 C 
HETATM   32  C   UNL     1       5.672  32.344  48.384  1.00  0.00     0.030 C 
HETATM   33  C   UNL     1       5.212  31.252  49.139  1.00  0.00     0.011 C 
BRANCH  31  34
HETATM   34  N   UNL     1       5.337  34.041  46.655  1.00  0.00    -0.382 N 
BRANCH  34  35
HETATM   35  C   UNL     1       4.704  35.320  47.032  1.00  0.00     0.118 C 
HETATM   36  C   UNL     1       5.712  36.278  47.657  1.00  0.00     0.026 C 
ENDBRANCH  34  35
BRANCH  34  37
HETATM   37  C   UNL     1       5.893  34.011  45.290  1.00  0.00     0.118 C 
HETATM   38  C   UNL     1       7.401  33.818  45.327  1.00  0.00     0.026 C 
ENDBRANCH  34  37
ENDBRANCH  31  34
ENDBRANCH   1  28
BRANCH   6  39
HETATM   39  O   UNL     1       4.850  27.886  47.916  1.00  0.00    -0.389 OA
HETATM   40  H   UNL     1       4.608  28.818  47.766  1.00  0.00     0.210 HD
ENDBRANCH   6  39
TORSDOF 10
ENDMDL
