MODEL 1
REMARK VINA RESULT:     -10.3      0.000      0.000
REMARK  8 active torsions:
REMARK  status: ('A' for Active; 'I' for Inactive)
REMARK    1  A    between atoms: C_2  and  C_3 
REMARK    2  A    between atoms: N_4  and  C_5 
REMARK    3  A    between atoms: C_5  and  C_6 
REMARK    4  A    between atoms: C_14  and  C_15 
REMARK       I    between atoms: C_15  and  N_16 
REMARK    5  A    between atoms: N_16  and  N_17 
REMARK       I    between atoms: N_17  and  C_18 
REMARK    6  A    between atoms: C_18  and  C_19 
REMARK    7  A    between atoms: C_23  and  C_24 
REMARK    8  A    between atoms: C_27  and  O_28 
ROOT
HETATM    1  C   UNL     1       7.054  28.260  55.889  1.00  0.00     0.273 C 
HETATM    2  N   UNL     1       7.703  28.091  57.092  1.00  0.00    -0.263 N 
HETATM    3  O   UNL     1       6.440  29.302  55.648  1.00  0.00    -0.266 OA
HETATM    4  H   UNL     1       8.284  27.296  57.327  1.00  0.00     0.190 HD
ENDROOT
BRANCH   2   5
HETATM    5  N   UNL     1       7.652  29.133  58.028  1.00  0.00    -0.262 N 
HETATM    6  C   UNL     1       8.786  29.877  58.269  1.00  0.00     0.288 C 
HETATM    7  O   UNL     1       9.825  29.696  57.635  1.00  0.00    -0.264 OA
HETATM    8  H   UNL     1       6.800  29.204  58.579  1.00  0.00     0.190 HD
BRANCH   6   9
HETATM    9  C   UNL     1       8.666  30.869  59.300  1.00  0.00     0.121 A 
HETATM   10  N   UNL     1       9.530  31.923  59.388  1.00  0.00    -0.272 N 
HETATM   11  H   UNL     1      10.318  32.120  58.778  1.00  0.00     0.189 HD
HETATM   12  N   UNL     1       9.265  32.770  60.392  1.00  0.00    -0.174 NA
HETATM   13  C   UNL     1       8.187  32.252  61.003  1.00  0.00     0.089 A 
HETATM   14  C   UNL     1       7.784  31.053  60.347  1.00  0.00     0.071 A 
BRANCH  13  15
HETATM   15  C   UNL     1       7.568  32.905  62.161  1.00  0.00    -0.005 A 
HETATM   16  C   UNL     1       6.527  33.825  61.985  1.00  0.00     0.016 A 
HETATM   17  C   UNL     1       5.913  34.430  63.086  1.00  0.00     0.037 A 
HETATM   18  C   UNL     1       6.327  34.133  64.384  1.00  0.00     0.068 A 
HETATM   19  C   UNL     1       7.375  33.232  64.572  1.00  0.00     0.037 A 
HETATM   20  C   UNL     1       7.989  32.623  63.469  1.00  0.00     0.016 A 
BRANCH  18  21
HETATM   21  O   UNL     1       5.639  34.785  65.370  1.00  0.00    -0.356 OA
HETATM   22  C   UNL     1       4.923  33.978  66.296  1.00  0.00     0.210 C 
ENDBRANCH  18  21
ENDBRANCH  13  15
ENDBRANCH   6   9
ENDBRANCH   2   5
BRANCH   1  23
HETATM   23  C   UNL     1       7.139  27.178  54.917  1.00  0.00     0.077 A 
HETATM   24  C   UNL     1       6.563  25.907  54.850  1.00  0.00     0.048 A 
HETATM   25  N   UNL     1       7.021  25.358  53.662  1.00  0.00    -0.269 N 
HETATM   26  N   UNL     1       7.824  26.188  52.967  1.00  0.00    -0.183 NA
HETATM   27  C   UNL     1       7.894  27.277  53.724  1.00  0.00     0.158 A 
BRANCH  24  28
HETATM   28  C   UNL     1       5.623  25.175  55.757  1.00  0.00     0.055 C 
HETATM   29  C   UNL     1       6.246  24.872  57.111  1.00  0.00     0.011 C 
ENDBRANCH  24  28
BRANCH  25  30
HETATM   30  C   UNL     1       6.684  24.071  53.052  1.00  0.00     0.189 C 
BRANCH  30  31
HETATM   31  C   UNL     1       7.538  22.928  53.548  1.00  0.00    -0.038 A 
HETATM   32  C   UNL     1       7.476  21.681  52.908  1.00  0.00     0.009 A 
HETATM   33  C   UNL     1       8.298  20.628  53.321  1.00  0.00     0.001 A 
HETATM   34  C   UNL     1       9.195  20.813  54.371  1.00  0.00     0.000 A 
HETATM   35  C   UNL     1       9.278  22.050  55.004  1.00  0.00     0.001 A 
HETATM   36  C   UNL     1       8.462  23.104  54.591  1.00  0.00     0.009 A 
ENDBRANCH  30  31
ENDBRANCH  25  30
ENDBRANCH   1  23
TORSDOF 8
ENDMDL
MODEL 2
REMARK VINA RESULT:      -9.6      1.972      2.970
REMARK  8 active torsions:
REMARK  status: ('A' for Active; 'I' for Inactive)
REMARK    1  A    between atoms: C_2  and  C_3 
REMARK    2  A    between atoms: N_4  and  C_5 
REMARK    3  A    between atoms: C_5  and  C_6 
REMARK    4  A    between atoms: C_14  and  C_15 
REMARK       I    between atoms: C_15  and  N_16 
REMARK    5  A    between atoms: N_16  and  N_17 
REMARK       I    between atoms: N_17  and  C_18 
REMARK    6  A    between atoms: C_18  and  C_19 
REMARK    7  A    between atoms: C_23  and  C_24 
REMARK    8  A    between atoms: C_27  and  O_28 
ROOT
HETATM    1  C   UNL     1       6.416  30.122  56.837  1.00  0.00     0.273 C 
HETATM    2  N   UNL     1       6.883  29.891  58.112  1.00  0.00    -0.263 N 
HETATM    3  O   UNL     1       5.674  31.079  56.605  1.00  0.00    -0.266 OA
HETATM    4  H   UNL     1       7.550  29.170  58.360  1.00  0.00     0.190 HD
ENDROOT
BRANCH   2   5
HETATM    5  N   UNL     1       6.501  30.773  59.132  1.00  0.00    -0.262 N 
HETATM    6  C   UNL     1       7.443  31.193  60.045  1.00  0.00     0.288 C 
HETATM    7  O   UNL     1       8.626  30.869  59.951  1.00  0.00    -0.264 OA
HETATM    8  H   UNL     1       5.505  30.959  59.218  1.00  0.00     0.190 HD
BRANCH   6   9
HETATM    9  C   UNL     1       6.947  32.030  61.101  1.00  0.00     0.121 A 
HETATM   10  N   UNL     1       6.224  33.161  60.844  1.00  0.00    -0.272 N 
HETATM   11  H   UNL     1       5.970  33.529  59.933  1.00  0.00     0.189 HD
HETATM   12  N   UNL     1       5.817  33.816  61.941  1.00  0.00    -0.174 NA
HETATM   13  C   UNL     1       6.298  33.096  62.968  1.00  0.00     0.089 A 
HETATM   14  C   UNL     1       7.018  31.968  62.479  1.00  0.00     0.071 A 
BRANCH  13  15
HETATM   15  C   UNL     1       6.050  33.481  64.362  1.00  0.00    -0.005 A 
HETATM   16  C   UNL     1       7.119  33.668  65.248  1.00  0.00     0.016 A 
HETATM   17  C   UNL     1       6.892  34.063  66.570  1.00  0.00     0.037 A 
HETATM   18  C   UNL     1       5.595  34.275  67.036  1.00  0.00     0.068 A 
HETATM   19  C   UNL     1       4.521  34.074  66.169  1.00  0.00     0.037 A 
HETATM   20  C   UNL     1       4.748  33.681  64.842  1.00  0.00     0.016 A 
BRANCH  18  21
HETATM   21  O   UNL     1       5.512  34.666  68.344  1.00  0.00    -0.356 OA
HETATM   22  C   UNL     1       6.471  34.121  69.241  1.00  0.00     0.210 C 
ENDBRANCH  18  21
ENDBRANCH  13  15
ENDBRANCH   6   9
ENDBRANCH   2   5
BRANCH   1  23
HETATM   23  C   UNL     1       6.843  29.210  55.784  1.00  0.00     0.077 A 
HETATM   24  C   UNL     1       6.152  28.361  54.918  1.00  0.00     0.048 A 
HETATM   25  N   UNL     1       7.126  27.765  54.131  1.00  0.00    -0.269 N 
HETATM   26  N   UNL     1       8.373  28.185  54.422  1.00  0.00    -0.183 NA
HETATM   27  C   UNL     1       8.199  29.049  55.414  1.00  0.00     0.158 A 
BRANCH  24  28
HETATM   28  C   UNL     1       4.694  28.072  54.735  1.00  0.00     0.055 C 
HETATM   29  C   UNL     1       3.987  29.157  53.936  1.00  0.00     0.011 C 
ENDBRANCH  24  28
BRANCH  25  30
HETATM   30  C   UNL     1       6.965  26.837  53.011  1.00  0.00     0.189 C 
BRANCH  30  31
HETATM   31  C   UNL     1       7.181  25.392  53.391  1.00  0.00    -0.038 A 
HETATM   32  C   UNL     1       7.713  24.494  52.453  1.00  0.00     0.009 A 
HETATM   33  C   UNL     1       7.968  23.166  52.804  1.00  0.00     0.001 A 
HETATM   34  C   UNL     1       7.703  22.723  54.098  1.00  0.00     0.000 A 
HETATM   35  C   UNL     1       7.191  23.606  55.044  1.00  0.00     0.001 A 
HETATM   36  C   UNL     1       6.940  24.935  54.697  1.00  0.00     0.009 A 
ENDBRANCH  30  31
ENDBRANCH  25  30
ENDBRANCH   1  23
TORSDOF 8
ENDMDL
MODEL 3
REMARK VINA RESULT:      -9.4      2.293     12.022
REMARK  8 active torsions:
REMARK  status: ('A' for Active; 'I' for Inactive)
REMARK    1  A    between atoms: C_2  and  C_3 
REMARK    2  A    between atoms: N_4  and  C_5 
REMARK    3  A    between atoms: C_5  and  C_6 
REMARK    4  A    between atoms: C_14  and  C_15 
REMARK       I    between atoms: C_15  and  N_16 
REMARK    5  A    between atoms: N_16  and  N_17 
REMARK       I    between atoms: N_17  and  C_18 
REMARK    6  A    between atoms: C_18  and  C_19 
REMARK    7  A    between atoms: C_23  and  C_24 
REMARK    8  A    between atoms: C_27  and  O_28 
ROOT
HETATM    1  C   UNL     1       6.898  31.089  59.277  1.00  0.00     0.273 C 
HETATM    2  N   UNL     1       6.010  30.524  58.389  1.00  0.00    -0.263 N 
HETATM    3  O   UNL     1       8.052  30.665  59.365  1.00  0.00    -0.266 OA
HETATM    4  H   UNL     1       5.074  30.867  58.213  1.00  0.00     0.190 HD
ENDROOT
BRANCH   2   5
HETATM    5  N   UNL     1       6.454  29.464  57.586  1.00  0.00    -0.262 N 
HETATM    6  C   UNL     1       6.257  29.524  56.224  1.00  0.00     0.288 C 
HETATM    7  O   UNL     1       5.762  30.513  55.684  1.00  0.00    -0.264 OA
HETATM    8  H   UNL     1       6.790  28.639  58.075  1.00  0.00     0.190 HD
BRANCH   6   9
HETATM    9  C   UNL     1       6.669  28.361  55.490  1.00  0.00     0.121 A 
HETATM   10  N   UNL     1       7.301  28.459  54.283  1.00  0.00    -0.272 N 
HETATM   11  H   UNL     1       7.537  29.312  53.784  1.00  0.00     0.189 HD
HETATM   12  N   UNL     1       7.640  27.281  53.741  1.00  0.00    -0.174 NA
HETATM   13  C   UNL     1       7.205  26.362  54.619  1.00  0.00     0.089 A 
HETATM   14  C   UNL     1       6.585  27.004  55.730  1.00  0.00     0.071 A 
BRANCH  13  15
HETATM   15  C   UNL     1       7.402  24.926  54.394  1.00  0.00    -0.005 A 
HETATM   16  C   UNL     1       7.270  24.016  55.450  1.00  0.00     0.016 A 
HETATM   17  C   UNL     1       7.428  22.644  55.237  1.00  0.00     0.037 A 
HETATM   18  C   UNL     1       7.725  22.150  53.966  1.00  0.00     0.068 A 
HETATM   19  C   UNL     1       7.877  23.048  52.910  1.00  0.00     0.037 A 
HETATM   20  C   UNL     1       7.715  24.424  53.122  1.00  0.00     0.016 A 
BRANCH  18  21
HETATM   21  O   UNL     1       7.844  20.790  53.892  1.00  0.00    -0.356 OA
HETATM   22  C   UNL     1       8.842  20.187  54.706  1.00  0.00     0.210 C 
ENDBRANCH  18  21
ENDBRANCH  13  15
ENDBRANCH   6   9
ENDBRANCH   2   5
BRANCH   1  23
HETATM   23  C   UNL     1       6.428  32.207  60.085  1.00  0.00     0.077 A 
HETATM   24  C   UNL     1       6.998  32.933  61.134  1.00  0.00     0.048 A 
HETATM   25  N   UNL     1       6.054  33.889  61.475  1.00  0.00    -0.269 N 
HETATM   26  N   UNL     1       4.943  33.835  60.713  1.00  0.00    -0.183 NA
HETATM   27  C   UNL     1       5.171  32.824  59.883  1.00  0.00     0.158 A 
BRANCH  24  28
HETATM   28  C   UNL     1       8.324  32.842  61.823  1.00  0.00     0.055 C 
HETATM   29  C   UNL     1       8.378  31.696  62.822  1.00  0.00     0.011 C 
ENDBRANCH  24  28
BRANCH  25  30
HETATM   30  C   UNL     1       6.146  34.964  62.464  1.00  0.00     0.189 C 
BRANCH  30  31
HETATM   31  C   UNL     1       5.742  34.536  63.855  1.00  0.00    -0.038 A 
HETATM   32  C   UNL     1       6.727  34.256  64.815  1.00  0.00     0.009 A 
HETATM   33  C   UNL     1       6.370  33.910  66.120  1.00  0.00     0.001 A 
HETATM   34  C   UNL     1       5.026  33.849  66.484  1.00  0.00     0.000 A 
HETATM   35  C   UNL     1       4.039  34.140  65.547  1.00  0.00     0.001 A 
HETATM   36  C   UNL     1       4.393  34.491  64.244  1.00  0.00     0.009 A 
ENDBRANCH  30  31
ENDBRANCH  25  30
ENDBRANCH   1  23
TORSDOF 8
ENDMDL
MODEL 4
REMARK VINA RESULT:      -9.4      2.346      3.541
REMARK  8 active torsions:
REMARK  status: ('A' for Active; 'I' for Inactive)
REMARK    1  A    between atoms: C_2  and  C_3 
REMARK    2  A    between atoms: N_4  and  C_5 
REMARK    3  A    between atoms: C_5  and  C_6 
REMARK    4  A    between atoms: C_14  and  C_15 
REMARK       I    between atoms: C_15  and  N_16 
REMARK    5  A    between atoms: N_16  and  N_17 
REMARK       I    between atoms: N_17  and  C_18 
REMARK    6  A    between atoms: C_18  and  C_19 
REMARK    7  A    between atoms: C_23  and  C_24 
REMARK    8  A    between atoms: C_27  and  O_28 
ROOT
HETATM    1  C   UNL     1       7.272  29.747  57.982  1.00  0.00     0.273 C 
HETATM    2  N   UNL     1       6.305  30.716  58.133  1.00  0.00    -0.263 N 
HETATM    3  O   UNL     1       8.052  29.490  58.901  1.00  0.00    -0.266 OA
HETATM    4  H   UNL     1       5.588  30.928  57.450  1.00  0.00     0.190 HD
ENDROOT
BRANCH   2   5
HETATM    5  N   UNL     1       6.229  31.395  59.357  1.00  0.00    -0.262 N 
HETATM    6  C   UNL     1       5.114  32.154  59.636  1.00  0.00     0.288 C 
HETATM    7  O   UNL     1       4.152  32.199  58.869  1.00  0.00    -0.264 OA
HETATM    8  H   UNL     1       7.070  31.391  59.928  1.00  0.00     0.190 HD
BRANCH   6   9
HETATM    9  C   UNL     1       5.155  32.878  60.875  1.00  0.00     0.121 A 
HETATM   10  N   UNL     1       4.808  34.198  60.949  1.00  0.00    -0.272 N 
HETATM   11  H   UNL     1       4.505  34.793  60.184  1.00  0.00     0.189 HD
HETATM   12  N   UNL     1       4.880  34.718  62.182  1.00  0.00    -0.174 NA
HETATM   13  C   UNL     1       5.301  33.706  62.957  1.00  0.00     0.089 A 
HETATM   14  C   UNL     1       5.489  32.533  62.170  1.00  0.00     0.071 A 
BRANCH  13  15
HETATM   15  C   UNL     1       5.492  33.869  64.403  1.00  0.00    -0.005 A 
HETATM   16  C   UNL     1       4.390  34.034  65.251  1.00  0.00     0.016 A 
HETATM   17  C   UNL     1       4.564  34.162  66.633  1.00  0.00     0.037 A 
HETATM   18  C   UNL     1       5.840  34.131  67.196  1.00  0.00     0.068 A 
HETATM   19  C   UNL     1       6.946  33.986  66.360  1.00  0.00     0.037 A 
HETATM   20  C   UNL     1       6.773  33.854  64.974  1.00  0.00     0.016 A 
BRANCH  18  21
HETATM   21  O   UNL     1       5.870  34.257  68.557  1.00  0.00    -0.356 OA
HETATM   22  C   UNL     1       6.764  35.223  69.094  1.00  0.00     0.210 C 
ENDBRANCH  18  21
ENDBRANCH  13  15
ENDBRANCH   6   9
ENDBRANCH   2   5
BRANCH   1  23
HETATM   23  C   UNL     1       7.321  29.033  56.713  1.00  0.00     0.077 A 
HETATM   24  C   UNL     1       6.414  28.204  56.048  1.00  0.00     0.048 A 
HETATM   25  N   UNL     1       7.043  27.845  54.866  1.00  0.00    -0.269 N 
HETATM   26  N   UNL     1       8.265  28.394  54.725  1.00  0.00    -0.183 NA
HETATM   27  C   UNL     1       8.429  29.104  55.835  1.00  0.00     0.158 A 
BRANCH  24  28
HETATM   28  C   UNL     1       5.030  27.742  56.386  1.00  0.00     0.055 C 
HETATM   29  C   UNL     1       3.969  28.756  55.985  1.00  0.00     0.011 C 
ENDBRANCH  24  28
BRANCH  25  30
HETATM   30  C   UNL     1       6.528  27.042  53.755  1.00  0.00     0.189 C 
BRANCH  30  31
HETATM   31  C   UNL     1       7.022  25.615  53.765  1.00  0.00    -0.038 A 
HETATM   32  C   UNL     1       6.819  24.813  54.899  1.00  0.00     0.009 A 
HETATM   33  C   UNL     1       7.223  23.475  54.906  1.00  0.00     0.001 A 
HETATM   34  C   UNL     1       7.826  22.922  53.778  1.00  0.00     0.000 A 
HETATM   35  C   UNL     1       8.019  23.701  52.641  1.00  0.00     0.001 A 
HETATM   36  C   UNL     1       7.612  25.036  52.630  1.00  0.00     0.009 A 
ENDBRANCH  30  31
ENDBRANCH  25  30
ENDBRANCH   1  23
TORSDOF 8
ENDMDL
MODEL 5
REMARK VINA RESULT:      -9.4      2.594     12.200
REMARK  8 active torsions:
REMARK  status: ('A' for Active; 'I' for Inactive)
REMARK    1  A    between atoms: C_2  and  C_3 
REMARK    2  A    between atoms: N_4  and  C_5 
REMARK    3  A    between atoms: C_5  and  C_6 
REMARK    4  A    between atoms: C_14  and  C_15 
REMARK       I    between atoms: C_15  and  N_16 
REMARK    5  A    between atoms: N_16  and  N_17 
REMARK       I    between atoms: N_17  and  C_18 
REMARK    6  A    between atoms: C_18  and  C_19 
REMARK    7  A    between atoms: C_23  and  C_24 
REMARK    8  A    between atoms: C_27  and  O_28 
ROOT
HETATM    1  C   UNL     1       5.118  31.813  59.236  1.00  0.00     0.273 C 
HETATM    2  N   UNL     1       6.312  31.205  58.919  1.00  0.00    -0.263 N 
HETATM    3  O   UNL     1       4.072  31.468  58.681  1.00  0.00    -0.266 OA
HETATM    4  H   UNL     1       7.193  31.387  59.384  1.00  0.00     0.190 HD
ENDROOT
BRANCH   2   5
HETATM    5  N   UNL     1       6.306  30.184  57.959  1.00  0.00    -0.262 N 
HETATM    6  C   UNL     1       7.334  29.267  57.946  1.00  0.00     0.288 C 
HETATM    7  O   UNL     1       8.224  29.280  58.796  1.00  0.00    -0.264 OA
HETATM    8  H   UNL     1       5.597  30.250  57.234  1.00  0.00     0.190 HD
BRANCH   6   9
HETATM    9  C   UNL     1       7.290  28.306  56.880  1.00  0.00     0.121 A 
HETATM   10  N   UNL     1       7.046  28.676  55.588  1.00  0.00    -0.272 N 
HETATM   11  H   UNL     1       6.870  29.615  55.244  1.00  0.00     0.189 HD
HETATM   12  N   UNL     1       7.062  27.661  54.712  1.00  0.00    -0.174 NA
HETATM   13  C   UNL     1       7.317  26.571  55.455  1.00  0.00     0.089 A 
HETATM   14  C   UNL     1       7.462  26.937  56.825  1.00  0.00     0.071 A 
BRANCH  13  15
HETATM   15  C   UNL     1       7.433  25.238  54.854  1.00  0.00    -0.005 A 
HETATM   16  C   UNL     1       7.696  25.095  53.486  1.00  0.00     0.016 A 
HETATM   17  C   UNL     1       7.836  23.828  52.912  1.00  0.00     0.037 A 
HETATM   18  C   UNL     1       7.712  22.677  53.690  1.00  0.00     0.068 A 
HETATM   19  C   UNL     1       7.432  22.805  55.050  1.00  0.00     0.037 A 
HETATM   20  C   UNL     1       7.295  24.076  55.627  1.00  0.00     0.016 A 
BRANCH  18  21
HETATM   21  O   UNL     1       7.880  21.503  53.009  1.00  0.00    -0.356 OA
HETATM   22  C   UNL     1       8.493  20.432  53.716  1.00  0.00     0.210 C 
ENDBRANCH  18  21
ENDBRANCH  13  15
ENDBRANCH   6   9
ENDBRANCH   2   5
BRANCH   1  23
HETATM   23  C   UNL     1       5.138  32.855  60.254  1.00  0.00     0.077 A 
HETATM   24  C   UNL     1       6.082  33.238  61.209  1.00  0.00     0.048 A 
HETATM   25  N   UNL     1       5.516  34.315  61.873  1.00  0.00    -0.269 N 
HETATM   26  N   UNL     1       4.300  34.652  61.401  1.00  0.00    -0.183 NA
HETATM   27  C   UNL     1       4.076  33.773  60.432  1.00  0.00     0.158 A 
BRANCH  24  28
HETATM   28  C   UNL     1       7.448  32.724  61.543  1.00  0.00     0.055 C 
HETATM   29  C   UNL     1       7.403  31.553  62.512  1.00  0.00     0.011 C 
ENDBRANCH  24  28
BRANCH  25  30
HETATM   30  C   UNL     1       6.092  35.154  62.926  1.00  0.00     0.189 C 
BRANCH  30  31
HETATM   31  C   UNL     1       5.363  35.048  64.245  1.00  0.00    -0.038 A 
HETATM   32  C   UNL     1       4.626  36.142  64.726  1.00  0.00     0.009 A 
HETATM   33  C   UNL     1       3.903  36.044  65.918  1.00  0.00     0.001 A 
HETATM   34  C   UNL     1       3.901  34.851  66.637  1.00  0.00     0.000 A 
HETATM   35  C   UNL     1       4.614  33.753  66.163  1.00  0.00     0.001 A 
HETATM   36  C   UNL     1       5.333  33.847  64.971  1.00  0.00     0.009 A 
ENDBRANCH  30  31
ENDBRANCH  25  30
ENDBRANCH   1  23
TORSDOF 8
ENDMDL
MODEL 6
REMARK VINA RESULT:      -9.0      2.949     12.498
REMARK  8 active torsions:
REMARK  status: ('A' for Active; 'I' for Inactive)
REMARK    1  A    between atoms: C_2  and  C_3 
REMARK    2  A    between atoms: N_4  and  C_5 
REMARK    3  A    between atoms: C_5  and  C_6 
REMARK    4  A    between atoms: C_14  and  C_15 
REMARK       I    between atoms: C_15  and  N_16 
REMARK    5  A    between atoms: N_16  and  N_17 
REMARK       I    between atoms: N_17  and  C_18 
REMARK    6  A    between atoms: C_18  and  C_19 
REMARK    7  A    between atoms: C_23  and  C_24 
REMARK    8  A    between atoms: C_27  and  O_28 
ROOT
HETATM    1  C   UNL     1       6.226  32.153  59.457  1.00  0.00     0.273 C 
HETATM    2  N   UNL     1       5.537  31.054  58.995  1.00  0.00    -0.263 N 
HETATM    3  O   UNL     1       7.365  32.395  59.052  1.00  0.00    -0.266 OA
HETATM    4  H   UNL     1       4.576  30.836  59.228  1.00  0.00     0.190 HD
ENDROOT
BRANCH   2   5
HETATM    5  N   UNL     1       6.159  30.227  58.050  1.00  0.00    -0.262 N 
HETATM    6  C   UNL     1       5.406  29.685  57.032  1.00  0.00     0.288 C 
HETATM    7  O   UNL     1       4.215  29.960  56.889  1.00  0.00    -0.264 OA
HETATM    8  H   UNL     1       7.123  29.967  58.242  1.00  0.00     0.190 HD
BRANCH   6   9
HETATM    9  C   UNL     1       6.106  28.786  56.158  1.00  0.00     0.121 A 
HETATM   10  N   UNL     1       7.151  29.204  55.383  1.00  0.00    -0.272 N 
HETATM   11  H   UNL     1       7.533  30.144  55.328  1.00  0.00     0.189 HD
HETATM   12  N   UNL     1       7.710  28.237  54.643  1.00  0.00    -0.174 NA
HETATM   13  C   UNL     1       7.000  27.133  54.929  1.00  0.00     0.089 A 
HETATM   14  C   UNL     1       5.980  27.440  55.875  1.00  0.00     0.071 A 
BRANCH  13  15
HETATM   15  C   UNL     1       7.315  25.835  54.323  1.00  0.00    -0.005 A 
HETATM   16  C   UNL     1       7.267  24.663  55.088  1.00  0.00     0.016 A 
HETATM   17  C   UNL     1       7.538  23.419  54.510  1.00  0.00     0.037 A 
HETATM   18  C   UNL     1       7.866  23.319  53.158  1.00  0.00     0.068 A 
HETATM   19  C   UNL     1       7.934  24.481  52.389  1.00  0.00     0.037 A 
HETATM   20  C   UNL     1       7.660  25.728  52.968  1.00  0.00     0.016 A 
BRANCH  18  21
HETATM   21  O   UNL     1       8.098  22.046  52.716  1.00  0.00    -0.356 OA
HETATM   22  C   UNL     1       7.865  20.992  53.641  1.00  0.00     0.210 C 
ENDBRANCH  18  21
ENDBRANCH  13  15
ENDBRANCH   6   9
ENDBRANCH   2   5
BRANCH   1  23
HETATM   23  C   UNL     1       5.555  33.017  60.420  1.00  0.00     0.077 A 
HETATM   24  C   UNL     1       5.918  33.512  61.675  1.00  0.00     0.048 A 
HETATM   25  N   UNL     1       4.852  34.298  62.083  1.00  0.00    -0.269 N 
HETATM   26  N   UNL     1       3.854  34.352  61.178  1.00  0.00    -0.183 NA
HETATM   27  C   UNL     1       4.279  33.581  60.184  1.00  0.00     0.158 A 
BRANCH  24  28
HETATM   28  C   UNL     1       7.152  33.348  62.507  1.00  0.00     0.055 C 
HETATM   29  C   UNL     1       7.389  31.900  62.910  1.00  0.00     0.011 C 
ENDBRANCH  24  28
BRANCH  25  30
HETATM   30  C   UNL     1       4.718  35.114  63.291  1.00  0.00     0.189 C 
BRANCH  30  31
HETATM   31  C   UNL     1       5.245  36.519  63.128  1.00  0.00    -0.038 A 
HETATM   32  C   UNL     1       5.303  37.377  64.237  1.00  0.00     0.009 A 
HETATM   33  C   UNL     1       5.836  38.663  64.115  1.00  0.00     0.001 A 
HETATM   34  C   UNL     1       6.325  39.102  62.887  1.00  0.00     0.000 A 
HETATM   35  C   UNL     1       6.289  38.257  61.782  1.00  0.00     0.001 A 
HETATM   36  C   UNL     1       5.761  36.970  61.902  1.00  0.00     0.009 A 
ENDBRANCH  30  31
ENDBRANCH  25  30
ENDBRANCH   1  23
TORSDOF 8
ENDMDL
MODEL 7
REMARK VINA RESULT:      -9.0      2.924      4.138
REMARK  8 active torsions:
REMARK  status: ('A' for Active; 'I' for Inactive)
REMARK    1  A    between atoms: C_2  and  C_3 
REMARK    2  A    between atoms: N_4  and  C_5 
REMARK    3  A    between atoms: C_5  and  C_6 
REMARK    4  A    between atoms: C_14  and  C_15 
REMARK       I    between atoms: C_15  and  N_16 
REMARK    5  A    between atoms: N_16  and  N_17 
REMARK       I    between atoms: N_17  and  C_18 
REMARK    6  A    between atoms: C_18  and  C_19 
REMARK    7  A    between atoms: C_23  and  C_24 
REMARK    8  A    between atoms: C_27  and  O_28 
ROOT
HETATM    1  C   UNL     1       6.149  28.645  55.213  1.00  0.00     0.273 C 
HETATM    2  N   UNL     1       7.392  29.135  55.547  1.00  0.00    -0.263 N 
HETATM    3  O   UNL     1       5.156  28.951  55.876  1.00  0.00    -0.266 OA
HETATM    4  H   UNL     1       8.236  28.985  55.007  1.00  0.00     0.190 HD
ENDROOT
BRANCH   2   5
HETATM    5  N   UNL     1       7.496  29.994  56.650  1.00  0.00    -0.262 N 
HETATM    6  C   UNL     1       8.624  29.943  57.438  1.00  0.00     0.288 C 
HETATM    7  O   UNL     1       9.575  29.212  57.161  1.00  0.00    -0.264 OA
HETATM    8  H   UNL     1       6.663  30.528  56.885  1.00  0.00     0.190 HD
BRANCH   6   9
HETATM    9  C   UNL     1       8.610  30.798  58.591  1.00  0.00     0.121 A 
HETATM   10  N   UNL     1       9.610  31.698  58.832  1.00  0.00    -0.272 N 
HETATM   11  H   UNL     1      10.437  31.858  58.265  1.00  0.00     0.189 HD
HETATM   12  N   UNL     1       9.433  32.435  59.937  1.00  0.00    -0.174 NA
HETATM   13  C   UNL     1       8.273  32.000  60.458  1.00  0.00     0.089 A 
HETATM   14  C   UNL     1       7.728  30.968  59.641  1.00  0.00     0.071 A 
BRANCH  13  15
HETATM   15  C   UNL     1       7.714  32.578  61.685  1.00  0.00    -0.005 A 
HETATM   16  C   UNL     1       6.541  33.343  61.639  1.00  0.00     0.016 A 
HETATM   17  C   UNL     1       5.986  33.873  62.808  1.00  0.00     0.037 A 
HETATM   18  C   UNL     1       6.592  33.654  64.046  1.00  0.00     0.068 A 
HETATM   19  C   UNL     1       7.770  32.909  64.102  1.00  0.00     0.037 A 
HETATM   20  C   UNL     1       8.325  32.375  62.930  1.00  0.00     0.016 A 
BRANCH  18  21
HETATM   21  O   UNL     1       5.944  34.218  65.109  1.00  0.00    -0.356 OA
HETATM   22  C   UNL     1       4.522  34.204  65.077  1.00  0.00     0.210 C 
ENDBRANCH  18  21
ENDBRANCH  13  15
ENDBRANCH   6   9
ENDBRANCH   2   5
BRANCH   1  23
HETATM   23  C   UNL     1       6.055  27.775  54.048  1.00  0.00     0.077 A 
HETATM   24  C   UNL     1       5.002  27.424  53.201  1.00  0.00     0.048 A 
HETATM   25  N   UNL     1       5.554  26.566  52.263  1.00  0.00    -0.269 N 
HETATM   26  N   UNL     1       6.875  26.362  52.441  1.00  0.00    -0.183 NA
HETATM   27  C   UNL     1       7.170  27.087  53.514  1.00  0.00     0.158 A 
BRANCH  24  28
HETATM   28  C   UNL     1       3.559  27.823  53.163  1.00  0.00     0.055 C 
HETATM   29  C   UNL     1       3.371  29.268  52.727  1.00  0.00     0.011 C 
ENDBRANCH  24  28
BRANCH  25  30
HETATM   30  C   UNL     1       4.923  25.945  51.097  1.00  0.00     0.189 C 
BRANCH  30  31
HETATM   31  C   UNL     1       4.966  26.810  49.859  1.00  0.00    -0.038 A 
HETATM   32  C   UNL     1       4.412  26.340  48.659  1.00  0.00     0.009 A 
HETATM   33  C   UNL     1       4.396  27.147  47.518  1.00  0.00     0.001 A 
HETATM   34  C   UNL     1       4.925  28.435  47.567  1.00  0.00     0.000 A 
HETATM   35  C   UNL     1       5.463  28.920  48.755  1.00  0.00     0.001 A 
HETATM   36  C   UNL     1       5.476  28.118  49.897  1.00  0.00     0.009 A 
ENDBRANCH  30  31
ENDBRANCH  25  30
ENDBRANCH   1  23
TORSDOF 8
ENDMDL
MODEL 8
REMARK VINA RESULT:      -8.8      3.399     12.086
REMARK  8 active torsions:
REMARK  status: ('A' for Active; 'I' for Inactive)
REMARK    1  A    between atoms: C_2  and  C_3 
REMARK    2  A    between atoms: N_4  and  C_5 
REMARK    3  A    between atoms: C_5  and  C_6 
REMARK    4  A    between atoms: C_14  and  C_15 
REMARK       I    between atoms: C_15  and  N_16 
REMARK    5  A    between atoms: N_16  and  N_17 
REMARK       I    between atoms: N_17  and  C_18 
REMARK    6  A    between atoms: C_18  and  C_19 
REMARK    7  A    between atoms: C_23  and  C_24 
REMARK    8  A    between atoms: C_27  and  O_28 
ROOT
HETATM    1  C   UNL     1       4.718  31.412  58.685  1.00  0.00     0.273 C 
HETATM    2  N   UNL     1       3.936  30.324  58.367  1.00  0.00    -0.263 N 
HETATM    3  O   UNL     1       5.931  31.398  58.465  1.00  0.00    -0.266 OA
HETATM    4  H   UNL     1       2.927  30.294  58.452  1.00  0.00     0.190 HD
ENDROOT
BRANCH   2   5
HETATM    5  N   UNL     1       4.552  29.208  57.784  1.00  0.00    -0.262 N 
HETATM    6  C   UNL     1       4.315  28.926  56.457  1.00  0.00     0.288 C 
HETATM    7  O   UNL     1       3.630  29.665  55.750  1.00  0.00    -0.264 OA
HETATM    8  H   UNL     1       5.049  28.586  58.416  1.00  0.00     0.190 HD
BRANCH   6   9
HETATM    9  C   UNL     1       4.921  27.721  55.965  1.00  0.00     0.121 A 
HETATM   10  N   UNL     1       4.787  27.329  54.663  1.00  0.00    -0.272 N 
HETATM   11  H   UNL     1       4.270  27.806  53.931  1.00  0.00     0.189 HD
HETATM   12  N   UNL     1       5.433  26.194  54.360  1.00  0.00    -0.174 NA
HETATM   13  C   UNL     1       6.011  25.812  55.511  1.00  0.00     0.089 A 
HETATM   14  C   UNL     1       5.708  26.745  56.544  1.00  0.00     0.071 A 
BRANCH  13  15
HETATM   15  C   UNL     1       6.837  24.602  55.594  1.00  0.00    -0.005 A 
HETATM   16  C   UNL     1       6.864  23.686  54.535  1.00  0.00     0.016 A 
HETATM   17  C   UNL     1       7.670  22.545  54.596  1.00  0.00     0.037 A 
HETATM   18  C   UNL     1       8.464  22.293  55.715  1.00  0.00     0.068 A 
HETATM   19  C   UNL     1       8.432  23.189  56.784  1.00  0.00     0.037 A 
HETATM   20  C   UNL     1       7.626  24.335  56.723  1.00  0.00     0.016 A 
BRANCH  18  21
HETATM   21  O   UNL     1       9.211  21.151  55.644  1.00  0.00    -0.356 OA
HETATM   22  C   UNL     1       8.659  20.066  54.910  1.00  0.00     0.210 C 
ENDBRANCH  18  21
ENDBRANCH  13  15
ENDBRANCH   6   9
ENDBRANCH   2   5
BRANCH   1  23
HETATM   23  C   UNL     1       4.057  32.573  59.266  1.00  0.00     0.077 A 
HETATM   24  C   UNL     1       3.688  32.908  60.571  1.00  0.00     0.048 A 
HETATM   25  N   UNL     1       3.107  34.163  60.478  1.00  0.00    -0.269 N 
HETATM   26  N   UNL     1       3.096  34.653  59.222  1.00  0.00    -0.183 NA
HETATM   27  C   UNL     1       3.665  33.696  58.499  1.00  0.00     0.158 A 
BRANCH  24  28
HETATM   28  C   UNL     1       3.843  32.197  61.879  1.00  0.00     0.055 C 
HETATM   29  C   UNL     1       5.212  32.429  62.503  1.00  0.00     0.011 C 
ENDBRANCH  24  28
BRANCH  25  30
HETATM   30  C   UNL     1       2.600  35.026  61.547  1.00  0.00     0.189 C 
BRANCH  30  31
HETATM   31  C   UNL     1       3.686  35.778  62.278  1.00  0.00    -0.038 A 
HETATM   32  C   UNL     1       4.642  36.506  61.552  1.00  0.00     0.009 A 
HETATM   33  C   UNL     1       5.622  37.251  62.213  1.00  0.00     0.001 A 
HETATM   34  C   UNL     1       5.653  37.283  63.606  1.00  0.00     0.000 A 
HETATM   35  C   UNL     1       4.702  36.579  64.338  1.00  0.00     0.001 A 
HETATM   36  C   UNL     1       3.719  35.838  63.680  1.00  0.00     0.009 A 
ENDBRANCH  30  31
ENDBRANCH  25  30
ENDBRANCH   1  23
TORSDOF 8
ENDMDL
MODEL 9
REMARK VINA RESULT:      -8.4      3.311     12.353
REMARK  8 active torsions:
REMARK  status: ('A' for Active; 'I' for Inactive)
REMARK    1  A    between atoms: C_2  and  C_3 
REMARK    2  A    between atoms: N_4  and  C_5 
REMARK    3  A    between atoms: C_5  and  C_6 
REMARK    4  A    between atoms: C_14  and  C_15 
REMARK       I    between atoms: C_15  and  N_16 
REMARK    5  A    between atoms: N_16  and  N_17 
REMARK       I    between atoms: N_17  and  C_18 
REMARK    6  A    between atoms: C_18  and  C_19 
REMARK    7  A    between atoms: C_23  and  C_24 
REMARK    8  A    between atoms: C_27  and  O_28 
ROOT
HETATM    1  C   UNL     1       5.978  32.194  59.109  1.00  0.00     0.273 C 
HETATM    2  N   UNL     1       6.262  30.858  58.936  1.00  0.00    -0.263 N 
HETATM    3  O   UNL     1       5.734  32.914  58.139  1.00  0.00    -0.266 OA
HETATM    4  H   UNL     1       6.399  30.195  59.689  1.00  0.00     0.190 HD
ENDROOT
BRANCH   2   5
HETATM    5  N   UNL     1       6.258  30.339  57.634  1.00  0.00    -0.262 N 
HETATM    6  C   UNL     1       7.073  29.270  57.334  1.00  0.00     0.288 C 
HETATM    7  O   UNL     1       7.754  28.712  58.195  1.00  0.00    -0.264 OA
HETATM    8  H   UNL     1       5.740  30.869  56.939  1.00  0.00     0.190 HD
BRANCH   6   9
HETATM    9  C   UNL     1       7.066  28.856  55.959  1.00  0.00     0.121 A 
HETATM   10  N   UNL     1       8.211  28.820  55.213  1.00  0.00    -0.272 N 
HETATM   11  H   UNL     1       9.146  29.072  55.517  1.00  0.00     0.189 HD
HETATM   12  N   UNL     1       8.035  28.389  53.956  1.00  0.00    -0.174 NA
HETATM   13  C   UNL     1       6.720  28.138  53.860  1.00  0.00     0.089 A 
HETATM   14  C   UNL     1       6.076  28.424  55.099  1.00  0.00     0.071 A 
BRANCH  13  15
HETATM   15  C   UNL     1       6.121  27.625  52.623  1.00  0.00    -0.005 A 
HETATM   16  C   UNL     1       5.531  28.501  51.702  1.00  0.00     0.016 A 
HETATM   17  C   UNL     1       4.984  28.022  50.508  1.00  0.00     0.037 A 
HETATM   18  C   UNL     1       5.010  26.660  50.209  1.00  0.00     0.068 A 
HETATM   19  C   UNL     1       5.578  25.776  51.126  1.00  0.00     0.037 A 
HETATM   20  C   UNL     1       6.130  26.255  52.322  1.00  0.00     0.016 A 
BRANCH  18  21
HETATM   21  O   UNL     1       4.451  26.325  49.007  1.00  0.00    -0.356 OA
HETATM   22  C   UNL     1       4.900  27.046  47.866  1.00  0.00     0.210 C 
ENDBRANCH  18  21
ENDBRANCH  13  15
ENDBRANCH   6   9
ENDBRANCH   2   5
BRANCH   1  23
HETATM   23  C   UNL     1       5.960  32.711  60.471  1.00  0.00     0.077 A 
HETATM   24  C   UNL     1       6.921  32.771  61.483  1.00  0.00     0.048 A 
HETATM   25  N   UNL     1       6.295  33.398  62.549  1.00  0.00    -0.269 N 
HETATM   26  N   UNL     1       5.022  33.754  62.283  1.00  0.00    -0.183 NA
HETATM   27  C   UNL     1       4.825  33.339  61.038  1.00  0.00     0.158 A 
BRANCH  24  28
HETATM   28  C   UNL     1       8.351  32.331  61.545  1.00  0.00     0.055 C 
HETATM   29  C   UNL     1       8.504  30.954  62.173  1.00  0.00     0.011 C 
ENDBRANCH  24  28
BRANCH  25  30
HETATM   30  C   UNL     1       6.851  33.784  63.847  1.00  0.00     0.189 C 
BRANCH  30  31
HETATM   31  C   UNL     1       5.861  34.497  64.737  1.00  0.00    -0.038 A 
HETATM   32  C   UNL     1       5.350  33.852  65.873  1.00  0.00     0.009 A 
HETATM   33  C   UNL     1       4.474  34.516  66.735  1.00  0.00     0.001 A 
HETATM   34  C   UNL     1       4.106  35.835  66.476  1.00  0.00     0.000 A 
HETATM   35  C   UNL     1       4.618  36.493  65.362  1.00  0.00     0.001 A 
HETATM   36  C   UNL     1       5.497  35.833  64.502  1.00  0.00     0.009 A 
ENDBRANCH  30  31
ENDBRANCH  25  30
ENDBRANCH   1  23
TORSDOF 8
ENDMDL
MODEL 10
REMARK VINA RESULT:      -8.3      3.481     12.763
REMARK  8 active torsions:
REMARK  status: ('A' for Active; 'I' for Inactive)
REMARK    1  A    between atoms: C_2  and  C_3 
REMARK    2  A    between atoms: N_4  and  C_5 
REMARK    3  A    between atoms: C_5  and  C_6 
REMARK    4  A    between atoms: C_14  and  C_15 
REMARK       I    between atoms: C_15  and  N_16 
REMARK    5  A    between atoms: N_16  and  N_17 
REMARK       I    between atoms: N_17  and  C_18 
REMARK    6  A    between atoms: C_18  and  C_19 
REMARK    7  A    between atoms: C_23  and  C_24 
REMARK    8  A    between atoms: C_27  and  O_28 
ROOT
HETATM    1  C   UNL     1       5.106  32.853  61.367  1.00  0.00     0.273 C 
HETATM    2  N   UNL     1       6.095  32.586  60.446  1.00  0.00    -0.263 N 
HETATM    3  O   UNL     1       4.128  32.109  61.471  1.00  0.00    -0.266 OA
HETATM    4  H   UNL     1       6.956  33.110  60.357  1.00  0.00     0.190 HD
ENDROOT
BRANCH   2   5
HETATM    5  N   UNL     1       5.964  31.447  59.640  1.00  0.00    -0.262 N 
HETATM    6  C   UNL     1       6.945  31.161  58.717  1.00  0.00     0.288 C 
HETATM    7  O   UNL     1       7.967  31.840  58.626  1.00  0.00    -0.264 OA
HETATM    8  H   UNL     1       5.076  30.955  59.695  1.00  0.00     0.190 HD
BRANCH   6   9
HETATM    9  C   UNL     1       6.690  30.023  57.879  1.00  0.00     0.121 A 
HETATM   10  N   UNL     1       5.624  29.982  57.026  1.00  0.00    -0.272 N 
HETATM   11  H   UNL     1       4.920  30.701  56.893  1.00  0.00     0.189 HD
HETATM   12  N   UNL     1       5.543  28.859  56.299  1.00  0.00    -0.174 NA
HETATM   13  C   UNL     1       6.593  28.120  56.692  1.00  0.00     0.089 A 
HETATM   14  C   UNL     1       7.336  28.817  57.688  1.00  0.00     0.071 A 
BRANCH  13  15
HETATM   15  C   UNL     1       6.870  26.802  56.109  1.00  0.00    -0.005 A 
HETATM   16  C   UNL     1       6.684  25.638  56.865  1.00  0.00     0.016 A 
HETATM   17  C   UNL     1       6.919  24.377  56.307  1.00  0.00     0.037 A 
HETATM   18  C   UNL     1       7.347  24.252  54.985  1.00  0.00     0.068 A 
HETATM   19  C   UNL     1       7.554  25.405  54.228  1.00  0.00     0.037 A 
HETATM   20  C   UNL     1       7.315  26.669  54.786  1.00  0.00     0.016 A 
BRANCH  18  21
HETATM   21  O   UNL     1       7.530  22.966  54.560  1.00  0.00    -0.356 OA
HETATM   22  C   UNL     1       7.577  22.753  53.155  1.00  0.00     0.210 C 
ENDBRANCH  18  21
ENDBRANCH  13  15
ENDBRANCH   6   9
ENDBRANCH   2   5
BRANCH   1  23
HETATM   23  C   UNL     1       5.270  34.026  62.216  1.00  0.00     0.077 A 
HETATM   24  C   UNL     1       4.683  35.294  62.216  1.00  0.00     0.048 A 
HETATM   25  N   UNL     1       5.249  35.960  63.292  1.00  0.00    -0.269 N 
HETATM   26  N   UNL     1       6.131  35.208  63.980  1.00  0.00    -0.183 NA
HETATM   27  C   UNL     1       6.142  34.050  63.330  1.00  0.00     0.158 A 
BRANCH  24  28
HETATM   28  C   UNL     1       3.645  35.927  61.343  1.00  0.00     0.055 C 
HETATM   29  C   UNL     1       2.279  35.277  61.506  1.00  0.00     0.011 C 
ENDBRANCH  24  28
BRANCH  25  30
HETATM   30  C   UNL     1       4.954  37.299  63.806  1.00  0.00     0.189 C 
BRANCH  30  31
HETATM   31  C   UNL     1       5.952  38.344  63.368  1.00  0.00    -0.038 A 
HETATM   32  C   UNL     1       6.437  38.340  62.051  1.00  0.00     0.009 A 
HETATM   33  C   UNL     1       7.321  39.330  61.616  1.00  0.00     0.001 A 
HETATM   34  C   UNL     1       7.724  40.339  62.487  1.00  0.00     0.000 A 
HETATM   35  C   UNL     1       7.239  40.365  63.792  1.00  0.00     0.001 A 
HETATM   36  C   UNL     1       6.352  39.380  64.228  1.00  0.00     0.009 A 
ENDBRANCH  30  31
ENDBRANCH  25  30
ENDBRANCH   1  23
TORSDOF 8
ENDMDL
