MODEL 1
REMARK VINA RESULT:     -11.1      0.000      0.000
REMARK  8 active torsions:
REMARK  status: ('A' for Active; 'I' for Inactive)
REMARK    1  A    between atoms: C_6  and  N_7 
REMARK       I    between atoms: N_7  and  C_8 
REMARK    2  A    between atoms: C_8  and  C_9 
REMARK    3  A    between atoms: C_10  and  N_11 
REMARK       I    between atoms: N_11  and  C_12 
REMARK    4  A    between atoms: C_12  and  C_13 
REMARK    5  A    between atoms: C_13  and  N_14 
REMARK    6  A    between atoms: N_14  and  C_17 
REMARK    7  A    between atoms: C_17  and  C_18 
REMARK    8  A    between atoms: C_30  and  C_31 
ROOT
HETATM    1  C   UNL     1       5.277  26.898  52.095  1.00  0.00     0.073 A 
HETATM    2  C   UNL     1       5.555  28.118  52.680  1.00  0.00     0.093 A 
HETATM    3  S   UNL     1       5.414  29.425  51.593  1.00  0.00    -0.075 SA
HETATM    4  C   UNL     1       4.967  28.399  50.322  1.00  0.00    -0.008 A 
HETATM    5  C   UNL     1       4.961  27.070  50.689  1.00  0.00    -0.026 A 
HETATM    6  C   UNL     1       4.674  25.981  49.695  1.00  0.00     0.041 C 
HETATM    7  C   UNL     1       4.613  26.494  48.243  1.00  0.00     0.010 C 
HETATM    8  C   UNL     1       3.986  27.905  48.040  1.00  0.00    -0.002 C 
HETATM    9  C   UNL     1       4.716  28.930  48.946  1.00  0.00     0.052 C 
ENDROOT
BRANCH   2  10
HETATM   10  N   UNL     1       5.947  28.568  53.921  1.00  0.00    -0.319 N 
HETATM   11  C   UNL     1       7.194  28.402  54.466  1.00  0.00     0.248 C 
HETATM   12  O   UNL     1       8.094  27.665  54.074  1.00  0.00    -0.271 OA
HETATM   13  H   UNL     1       5.185  28.953  54.472  1.00  0.00     0.169 HD
BRANCH  11  14
HETATM   14  C   UNL     1       7.430  29.214  55.735  1.00  0.00     0.335 C 
BRANCH  14  15
HETATM   15  N   UNL     1       8.162  28.405  56.771  1.00  0.00    -0.063 N 
HETATM   16  H   UNL     1       7.570  28.243  57.593  1.00  0.00     0.278 HD
HETATM   17  H   UNL     1       8.341  27.476  56.350  1.00  0.00     0.278 HD
BRANCH  15  18
HETATM   18  C   UNL     1       9.487  28.949  57.196  1.00  0.00     0.272 C 
BRANCH  18  19
HETATM   19  C   UNL     1       9.306  30.095  58.141  1.00  0.00    -0.015 A 
HETATM   20  C   UNL     1      10.116  31.222  58.065  1.00  0.00     0.125 A 
HETATM   21  N   UNL     1      10.051  32.251  58.934  1.00  0.00    -0.273 NA
HETATM   22  C   UNL     1       9.126  32.180  59.916  1.00  0.00     0.116 A 
HETATM   23  C   UNL     1       8.268  31.109  60.076  1.00  0.00     0.020 A 
HETATM   24  C   UNL     1       8.362  30.049  59.178  1.00  0.00     0.012 A 
ENDBRANCH  18  19
ENDBRANCH  15  18
ENDBRANCH  14  15
ENDBRANCH  11  14
ENDBRANCH   2  10
BRANCH   1  25
HETATM   25  C   UNL     1       5.372  25.600  52.760  1.00  0.00     0.259 C 
HETATM   26  N   UNL     1       6.677  25.297  53.110  1.00  0.00    -0.322 N 
HETATM   27  H   UNL     1       7.370  25.789  52.561  1.00  0.00     0.169 HD
HETATM   28  O   UNL     1       4.385  24.886  52.887  1.00  0.00    -0.267 OA
BRANCH  26  29
HETATM   29  C   UNL     1       7.087  24.064  53.660  1.00  0.00     0.041 A 
HETATM   30  C   UNL     1       7.111  23.782  55.035  1.00  0.00    -0.035 A 
HETATM   31  C   UNL     1       7.495  22.493  55.455  1.00  0.00     0.015 A 
HETATM   32  C   UNL     1       6.806  24.799  56.099  1.00  0.00     0.050 C 
HETATM   33  C   UNL     1       7.904  21.514  54.540  1.00  0.00    -0.061 A 
HETATM   34  C   UNL     1       8.306  20.144  55.002  1.00  0.00     0.048 C 
HETATM   35  C   UNL     1       7.927  21.829  53.182  1.00  0.00     0.009 A 
HETATM   36  C   UNL     1       7.538  23.098  52.749  1.00  0.00     0.030 A 
ENDBRANCH  26  29
ENDBRANCH   1  25
BRANCH   8  37
HETATM   37  C   UNL     1       2.408  27.968  48.037  1.00  0.00    -0.047 C 
HETATM   38  C   UNL     1       1.785  28.359  49.386  1.00  0.00     0.015 C 
HETATM   39  C   UNL     1       1.893  28.971  46.979  1.00  0.00     0.015 C 
HETATM   40  C   UNL     1       1.847  26.580  47.643  1.00  0.00     0.015 C 
ENDBRANCH   8  37
TORSDOF 8
ENDMDL
MODEL 2
REMARK VINA RESULT:     -10.7      0.990      1.610
REMARK  8 active torsions:
REMARK  status: ('A' for Active; 'I' for Inactive)
REMARK    1  A    between atoms: C_6  and  N_7 
REMARK       I    between atoms: N_7  and  C_8 
REMARK    2  A    between atoms: C_8  and  C_9 
REMARK    3  A    between atoms: C_10  and  N_11 
REMARK       I    between atoms: N_11  and  C_12 
REMARK    4  A    between atoms: C_12  and  C_13 
REMARK    5  A    between atoms: C_13  and  N_14 
REMARK    6  A    between atoms: N_14  and  C_17 
REMARK    7  A    between atoms: C_17  and  C_18 
REMARK    8  A    between atoms: C_30  and  C_31 
ROOT
HETATM    1  C   UNL     1       4.735  26.996  52.482  1.00  0.00     0.073 A 
HETATM    2  C   UNL     1       4.583  28.144  53.238  1.00  0.00     0.093 A 
HETATM    3  S   UNL     1       4.337  29.538  52.287  1.00  0.00    -0.075 SA
HETATM    4  C   UNL     1       4.415  28.647  50.849  1.00  0.00    -0.008 A 
HETATM    5  C   UNL     1       4.668  27.309  51.067  1.00  0.00    -0.026 A 
HETATM    6  C   UNL     1       4.860  26.350  49.927  1.00  0.00     0.041 C 
HETATM    7  C   UNL     1       4.958  27.054  48.560  1.00  0.00     0.010 C 
HETATM    8  C   UNL     1       4.053  28.307  48.366  1.00  0.00    -0.002 C 
HETATM    9  C   UNL     1       4.315  29.315  49.515  1.00  0.00     0.052 C 
ENDROOT
BRANCH   2  10
HETATM   10  N   UNL     1       4.600  28.472  54.574  1.00  0.00    -0.319 N 
HETATM   11  C   UNL     1       5.724  28.547  55.357  1.00  0.00     0.248 C 
HETATM   12  O   UNL     1       6.851  28.139  55.094  1.00  0.00    -0.271 OA
HETATM   13  H   UNL     1       3.674  28.554  54.984  1.00  0.00     0.169 HD
BRANCH  11  14
HETATM   14  C   UNL     1       5.486  29.176  56.725  1.00  0.00     0.335 C 
BRANCH  14  15
HETATM   15  N   UNL     1       6.588  28.819  57.687  1.00  0.00    -0.063 N 
HETATM   16  H   UNL     1       6.266  28.124  58.370  1.00  0.00     0.278 HD
HETATM   17  H   UNL     1       7.331  28.360  57.130  1.00  0.00     0.278 HD
BRANCH  15  18
HETATM   18  C   UNL     1       7.226  29.971  58.393  1.00  0.00     0.272 C 
BRANCH  18  19
HETATM   19  C   UNL     1       8.674  30.073  58.031  1.00  0.00    -0.015 A 
HETATM   20  C   UNL     1       9.432  31.175  58.409  1.00  0.00     0.125 A 
HETATM   21  N   UNL     1      10.718  31.358  58.048  1.00  0.00    -0.273 NA
HETATM   22  C   UNL     1      11.298  30.398  57.296  1.00  0.00     0.116 A 
HETATM   23  C   UNL     1      10.635  29.260  56.873  1.00  0.00     0.020 A 
HETATM   24  C   UNL     1       9.303  29.098  57.242  1.00  0.00     0.012 A 
ENDBRANCH  18  19
ENDBRANCH  15  18
ENDBRANCH  14  15
ENDBRANCH  11  14
ENDBRANCH   2  10
BRANCH   1  25
HETATM   25  C   UNL     1       5.018  25.665  53.015  1.00  0.00     0.259 C 
HETATM   26  N   UNL     1       6.334  25.545  53.424  1.00  0.00    -0.322 N 
HETATM   27  H   UNL     1       6.961  26.204  52.982  1.00  0.00     0.169 HD
HETATM   28  O   UNL     1       4.163  24.787  52.995  1.00  0.00    -0.267 OA
BRANCH  26  29
HETATM   29  C   UNL     1       6.921  24.342  53.872  1.00  0.00     0.041 A 
HETATM   30  C   UNL     1       6.976  23.943  55.217  1.00  0.00    -0.035 A 
HETATM   31  C   UNL     1       7.547  22.693  55.530  1.00  0.00     0.015 A 
HETATM   32  C   UNL     1       6.512  24.802  56.360  1.00  0.00     0.050 C 
HETATM   33  C   UNL     1       8.106  21.874  54.541  1.00  0.00    -0.061 A 
HETATM   34  C   UNL     1       8.706  20.543  54.889  1.00  0.00     0.048 C 
HETATM   35  C   UNL     1       8.093  22.311  53.217  1.00  0.00     0.009 A 
HETATM   36  C   UNL     1       7.521  23.541  52.889  1.00  0.00     0.030 A 
ENDBRANCH  26  29
ENDBRANCH   1  25
BRANCH   8  37
HETATM   37  C   UNL     1       2.541  28.020  48.013  1.00  0.00    -0.047 C 
HETATM   38  C   UNL     1       2.262  26.591  47.524  1.00  0.00     0.015 C 
HETATM   39  C   UNL     1       1.626  28.282  49.232  1.00  0.00     0.015 C 
HETATM   40  C   UNL     1       2.087  28.996  46.900  1.00  0.00     0.015 C 
ENDBRANCH   8  37
TORSDOF 8
ENDMDL
MODEL 3
REMARK VINA RESULT:     -10.0      2.216      2.475
REMARK  8 active torsions:
REMARK  status: ('A' for Active; 'I' for Inactive)
REMARK    1  A    between atoms: C_6  and  N_7 
REMARK       I    between atoms: N_7  and  C_8 
REMARK    2  A    between atoms: C_8  and  C_9 
REMARK    3  A    between atoms: C_10  and  N_11 
REMARK       I    between atoms: N_11  and  C_12 
REMARK    4  A    between atoms: C_12  and  C_13 
REMARK    5  A    between atoms: C_13  and  N_14 
REMARK    6  A    between atoms: N_14  and  C_17 
REMARK    7  A    between atoms: C_17  and  C_18 
REMARK    8  A    between atoms: C_30  and  C_31 
ROOT
HETATM    1  C   UNL     1       5.219  26.934  52.091  1.00  0.00     0.073 A 
HETATM    2  C   UNL     1       5.447  28.151  52.706  1.00  0.00     0.093 A 
HETATM    3  S   UNL     1       5.288  29.474  51.642  1.00  0.00    -0.075 SA
HETATM    4  C   UNL     1       4.900  28.461  50.341  1.00  0.00    -0.008 A 
HETATM    5  C   UNL     1       4.928  27.126  50.682  1.00  0.00    -0.026 A 
HETATM    6  C   UNL     1       4.697  26.048  49.661  1.00  0.00     0.041 C 
HETATM    7  C   UNL     1       4.651  26.589  48.218  1.00  0.00     0.010 C 
HETATM    8  C   UNL     1       3.985  27.983  48.029  1.00  0.00    -0.002 C 
HETATM    9  C   UNL     1       4.663  29.012  48.971  1.00  0.00     0.052 C 
ENDROOT
BRANCH   2  10
HETATM   10  N   UNL     1       5.797  28.587  53.963  1.00  0.00    -0.319 N 
HETATM   11  C   UNL     1       7.046  28.480  54.520  1.00  0.00     0.248 C 
HETATM   12  O   UNL     1       7.992  27.809  54.119  1.00  0.00    -0.271 OA
HETATM   13  H   UNL     1       5.007  28.911  54.515  1.00  0.00     0.169 HD
BRANCH  11  14
HETATM   14  C   UNL     1       7.219  29.268  55.813  1.00  0.00     0.335 C 
BRANCH  14  15
HETATM   15  N   UNL     1       6.102  30.259  56.001  1.00  0.00    -0.063 N 
HETATM   16  H   UNL     1       6.460  31.220  55.984  1.00  0.00     0.278 HD
HETATM   17  H   UNL     1       5.479  30.162  55.180  1.00  0.00     0.278 HD
BRANCH  15  18
HETATM   18  C   UNL     1       5.254  30.052  57.213  1.00  0.00     0.272 C 
BRANCH  18  19
HETATM   19  C   UNL     1       4.730  31.360  57.717  1.00  0.00    -0.015 A 
HETATM   20  C   UNL     1       3.716  31.408  58.668  1.00  0.00     0.125 A 
HETATM   21  N   UNL     1       3.152  32.553  59.103  1.00  0.00    -0.273 NA
HETATM   22  C   UNL     1       3.623  33.713  58.595  1.00  0.00     0.116 A 
HETATM   23  C   UNL     1       4.631  33.775  57.652  1.00  0.00     0.020 A 
HETATM   24  C   UNL     1       5.190  32.582  57.203  1.00  0.00     0.012 A 
ENDBRANCH  18  19
ENDBRANCH  15  18
ENDBRANCH  14  15
ENDBRANCH  11  14
ENDBRANCH   2  10
BRANCH   1  25
HETATM   25  C   UNL     1       5.341  25.627  52.733  1.00  0.00     0.259 C 
HETATM   26  N   UNL     1       6.651  25.348  53.084  1.00  0.00    -0.322 N 
HETATM   27  H   UNL     1       7.335  25.866  52.549  1.00  0.00     0.169 HD
HETATM   28  O   UNL     1       4.370  24.888  52.841  1.00  0.00    -0.267 OA
BRANCH  26  29
HETATM   29  C   UNL     1       7.086  24.115  53.613  1.00  0.00     0.041 A 
HETATM   30  C   UNL     1       7.088  23.800  54.981  1.00  0.00    -0.035 A 
HETATM   31  C   UNL     1       7.502  22.512  55.380  1.00  0.00     0.015 A 
HETATM   32  C   UNL     1       6.727  24.779  56.063  1.00  0.00     0.050 C 
HETATM   33  C   UNL     1       7.962  21.570  54.451  1.00  0.00    -0.061 A 
HETATM   34  C   UNL     1       8.395  20.202  54.889  1.00  0.00     0.048 C 
HETATM   35  C   UNL     1       8.006  21.919  53.102  1.00  0.00     0.009 A 
HETATM   36  C   UNL     1       7.588  23.186  52.690  1.00  0.00     0.030 A 
ENDBRANCH  26  29
ENDBRANCH   1  25
BRANCH   8  37
HETATM   37  C   UNL     1       2.406  27.997  47.993  1.00  0.00    -0.047 C 
HETATM   38  C   UNL     1       1.743  28.375  49.326  1.00  0.00     0.015 C 
HETATM   39  C   UNL     1       1.883  28.980  46.919  1.00  0.00     0.015 C 
HETATM   40  C   UNL     1       1.896  26.591  47.593  1.00  0.00     0.015 C 
ENDBRANCH   8  37
TORSDOF 8
ENDMDL
MODEL 4
REMARK VINA RESULT:      -9.8      2.164      3.096
REMARK  8 active torsions:
REMARK  status: ('A' for Active; 'I' for Inactive)
REMARK    1  A    between atoms: C_6  and  N_7 
REMARK       I    between atoms: N_7  and  C_8 
REMARK    2  A    between atoms: C_8  and  C_9 
REMARK    3  A    between atoms: C_10  and  N_11 
REMARK       I    between atoms: N_11  and  C_12 
REMARK    4  A    between atoms: C_12  and  C_13 
REMARK    5  A    between atoms: C_13  and  N_14 
REMARK    6  A    between atoms: N_14  and  C_17 
REMARK    7  A    between atoms: C_17  and  C_18 
REMARK    8  A    between atoms: C_30  and  C_31 
ROOT
HETATM    1  C   UNL     1       4.894  26.869  52.580  1.00  0.00     0.073 A 
HETATM    2  C   UNL     1       4.842  28.003  53.368  1.00  0.00     0.093 A 
HETATM    3  S   UNL     1       4.625  29.432  52.464  1.00  0.00    -0.075 SA
HETATM    4  C   UNL     1       4.582  28.576  51.004  1.00  0.00    -0.008 A 
HETATM    5  C   UNL     1       4.773  27.221  51.178  1.00  0.00    -0.026 A 
HETATM    6  C   UNL     1       4.855  26.282  50.008  1.00  0.00     0.041 C 
HETATM    7  C   UNL     1       4.923  27.015  48.654  1.00  0.00     0.010 C 
HETATM    8  C   UNL     1       4.078  28.318  48.536  1.00  0.00    -0.002 C 
HETATM    9  C   UNL     1       4.451  29.282  49.692  1.00  0.00     0.052 C 
ENDROOT
BRANCH   2  10
HETATM   10  N   UNL     1       4.944  28.296  54.710  1.00  0.00    -0.319 N 
HETATM   11  C   UNL     1       6.106  28.274  55.439  1.00  0.00     0.248 C 
HETATM   12  O   UNL     1       7.188  27.797  55.113  1.00  0.00    -0.271 OA
HETATM   13  H   UNL     1       4.046  28.431  55.165  1.00  0.00     0.169 HD
BRANCH  11  14
HETATM   14  C   UNL     1       5.976  28.883  56.830  1.00  0.00     0.335 C 
BRANCH  14  15
HETATM   15  N   UNL     1       6.580  30.261  56.880  1.00  0.00    -0.063 N 
HETATM   16  H   UNL     1       7.486  30.245  57.363  1.00  0.00     0.278 HD
HETATM   17  H   UNL     1       6.775  30.535  55.901  1.00  0.00     0.278 HD
BRANCH  15  18
HETATM   18  C   UNL     1       5.711  31.326  57.463  1.00  0.00     0.272 C 
BRANCH  18  19
HETATM   19  C   UNL     1       4.584  31.652  56.534  1.00  0.00    -0.015 A 
HETATM   20  C   UNL     1       3.279  31.272  56.827  1.00  0.00     0.125 A 
HETATM   21  N   UNL     1       2.237  31.470  55.994  1.00  0.00    -0.273 NA
HETATM   22  C   UNL     1       2.485  32.095  54.822  1.00  0.00     0.116 A 
HETATM   23  C   UNL     1       3.744  32.519  54.438  1.00  0.00     0.020 A 
HETATM   24  C   UNL     1       4.809  32.290  55.305  1.00  0.00     0.012 A 
ENDBRANCH  18  19
ENDBRANCH  15  18
ENDBRANCH  14  15
ENDBRANCH  11  14
ENDBRANCH   2  10
BRANCH   1  25
HETATM   25  C   UNL     1       5.131  25.511  53.067  1.00  0.00     0.259 C 
HETATM   26  N   UNL     1       6.454  25.317  53.423  1.00  0.00    -0.322 N 
HETATM   27  H   UNL     1       7.095  25.958  52.974  1.00  0.00     0.169 HD
HETATM   28  O   UNL     1       4.234  24.676  53.057  1.00  0.00    -0.267 OA
BRANCH  26  29
HETATM   29  C   UNL     1       6.998  24.076  53.817  1.00  0.00     0.041 A 
HETATM   30  C   UNL     1       7.103  23.648  55.150  1.00  0.00    -0.035 A 
HETATM   31  C   UNL     1       7.621  22.362  55.409  1.00  0.00     0.015 A 
HETATM   32  C   UNL     1       6.748  24.506  56.332  1.00  0.00     0.050 C 
HETATM   33  C   UNL     1       8.080  21.535  54.377  1.00  0.00    -0.061 A 
HETATM   34  C   UNL     1       8.625  20.167  54.668  1.00  0.00     0.048 C 
HETATM   35  C   UNL     1       8.021  21.999  53.063  1.00  0.00     0.009 A 
HETATM   36  C   UNL     1       7.499  23.265  52.789  1.00  0.00     0.030 A 
ENDBRANCH  26  29
ENDBRANCH   1  25
BRANCH   8  37
HETATM   37  C   UNL     1       2.537  28.121  48.254  1.00  0.00    -0.047 C 
HETATM   38  C   UNL     1       1.623  28.495  49.431  1.00  0.00     0.015 C 
HETATM   39  C   UNL     1       2.084  28.952  47.031  1.00  0.00     0.015 C 
HETATM   40  C   UNL     1       2.272  26.636  47.905  1.00  0.00     0.015 C 
ENDBRANCH   8  37
TORSDOF 8
ENDMDL
MODEL 5
REMARK VINA RESULT:      -9.5      1.645      2.552
REMARK  8 active torsions:
REMARK  status: ('A' for Active; 'I' for Inactive)
REMARK    1  A    between atoms: C_6  and  N_7 
REMARK       I    between atoms: N_7  and  C_8 
REMARK    2  A    between atoms: C_8  and  C_9 
REMARK    3  A    between atoms: C_10  and  N_11 
REMARK       I    between atoms: N_11  and  C_12 
REMARK    4  A    between atoms: C_12  and  C_13 
REMARK    5  A    between atoms: C_13  and  N_14 
REMARK    6  A    between atoms: N_14  and  C_17 
REMARK    7  A    between atoms: C_17  and  C_18 
REMARK    8  A    between atoms: C_30  and  C_31 
ROOT
HETATM    1  C   UNL     1       5.516  28.784  52.791  1.00  0.00     0.073 A 
HETATM    2  C   UNL     1       4.940  29.772  53.568  1.00  0.00     0.093 A 
HETATM    3  S   UNL     1       3.957  30.837  52.670  1.00  0.00    -0.075 SA
HETATM    4  C   UNL     1       4.264  30.003  51.228  1.00  0.00    -0.008 A 
HETATM    5  C   UNL     1       5.135  28.948  51.400  1.00  0.00    -0.026 A 
HETATM    6  C   UNL     1       5.611  28.123  50.238  1.00  0.00     0.041 C 
HETATM    7  C   UNL     1       5.199  28.714  48.875  1.00  0.00     0.010 C 
HETATM    8  C   UNL     1       3.799  29.392  48.815  1.00  0.00    -0.002 C 
HETATM    9  C   UNL     1       3.700  30.470  49.925  1.00  0.00     0.052 C 
ENDROOT
BRANCH   2  10
HETATM   10  N   UNL     1       4.967  30.147  54.893  1.00  0.00    -0.319 N 
HETATM   11  C   UNL     1       4.540  29.375  55.943  1.00  0.00     0.248 C 
HETATM   12  O   UNL     1       3.875  28.344  55.897  1.00  0.00    -0.271 OA
HETATM   13  H   UNL     1       5.238  31.116  55.035  1.00  0.00     0.169 HD
BRANCH  11  14
HETATM   14  C   UNL     1       4.917  29.928  57.313  1.00  0.00     0.335 C 
BRANCH  14  15
HETATM   15  N   UNL     1       6.283  29.458  57.733  1.00  0.00    -0.063 N 
HETATM   16  H   UNL     1       6.224  28.561  58.229  1.00  0.00     0.278 HD
HETATM   17  H   UNL     1       6.815  29.277  56.863  1.00  0.00     0.278 HD
BRANCH  15  18
HETATM   18  C   UNL     1       7.083  30.432  58.534  1.00  0.00     0.272 C 
BRANCH  18  19
HETATM   19  C   UNL     1       8.529  30.362  58.156  1.00  0.00    -0.015 A 
HETATM   20  C   UNL     1       9.400  31.404  58.454  1.00  0.00     0.125 A 
HETATM   21  N   UNL     1      10.693  31.432  58.073  1.00  0.00    -0.273 NA
HETATM   22  C   UNL     1      11.162  30.370  57.383  1.00  0.00     0.116 A 
HETATM   23  C   UNL     1      10.383  29.280  57.042  1.00  0.00     0.020 A 
HETATM   24  C   UNL     1       9.046  29.278  57.430  1.00  0.00     0.012 A 
ENDBRANCH  18  19
ENDBRANCH  15  18
ENDBRANCH  14  15
ENDBRANCH  11  14
ENDBRANCH   2  10
BRANCH   1  25
HETATM   25  C   UNL     1       6.450  27.767  53.271  1.00  0.00     0.259 C 
HETATM   26  N   UNL     1       5.844  26.529  53.389  1.00  0.00    -0.322 N 
HETATM   27  H   UNL     1       4.839  26.575  53.491  1.00  0.00     0.169 HD
HETATM   28  O   UNL     1       7.595  28.068  53.586  1.00  0.00    -0.267 OA
BRANCH  26  29
HETATM   29  C   UNL     1       6.468  25.388  53.937  1.00  0.00     0.041 A 
HETATM   30  C   UNL     1       7.360  24.562  53.235  1.00  0.00    -0.035 A 
HETATM   31  C   UNL     1       7.955  23.478  53.911  1.00  0.00     0.015 A 
HETATM   32  C   UNL     1       7.677  24.729  51.775  1.00  0.00     0.050 C 
HETATM   33  C   UNL     1       7.634  23.178  55.241  1.00  0.00    -0.061 A 
HETATM   34  C   UNL     1       8.280  22.024  55.951  1.00  0.00     0.048 C 
HETATM   35  C   UNL     1       6.704  23.976  55.907  1.00  0.00     0.009 A 
HETATM   36  C   UNL     1       6.114  25.060  55.254  1.00  0.00     0.030 A 
ENDBRANCH  26  29
ENDBRANCH   1  25
BRANCH   8  37
HETATM   37  C   UNL     1       2.564  28.418  48.669  1.00  0.00    -0.047 C 
HETATM   38  C   UNL     1       1.542  28.511  49.812  1.00  0.00     0.015 C 
HETATM   39  C   UNL     1       1.806  28.676  47.346  1.00  0.00     0.015 C 
HETATM   40  C   UNL     1       3.074  26.958  48.611  1.00  0.00     0.015 C 
ENDBRANCH   8  37
TORSDOF 8
ENDMDL
MODEL 6
REMARK VINA RESULT:      -9.5      5.404      9.829
REMARK  8 active torsions:
REMARK  status: ('A' for Active; 'I' for Inactive)
REMARK    1  A    between atoms: C_6  and  N_7 
REMARK       I    between atoms: N_7  and  C_8 
REMARK    2  A    between atoms: C_8  and  C_9 
REMARK    3  A    between atoms: C_10  and  N_11 
REMARK       I    between atoms: N_11  and  C_12 
REMARK    4  A    between atoms: C_12  and  C_13 
REMARK    5  A    between atoms: C_13  and  N_14 
REMARK    6  A    between atoms: N_14  and  C_17 
REMARK    7  A    between atoms: C_17  and  C_18 
REMARK    8  A    between atoms: C_30  and  C_31 
ROOT
HETATM    1  C   UNL     1       6.537  31.249  58.102  1.00  0.00     0.073 A 
HETATM    2  C   UNL     1       5.546  31.804  57.315  1.00  0.00     0.093 A 
HETATM    3  S   UNL     1       5.287  30.942  55.866  1.00  0.00    -0.075 SA
HETATM    4  C   UNL     1       6.479  29.804  56.258  1.00  0.00    -0.008 A 
HETATM    5  C   UNL     1       7.107  30.084  57.453  1.00  0.00    -0.026 A 
HETATM    6  C   UNL     1       8.253  29.251  57.952  1.00  0.00     0.041 C 
HETATM    7  C   UNL     1       8.757  28.236  56.907  1.00  0.00     0.010 C 
HETATM    8  C   UNL     1       7.670  27.584  56.003  1.00  0.00    -0.002 C 
HETATM    9  C   UNL     1       6.834  28.696  55.318  1.00  0.00     0.052 C 
ENDROOT
BRANCH   2  10
HETATM   10  N   UNL     1       4.713  32.898  57.376  1.00  0.00    -0.319 N 
HETATM   11  C   UNL     1       3.679  33.058  58.264  1.00  0.00     0.248 C 
HETATM   12  O   UNL     1       3.175  32.207  58.991  1.00  0.00    -0.271 OA
HETATM   13  H   UNL     1       4.855  33.560  56.618  1.00  0.00     0.169 HD
BRANCH  11  14
HETATM   14  C   UNL     1       3.087  34.463  58.280  1.00  0.00     0.335 C 
BRANCH  14  15
HETATM   15  N   UNL     1       3.686  35.294  59.382  1.00  0.00    -0.063 N 
HETATM   16  H   UNL     1       4.638  34.977  59.602  1.00  0.00     0.278 HD
HETATM   17  H   UNL     1       3.776  36.257  59.012  1.00  0.00     0.278 HD
BRANCH  15  18
HETATM   18  C   UNL     1       2.877  35.385  60.634  1.00  0.00     0.272 C 
BRANCH  18  19
HETATM   19  C   UNL     1       3.740  35.784  61.790  1.00  0.00    -0.015 A 
HETATM   20  C   UNL     1       3.185  36.079  63.031  1.00  0.00     0.125 A 
HETATM   21  N   UNL     1       3.902  36.517  64.086  1.00  0.00    -0.273 NA
HETATM   22  C   UNL     1       5.236  36.650  63.921  1.00  0.00     0.116 A 
HETATM   23  C   UNL     1       5.887  36.376  62.732  1.00  0.00     0.020 A 
HETATM   24  C   UNL     1       5.127  35.941  61.650  1.00  0.00     0.012 A 
ENDBRANCH  18  19
ENDBRANCH  15  18
ENDBRANCH  14  15
ENDBRANCH  11  14
ENDBRANCH   2  10
BRANCH   1  25
HETATM   25  C   UNL     1       7.018  31.800  59.368  1.00  0.00     0.259 C 
HETATM   26  N   UNL     1       6.108  31.605  60.392  1.00  0.00    -0.322 N 
HETATM   27  H   UNL     1       5.158  31.468  60.072  1.00  0.00     0.169 HD
HETATM   28  O   UNL     1       8.075  32.418  59.421  1.00  0.00    -0.267 OA
BRANCH  26  29
HETATM   29  C   UNL     1       6.251  32.130  61.693  1.00  0.00     0.041 A 
HETATM   30  C   UNL     1       5.181  32.369  62.570  1.00  0.00    -0.035 A 
HETATM   31  C   UNL     1       5.460  32.851  63.865  1.00  0.00     0.015 A 
HETATM   32  C   UNL     1       3.737  32.196  62.189  1.00  0.00     0.050 C 
HETATM   33  C   UNL     1       6.768  33.147  64.270  1.00  0.00    -0.061 A 
HETATM   34  C   UNL     1       7.051  33.656  65.654  1.00  0.00     0.048 C 
HETATM   35  C   UNL     1       7.813  32.958  63.367  1.00  0.00     0.009 A 
HETATM   36  C   UNL     1       7.554  32.469  62.086  1.00  0.00     0.030 A 
ENDBRANCH  26  29
ENDBRANCH   1  25
BRANCH   8  37
HETATM   37  C   UNL     1       6.860  26.390  56.646  1.00  0.00    -0.047 C 
HETATM   38  C   UNL     1       7.480  25.820  57.930  1.00  0.00     0.015 C 
HETATM   39  C   UNL     1       5.411  26.816  56.979  1.00  0.00     0.015 C 
HETATM   40  C   UNL     1       6.758  25.237  55.618  1.00  0.00     0.015 C 
ENDBRANCH   8  37
TORSDOF 8
ENDMDL
MODEL 7
REMARK VINA RESULT:      -9.4      2.421      9.272
REMARK  8 active torsions:
REMARK  status: ('A' for Active; 'I' for Inactive)
REMARK    1  A    between atoms: C_6  and  N_7 
REMARK       I    between atoms: N_7  and  C_8 
REMARK    2  A    between atoms: C_8  and  C_9 
REMARK    3  A    between atoms: C_10  and  N_11 
REMARK       I    between atoms: N_11  and  C_12 
REMARK    4  A    between atoms: C_12  and  C_13 
REMARK    5  A    between atoms: C_13  and  N_14 
REMARK    6  A    between atoms: N_14  and  C_17 
REMARK    7  A    between atoms: C_17  and  C_18 
REMARK    8  A    between atoms: C_30  and  C_31 
ROOT
HETATM    1  C   UNL     1       6.351  25.879  55.362  1.00  0.00     0.073 A 
HETATM    2  C   UNL     1       5.655  25.807  54.170  1.00  0.00     0.093 A 
HETATM    3  S   UNL     1       6.235  24.583  53.134  1.00  0.00    -0.075 SA
HETATM    4  C   UNL     1       7.417  24.112  54.252  1.00  0.00    -0.008 A 
HETATM    5  C   UNL     1       7.414  24.893  55.388  1.00  0.00    -0.026 A 
HETATM    6  C   UNL     1       8.433  24.703  56.475  1.00  0.00     0.041 C 
HETATM    7  C   UNL     1       9.560  23.729  56.078  1.00  0.00     0.010 C 
HETATM    8  C   UNL     1       9.139  22.515  55.199  1.00  0.00    -0.002 C 
HETATM    9  C   UNL     1       8.394  23.024  53.938  1.00  0.00     0.052 C 
ENDROOT
BRANCH   2  10
HETATM   10  N   UNL     1       4.616  26.487  53.574  1.00  0.00    -0.319 N 
HETATM   11  C   UNL     1       4.672  27.781  53.123  1.00  0.00     0.248 C 
HETATM   12  O   UNL     1       5.538  28.620  53.351  1.00  0.00    -0.271 OA
HETATM   13  H   UNL     1       3.737  25.977  53.588  1.00  0.00     0.169 HD
BRANCH  11  14
HETATM   14  C   UNL     1       3.471  28.196  52.281  1.00  0.00     0.335 C 
BRANCH  14  15
HETATM   15  N   UNL     1       3.896  28.647  50.909  1.00  0.00    -0.063 N 
HETATM   16  H   UNL     1       3.086  28.947  50.356  1.00  0.00     0.278 HD
HETATM   17  H   UNL     1       4.488  29.486  51.043  1.00  0.00     0.278 HD
BRANCH  15  18
HETATM   18  C   UNL     1       4.709  27.664  50.131  1.00  0.00     0.272 C 
BRANCH  18  19
HETATM   19  C   UNL     1       3.923  27.129  48.976  1.00  0.00    -0.015 A 
HETATM   20  C   UNL     1       3.256  27.984  48.106  1.00  0.00     0.125 A 
HETATM   21  N   UNL     1       2.471  27.559  47.095  1.00  0.00    -0.273 NA
HETATM   22  C   UNL     1       2.354  26.225  46.914  1.00  0.00     0.116 A 
HETATM   23  C   UNL     1       2.981  25.291  47.718  1.00  0.00     0.020 A 
HETATM   24  C   UNL     1       3.773  25.750  48.766  1.00  0.00     0.012 A 
ENDBRANCH  18  19
ENDBRANCH  15  18
ENDBRANCH  14  15
ENDBRANCH  11  14
ENDBRANCH   2  10
BRANCH   1  25
HETATM   25  C   UNL     1       6.119  26.864  56.417  1.00  0.00     0.259 C 
HETATM   26  N   UNL     1       6.872  28.009  56.224  1.00  0.00    -0.322 N 
HETATM   27  H   UNL     1       7.693  27.865  55.650  1.00  0.00     0.169 HD
HETATM   28  O   UNL     1       5.392  26.605  57.369  1.00  0.00    -0.267 OA
BRANCH  26  29
HETATM   29  C   UNL     1       6.941  29.079  57.142  1.00  0.00     0.041 A 
HETATM   30  C   UNL     1       6.033  30.149  57.177  1.00  0.00    -0.035 A 
HETATM   31  C   UNL     1       6.183  31.132  58.175  1.00  0.00     0.015 A 
HETATM   32  C   UNL     1       4.936  30.343  56.168  1.00  0.00     0.050 C 
HETATM   33  C   UNL     1       7.243  31.093  59.090  1.00  0.00    -0.061 A 
HETATM   34  C   UNL     1       7.387  32.144  60.151  1.00  0.00     0.048 C 
HETATM   35  C   UNL     1       8.168  30.053  59.006  1.00  0.00     0.009 A 
HETATM   36  C   UNL     1       8.027  29.065  58.030  1.00  0.00     0.030 A 
ENDBRANCH  26  29
ENDBRANCH   1  25
BRANCH   8  37
HETATM   37  C   UNL     1       8.477  21.302  55.964  1.00  0.00    -0.047 C 
HETATM   38  C   UNL     1       7.169  20.793  55.338  1.00  0.00     0.015 C 
HETATM   39  C   UNL     1       9.449  20.102  56.051  1.00  0.00     0.015 C 
HETATM   40  C   UNL     1       8.168  21.729  57.419  1.00  0.00     0.015 C 
ENDBRANCH   8  37
TORSDOF 8
ENDMDL
MODEL 8
REMARK VINA RESULT:      -8.9      4.099      8.447
REMARK  8 active torsions:
REMARK  status: ('A' for Active; 'I' for Inactive)
REMARK    1  A    between atoms: C_6  and  N_7 
REMARK       I    between atoms: N_7  and  C_8 
REMARK    2  A    between atoms: C_8  and  C_9 
REMARK    3  A    between atoms: C_10  and  N_11 
REMARK       I    between atoms: N_11  and  C_12 
REMARK    4  A    between atoms: C_12  and  C_13 
REMARK    5  A    between atoms: C_13  and  N_14 
REMARK    6  A    between atoms: N_14  and  C_17 
REMARK    7  A    between atoms: C_17  and  C_18 
REMARK    8  A    between atoms: C_30  and  C_31 
ROOT
HETATM    1  C   UNL     1       4.973  27.899  51.280  1.00  0.00     0.073 A 
HETATM    2  C   UNL     1       5.299  29.011  52.034  1.00  0.00     0.093 A 
HETATM    3  S   UNL     1       5.829  28.616  53.606  1.00  0.00    -0.075 SA
HETATM    4  C   UNL     1       5.650  26.957  53.317  1.00  0.00    -0.008 A 
HETATM    5  C   UNL     1       5.153  26.688  52.059  1.00  0.00    -0.026 A 
HETATM    6  C   UNL     1       4.837  25.286  51.621  1.00  0.00     0.041 C 
HETATM    7  C   UNL     1       4.922  24.265  52.772  1.00  0.00     0.010 C 
HETATM    8  C   UNL     1       6.044  24.508  53.824  1.00  0.00    -0.002 C 
HETATM    9  C   UNL     1       5.922  25.948  54.386  1.00  0.00     0.052 C 
ENDROOT
BRANCH   2  10
HETATM   10  N   UNL     1       5.287  30.376  51.861  1.00  0.00    -0.319 N 
HETATM   11  C   UNL     1       4.163  31.142  51.683  1.00  0.00     0.248 C 
HETATM   12  O   UNL     1       3.025  30.759  51.430  1.00  0.00    -0.271 OA
HETATM   13  H   UNL     1       6.214  30.781  51.764  1.00  0.00     0.169 HD
BRANCH  11  14
HETATM   14  C   UNL     1       4.415  32.643  51.772  1.00  0.00     0.335 C 
BRANCH  14  15
HETATM   15  N   UNL     1       5.678  33.028  51.050  1.00  0.00    -0.063 N 
HETATM   16  H   UNL     1       6.008  33.950  51.356  1.00  0.00     0.278 HD
HETATM   17  H   UNL     1       6.403  32.347  51.339  1.00  0.00     0.278 HD
BRANCH  15  18
HETATM   18  C   UNL     1       5.609  32.979  49.559  1.00  0.00     0.272 C 
BRANCH  18  19
HETATM   19  C   UNL     1       6.603  33.921  48.955  1.00  0.00    -0.015 A 
HETATM   20  C   UNL     1       6.895  35.139  49.559  1.00  0.00     0.125 A 
HETATM   21  N   UNL     1       7.721  36.061  49.024  1.00  0.00    -0.273 NA
HETATM   22  C   UNL     1       8.311  35.761  47.846  1.00  0.00     0.116 A 
HETATM   23  C   UNL     1       8.094  34.576  47.168  1.00  0.00     0.020 A 
HETATM   24  C   UNL     1       7.224  33.645  47.728  1.00  0.00     0.012 A 
ENDBRANCH  18  19
ENDBRANCH  15  18
ENDBRANCH  14  15
ENDBRANCH  11  14
ENDBRANCH   2  10
BRANCH   1  25
HETATM   25  C   UNL     1       4.435  27.928  49.921  1.00  0.00     0.259 C 
HETATM   26  N   UNL     1       3.052  27.873  49.916  1.00  0.00    -0.322 N 
HETATM   27  H   UNL     1       2.657  27.466  50.754  1.00  0.00     0.169 HD
HETATM   28  O   UNL     1       5.182  27.920  48.951  1.00  0.00    -0.267 OA
BRANCH  26  29
HETATM   29  C   UNL     1       2.265  27.769  48.749  1.00  0.00     0.041 A 
HETATM   30  C   UNL     1       2.209  26.628  47.935  1.00  0.00    -0.035 A 
HETATM   31  C   UNL     1       1.344  26.632  46.821  1.00  0.00     0.015 A 
HETATM   32  C   UNL     1       3.065  25.411  48.145  1.00  0.00     0.050 C 
HETATM   33  C   UNL     1       0.590  27.763  46.482  1.00  0.00    -0.061 A 
HETATM   34  C   UNL     1      -0.329  27.752  45.297  1.00  0.00     0.048 C 
HETATM   35  C   UNL     1       0.701  28.908  47.271  1.00  0.00     0.009 A 
HETATM   36  C   UNL     1       1.544  28.915  48.384  1.00  0.00     0.030 A 
ENDBRANCH  26  29
ENDBRANCH   1  25
BRANCH   8  37
HETATM   37  C   UNL     1       7.494  24.034  53.412  1.00  0.00    -0.047 C 
HETATM   38  C   UNL     1       7.555  22.618  52.819  1.00  0.00     0.015 C 
HETATM   39  C   UNL     1       8.122  24.999  52.380  1.00  0.00     0.015 C 
HETATM   40  C   UNL     1       8.409  24.062  54.660  1.00  0.00     0.015 C 
ENDBRANCH   8  37
TORSDOF 8
ENDMDL
MODEL 9
REMARK VINA RESULT:      -8.8      1.792      2.349
REMARK  8 active torsions:
REMARK  status: ('A' for Active; 'I' for Inactive)
REMARK    1  A    between atoms: C_6  and  N_7 
REMARK       I    between atoms: N_7  and  C_8 
REMARK    2  A    between atoms: C_8  and  C_9 
REMARK    3  A    between atoms: C_10  and  N_11 
REMARK       I    between atoms: N_11  and  C_12 
REMARK    4  A    between atoms: C_12  and  C_13 
REMARK    5  A    between atoms: C_13  and  N_14 
REMARK    6  A    between atoms: N_14  and  C_17 
REMARK    7  A    between atoms: C_17  and  C_18 
REMARK    8  A    between atoms: C_30  and  C_31 
ROOT
HETATM    1  C   UNL     1       5.188  28.834  51.709  1.00  0.00     0.073 A 
HETATM    2  C   UNL     1       4.615  29.944  52.300  1.00  0.00     0.093 A 
HETATM    3  S   UNL     1       3.617  30.825  51.234  1.00  0.00    -0.075 SA
HETATM    4  C   UNL     1       3.913  29.744  49.965  1.00  0.00    -0.008 A 
HETATM    5  C   UNL     1       4.793  28.742  50.316  1.00  0.00    -0.026 A 
HETATM    6  C   UNL     1       5.261  27.721  49.318  1.00  0.00     0.041 C 
HETATM    7  C   UNL     1       4.832  28.052  47.875  1.00  0.00     0.010 C 
HETATM    8  C   UNL     1       3.427  28.703  47.708  1.00  0.00    -0.002 C 
HETATM    9  C   UNL     1       3.333  29.965  48.605  1.00  0.00     0.052 C 
ENDROOT
BRANCH   2  10
HETATM   10  N   UNL     1       4.653  30.554  53.534  1.00  0.00    -0.319 N 
HETATM   11  C   UNL     1       4.310  29.959  54.722  1.00  0.00     0.248 C 
HETATM   12  O   UNL     1       3.718  28.897  54.887  1.00  0.00    -0.271 OA
HETATM   13  H   UNL     1       4.859  31.548  53.489  1.00  0.00     0.169 HD
BRANCH  11  14
HETATM   14  C   UNL     1       4.686  30.774  55.954  1.00  0.00     0.335 C 
BRANCH  14  15
HETATM   15  N   UNL     1       6.157  30.662  56.253  1.00  0.00    -0.063 N 
HETATM   16  H   UNL     1       6.683  30.405  55.410  1.00  0.00     0.278 HD
HETATM   17  H   UNL     1       6.478  31.609  56.521  1.00  0.00     0.278 HD
BRANCH  15  18
HETATM   18  C   UNL     1       6.519  29.748  57.378  1.00  0.00     0.272 C 
BRANCH  18  19
HETATM   19  C   UNL     1       7.264  30.492  58.441  1.00  0.00    -0.015 A 
HETATM   20  C   UNL     1       8.456  29.999  58.961  1.00  0.00     0.125 A 
HETATM   21  N   UNL     1       9.131  30.584  59.971  1.00  0.00    -0.273 NA
HETATM   22  C   UNL     1       8.622  31.727  60.482  1.00  0.00     0.116 A 
HETATM   23  C   UNL     1       7.449  32.304  60.032  1.00  0.00     0.020 A 
HETATM   24  C   UNL     1       6.758  31.675  59.000  1.00  0.00     0.012 A 
ENDBRANCH  18  19
ENDBRANCH  15  18
ENDBRANCH  14  15
ENDBRANCH  11  14
ENDBRANCH   2  10
BRANCH   1  25
HETATM   25  C   UNL     1       6.133  27.925  52.355  1.00  0.00     0.259 C 
HETATM   26  N   UNL     1       5.772  26.600  52.179  1.00  0.00    -0.322 N 
HETATM   27  H   UNL     1       4.789  26.468  51.981  1.00  0.00     0.169 HD
HETATM   28  O   UNL     1       7.064  28.359  53.022  1.00  0.00    -0.267 OA
BRANCH  26  29
HETATM   29  C   UNL     1       6.431  25.510  52.787  1.00  0.00     0.041 A 
HETATM   30  C   UNL     1       6.219  25.099  54.112  1.00  0.00    -0.035 A 
HETATM   31  C   UNL     1       6.904  23.962  54.587  1.00  0.00     0.015 A 
HETATM   32  C   UNL     1       5.342  25.838  55.084  1.00  0.00     0.050 C 
HETATM   33  C   UNL     1       7.826  23.275  53.788  1.00  0.00    -0.061 A 
HETATM   34  C   UNL     1       8.545  22.064  54.304  1.00  0.00     0.048 C 
HETATM   35  C   UNL     1       8.067  23.731  52.492  1.00  0.00     0.009 A 
HETATM   36  C   UNL     1       7.387  24.848  52.003  1.00  0.00     0.030 A 
ENDBRANCH  26  29
ENDBRANCH   1  25
BRANCH   8  37
HETATM   37  C   UNL     1       2.196  27.714  47.755  1.00  0.00    -0.047 C 
HETATM   38  C   UNL     1       1.187  27.902  46.611  1.00  0.00     0.015 C 
HETATM   39  C   UNL     1       2.665  26.241  47.724  1.00  0.00     0.015 C 
HETATM   40  C   UNL     1       1.438  27.912  49.090  1.00  0.00     0.015 C 
ENDBRANCH   8  37
TORSDOF 8
ENDMDL
MODEL 10
REMARK VINA RESULT:      -8.7      3.767      7.587
REMARK  8 active torsions:
REMARK  status: ('A' for Active; 'I' for Inactive)
REMARK    1  A    between atoms: C_6  and  N_7 
REMARK       I    between atoms: N_7  and  C_8 
REMARK    2  A    between atoms: C_8  and  C_9 
REMARK    3  A    between atoms: C_10  and  N_11 
REMARK       I    between atoms: N_11  and  C_12 
REMARK    4  A    between atoms: C_12  and  C_13 
REMARK    5  A    between atoms: C_13  and  N_14 
REMARK    6  A    between atoms: N_14  and  C_17 
REMARK    7  A    between atoms: C_17  and  C_18 
REMARK    8  A    between atoms: C_30  and  C_31 
ROOT
HETATM    1  C   UNL     1       5.991  28.462  56.623  1.00  0.00     0.073 A 
HETATM    2  C   UNL     1       7.031  28.371  57.528  1.00  0.00     0.093 A 
HETATM    3  S   UNL     1       7.862  26.884  57.439  1.00  0.00    -0.075 SA
HETATM    4  C   UNL     1       6.866  26.332  56.185  1.00  0.00    -0.008 A 
HETATM    5  C   UNL     1       5.880  27.237  55.854  1.00  0.00    -0.026 A 
HETATM    6  C   UNL     1       4.833  26.917  54.824  1.00  0.00     0.041 C 
HETATM    7  C   UNL     1       4.865  25.444  54.373  1.00  0.00     0.010 C 
HETATM    8  C   UNL     1       6.274  24.790  54.266  1.00  0.00    -0.002 C 
HETATM    9  C   UNL     1       7.027  24.961  55.611  1.00  0.00     0.052 C 
ENDROOT
BRANCH   2  10
HETATM   10  N   UNL     1       7.571  29.162  58.517  1.00  0.00    -0.319 N 
HETATM   11  C   UNL     1       8.688  29.947  58.381  1.00  0.00     0.248 C 
HETATM   12  O   UNL     1       9.514  29.929  57.473  1.00  0.00    -0.271 OA
HETATM   13  H   UNL     1       7.130  29.037  59.423  1.00  0.00     0.169 HD
BRANCH  11  14
HETATM   14  C   UNL     1       8.916  30.909  59.542  1.00  0.00     0.335 C 
BRANCH  14  15
HETATM   15  N   UNL     1       8.063  30.543  60.727  1.00  0.00    -0.063 N 
HETATM   16  H   UNL     1       7.096  30.861  60.594  1.00  0.00     0.278 HD
HETATM   17  H   UNL     1       8.030  29.508  60.760  1.00  0.00     0.278 HD
BRANCH  15  18
HETATM   18  C   UNL     1       8.572  31.001  62.054  1.00  0.00     0.272 C 
BRANCH  18  19
HETATM   19  C   UNL     1       7.756  32.148  62.563  1.00  0.00    -0.015 A 
HETATM   20  C   UNL     1       6.937  32.880  61.710  1.00  0.00     0.125 A 
HETATM   21  N   UNL     1       6.239  33.968  62.093  1.00  0.00    -0.273 NA
HETATM   22  C   UNL     1       6.331  34.344  63.387  1.00  0.00     0.116 A 
HETATM   23  C   UNL     1       7.110  33.681  64.318  1.00  0.00     0.020 A 
HETATM   24  C   UNL     1       7.836  32.570  63.898  1.00  0.00     0.012 A 
ENDBRANCH  18  19
ENDBRANCH  15  18
ENDBRANCH  14  15
ENDBRANCH  11  14
ENDBRANCH   2  10
BRANCH   1  25
HETATM   25  C   UNL     1       5.067  29.590  56.508  1.00  0.00     0.259 C 
HETATM   26  N   UNL     1       5.682  30.704  55.965  1.00  0.00    -0.322 N 
HETATM   27  H   UNL     1       6.688  30.708  56.073  1.00  0.00     0.169 HD
HETATM   28  O   UNL     1       3.922  29.508  56.936  1.00  0.00    -0.267 OA
BRANCH  26  29
HETATM   29  C   UNL     1       5.070  31.969  55.842  1.00  0.00     0.041 A 
HETATM   30  C   UNL     1       5.013  32.921  56.873  1.00  0.00    -0.035 A 
HETATM   31  C   UNL     1       4.415  34.170  56.609  1.00  0.00     0.015 A 
HETATM   32  C   UNL     1       5.502  32.666  58.271  1.00  0.00     0.050 C 
HETATM   33  C   UNL     1       3.832  34.456  55.368  1.00  0.00    -0.061 A 
HETATM   34  C   UNL     1       3.203  35.792  55.099  1.00  0.00     0.048 C 
HETATM   35  C   UNL     1       3.849  33.478  54.373  1.00  0.00     0.009 A 
HETATM   36  C   UNL     1       4.448  32.241  54.615  1.00  0.00     0.030 A 
ENDBRANCH  26  29
ENDBRANCH   1  25
BRANCH   8  37
HETATM   37  C   UNL     1       7.093  25.119  52.956  1.00  0.00    -0.047 C 
HETATM   38  C   UNL     1       7.986  26.364  53.061  1.00  0.00     0.015 C 
HETATM   39  C   UNL     1       7.996  23.931  52.551  1.00  0.00     0.015 C 
HETATM   40  C   UNL     1       6.105  25.344  51.785  1.00  0.00     0.015 C 
ENDBRANCH   8  37
TORSDOF 8
ENDMDL
