MODEL 1
REMARK VINA RESULT:      -8.9      0.000      0.000
REMARK  4 active torsions:
REMARK  status: ('A' for Active; 'I' for Inactive)
REMARK    1  A    between atoms: C_6  and  C_7 
REMARK    2  A    between atoms: C_9  and  C_10 
REMARK    3  A    between atoms: C_10  and  C_11 
REMARK    4  A    between atoms: C_15  and  N_16 
ROOT
HETATM    1  C   UNL     1       6.392  25.440  55.958  1.00  0.00     0.112 A 
HETATM    2  O   UNL     1       7.060  26.637  55.986  1.00  0.00    -0.308 OA
HETATM    3  C   UNL     1       6.298  27.584  56.639  1.00  0.00     0.077 A 
HETATM    4  C   UNL     1       5.110  26.963  57.004  1.00  0.00     0.040 A 
HETATM    5  C   UNL     1       5.174  25.614  56.585  1.00  0.00     0.043 A 
ENDROOT
BRANCH   3   6
HETATM    6  C   UNL     1       6.778  28.918  56.783  1.00  0.00     0.059 C 
BRANCH   6   7
HETATM    7  C   UNL     1       8.054  29.321  56.776  1.00  0.00     0.053 A 
HETATM    8  S   UNL     1       9.031  29.946  58.045  1.00  0.00    -0.024 SA
HETATM    9  C   UNL     1      10.388  30.161  56.933  1.00  0.00     0.312 A 
HETATM   10  O   UNL     1      11.445  30.643  57.309  1.00  0.00    -0.258 OA
HETATM   11  N   UNL     1      10.127  29.729  55.652  1.00  0.00    -0.191 NA
HETATM   12  C   UNL     1       8.908  29.276  55.543  1.00  0.00     0.122 A 
BRANCH  12  13
HETATM   13  N   UNL     1       8.510  28.795  54.326  1.00  0.00    -0.286 NA
HETATM   14  H   UNL     1       9.150  28.910  53.548  1.00  0.00     0.125 HD
HETATM   15  H   UNL     1       7.565  29.086  54.089  1.00  0.00     0.125 HD
ENDBRANCH  12  13
ENDBRANCH   6   7
ENDBRANCH   3   6
BRANCH   1  16
HETATM   16  C   UNL     1       6.910  24.241  55.356  1.00  0.00     0.133 A 
HETATM   17  S   UNL     1       6.916  24.001  53.659  1.00  0.00    -0.066 SA
HETATM   18  C   UNL     1       7.640  22.454  53.879  1.00  0.00     0.035 A 
HETATM   19  C   UNL     1       7.828  22.233  55.245  1.00  0.00     0.075 A 
HETATM   20  C   UNL     1       8.014  21.503  52.916  1.00  0.00     0.021 A 
HETATM   21  C   UNL     1       8.411  21.020  55.662  1.00  0.00     0.033 A 
HETATM   22  N   UNL     1       7.409  23.258  56.076  1.00  0.00    -0.238 NA
HETATM   23  C   UNL     1       8.788  20.066  54.711  1.00  0.00     0.002 A 
HETATM   24  C   UNL     1       8.590  20.307  53.356  1.00  0.00     0.002 A 
ENDBRANCH   1  16
TORSDOF 4
ENDMDL
MODEL 2
REMARK VINA RESULT:      -8.9      2.040      2.488
REMARK  4 active torsions:
REMARK  status: ('A' for Active; 'I' for Inactive)
REMARK    1  A    between atoms: C_6  and  C_7 
REMARK    2  A    between atoms: C_9  and  C_10 
REMARK    3  A    between atoms: C_10  and  C_11 
REMARK    4  A    between atoms: C_15  and  N_16 
ROOT
HETATM    1  C   UNL     1       7.285  25.925  55.509  1.00  0.00     0.112 A 
HETATM    2  O   UNL     1       7.378  26.536  56.732  1.00  0.00    -0.308 OA
HETATM    3  C   UNL     1       6.990  27.856  56.630  1.00  0.00     0.077 A 
HETATM    4  C   UNL     1       6.671  28.078  55.296  1.00  0.00     0.040 A 
HETATM    5  C   UNL     1       6.847  26.863  54.595  1.00  0.00     0.043 A 
ENDROOT
BRANCH   3   6
HETATM    6  C   UNL     1       7.015  28.704  57.774  1.00  0.00     0.059 C 
BRANCH   6   7
HETATM    7  C   UNL     1       7.872  29.702  58.019  1.00  0.00     0.053 A 
HETATM    8  S   UNL     1       9.540  29.857  57.634  1.00  0.00    -0.024 SA
HETATM    9  C   UNL     1       9.609  31.430  58.438  1.00  0.00     0.312 A 
HETATM   10  O   UNL     1      10.652  32.060  58.510  1.00  0.00    -0.258 OA
HETATM   11  N   UNL     1       8.397  31.847  58.941  1.00  0.00    -0.191 NA
HETATM   12  C   UNL     1       7.464  30.960  58.729  1.00  0.00     0.122 A 
BRANCH  12  13
HETATM   13  N   UNL     1       6.198  31.246  59.161  1.00  0.00    -0.286 NA
HETATM   14  H   UNL     1       5.981  31.048  60.130  1.00  0.00     0.125 HD
HETATM   15  H   UNL     1       5.487  30.886  58.529  1.00  0.00     0.125 HD
ENDBRANCH  12  13
ENDBRANCH   6   7
ENDBRANCH   3   6
BRANCH   1  16
HETATM   16  C   UNL     1       7.610  24.545  55.269  1.00  0.00     0.133 A 
HETATM   17  S   UNL     1       8.153  23.505  56.518  1.00  0.00    -0.066 SA
HETATM   18  C   UNL     1       8.277  22.211  55.388  1.00  0.00     0.035 A 
HETATM   19  C   UNL     1       7.887  22.672  54.129  1.00  0.00     0.075 A 
HETATM   20  C   UNL     1       8.687  20.885  55.598  1.00  0.00     0.021 A 
HETATM   21  C   UNL     1       7.910  21.775  53.042  1.00  0.00     0.033 A 
HETATM   22  N   UNL     1       7.510  24.003  54.074  1.00  0.00    -0.238 NA
HETATM   23  C   UNL     1       8.317  20.451  53.240  1.00  0.00     0.002 A 
HETATM   24  C   UNL     1       8.700  20.014  54.503  1.00  0.00     0.002 A 
ENDBRANCH   1  16
TORSDOF 4
ENDMDL
MODEL 3
REMARK VINA RESULT:      -8.7      1.941      2.077
REMARK  4 active torsions:
REMARK  status: ('A' for Active; 'I' for Inactive)
REMARK    1  A    between atoms: C_6  and  C_7 
REMARK    2  A    between atoms: C_9  and  C_10 
REMARK    3  A    between atoms: C_10  and  C_11 
REMARK    4  A    between atoms: C_15  and  N_16 
ROOT
HETATM    1  C   UNL     1       6.105  25.816  54.813  1.00  0.00     0.112 A 
HETATM    2  O   UNL     1       6.083  26.441  56.032  1.00  0.00    -0.308 OA
HETATM    3  C   UNL     1       5.458  27.666  55.920  1.00  0.00     0.077 A 
HETATM    4  C   UNL     1       5.106  27.817  54.585  1.00  0.00     0.040 A 
HETATM    5  C   UNL     1       5.503  26.650  53.892  1.00  0.00     0.043 A 
ENDROOT
BRANCH   3   6
HETATM    6  C   UNL     1       5.325  28.512  57.059  1.00  0.00     0.059 C 
BRANCH   6   7
HETATM    7  C   UNL     1       6.267  29.298  57.593  1.00  0.00     0.053 A 
HETATM    8  S   UNL     1       6.277  30.996  57.865  1.00  0.00    -0.024 SA
HETATM    9  C   UNL     1       7.921  30.912  58.508  1.00  0.00     0.312 A 
HETATM   10  O   UNL     1       8.512  31.917  58.869  1.00  0.00    -0.258 OA
HETATM   11  N   UNL     1       8.430  29.634  58.560  1.00  0.00    -0.191 NA
HETATM   12  C   UNL     1       7.578  28.764  58.092  1.00  0.00     0.122 A 
BRANCH  12  13
HETATM   13  N   UNL     1       7.941  27.445  58.096  1.00  0.00    -0.286 NA
HETATM   14  H   UNL     1       8.443  27.103  58.907  1.00  0.00     0.125 HD
HETATM   15  H   UNL     1       8.387  27.167  57.225  1.00  0.00     0.125 HD
ENDBRANCH  12  13
ENDBRANCH   6   7
ENDBRANCH   3   6
BRANCH   1  16
HETATM   16  C   UNL     1       6.679  24.518  54.582  1.00  0.00     0.133 A 
HETATM   17  S   UNL     1       7.071  23.960  53.009  1.00  0.00    -0.066 SA
HETATM   18  C   UNL     1       7.630  22.473  53.674  1.00  0.00     0.035 A 
HETATM   19  C   UNL     1       7.478  22.513  55.061  1.00  0.00     0.075 A 
HETATM   20  C   UNL     1       8.164  21.352  53.018  1.00  0.00     0.021 A 
HETATM   21  C   UNL     1       7.875  21.393  55.819  1.00  0.00     0.033 A 
HETATM   22  N   UNL     1       6.936  23.683  55.566  1.00  0.00    -0.238 NA
HETATM   23  C   UNL     1       8.408  20.271  55.177  1.00  0.00     0.002 A 
HETATM   24  C   UNL     1       8.550  20.253  53.793  1.00  0.00     0.002 A 
ENDBRANCH   1  16
TORSDOF 4
ENDMDL
MODEL 4
REMARK VINA RESULT:      -8.3      3.780      4.373
REMARK  4 active torsions:
REMARK  status: ('A' for Active; 'I' for Inactive)
REMARK    1  A    between atoms: C_6  and  C_7 
REMARK    2  A    between atoms: C_9  and  C_10 
REMARK    3  A    between atoms: C_10  and  C_11 
REMARK    4  A    between atoms: C_15  and  N_16 
ROOT
HETATM    1  C   UNL     1       7.412  27.878  57.121  1.00  0.00     0.112 A 
HETATM    2  O   UNL     1       8.331  28.363  58.014  1.00  0.00    -0.308 OA
HETATM    3  C   UNL     1       7.896  29.567  58.529  1.00  0.00     0.077 A 
HETATM    4  C   UNL     1       6.683  29.851  57.916  1.00  0.00     0.040 A 
HETATM    5  C   UNL     1       6.374  28.785  57.039  1.00  0.00     0.043 A 
ENDROOT
BRANCH   3   6
HETATM    6  C   UNL     1       8.694  30.276  59.472  1.00  0.00     0.059 C 
BRANCH   6   7
HETATM    7  C   UNL     1       8.261  31.044  60.479  1.00  0.00     0.053 A 
HETATM    8  S   UNL     1       7.338  32.495  60.454  1.00  0.00    -0.024 SA
HETATM    9  C   UNL     1       7.426  32.614  62.216  1.00  0.00     0.312 A 
HETATM   10  O   UNL     1       6.922  33.551  62.814  1.00  0.00    -0.258 OA
HETATM   11  N   UNL     1       8.091  31.564  62.809  1.00  0.00    -0.191 NA
HETATM   12  C   UNL     1       8.535  30.720  61.918  1.00  0.00     0.122 A 
BRANCH  12  13
HETATM   13  N   UNL     1       9.205  29.613  62.363  1.00  0.00    -0.286 NA
HETATM   14  H   UNL     1       8.686  28.745  62.414  1.00  0.00     0.125 HD
HETATM   15  H   UNL     1       9.727  29.798  63.216  1.00  0.00     0.125 HD
ENDBRANCH  12  13
ENDBRANCH   6   7
ENDBRANCH   3   6
BRANCH   1  16
HETATM   16  C   UNL     1       7.557  26.637  56.408  1.00  0.00     0.133 A 
HETATM   17  S   UNL     1       7.085  26.467  54.769  1.00  0.00    -0.066 SA
HETATM   18  C   UNL     1       7.581  24.817  54.797  1.00  0.00     0.035 A 
HETATM   19  C   UNL     1       8.078  24.517  56.067  1.00  0.00     0.075 A 
HETATM   20  C   UNL     1       7.534  23.858  53.772  1.00  0.00     0.021 A 
HETATM   21  C   UNL     1       8.544  23.211  56.320  1.00  0.00     0.033 A 
HETATM   22  N   UNL     1       8.059  25.561  56.975  1.00  0.00    -0.238 NA
HETATM   23  C   UNL     1       8.503  22.248  55.307  1.00  0.00     0.002 A 
HETATM   24  C   UNL     1       8.004  22.570  54.049  1.00  0.00     0.002 A 
ENDBRANCH   1  16
TORSDOF 4
ENDMDL
MODEL 5
REMARK VINA RESULT:      -8.2      3.163      4.178
REMARK  4 active torsions:
REMARK  status: ('A' for Active; 'I' for Inactive)
REMARK    1  A    between atoms: C_6  and  C_7 
REMARK    2  A    between atoms: C_9  and  C_10 
REMARK    3  A    between atoms: C_10  and  C_11 
REMARK    4  A    between atoms: C_15  and  N_16 
ROOT
HETATM    1  C   UNL     1       6.993  25.623  55.975  1.00  0.00     0.112 A 
HETATM    2  O   UNL     1       5.774  26.157  55.648  1.00  0.00    -0.308 OA
HETATM    3  C   UNL     1       5.664  27.430  56.168  1.00  0.00     0.077 A 
HETATM    4  C   UNL     1       6.841  27.684  56.861  1.00  0.00     0.040 A 
HETATM    5  C   UNL     1       7.679  26.552  56.731  1.00  0.00     0.043 A 
ENDROOT
BRANCH   3   6
HETATM    6  C   UNL     1       4.474  28.187  55.971  1.00  0.00     0.059 C 
BRANCH   6   7
HETATM    7  C   UNL     1       4.139  28.896  54.887  1.00  0.00     0.053 A 
HETATM    8  S   UNL     1       4.026  30.597  54.660  1.00  0.00    -0.024 SA
HETATM    9  C   UNL     1       3.489  30.367  52.991  1.00  0.00     0.312 A 
HETATM   10  O   UNL     1       3.204  31.318  52.281  1.00  0.00    -0.258 OA
HETATM   11  N   UNL     1       3.442  29.047  52.602  1.00  0.00    -0.191 NA
HETATM   12  C   UNL     1       3.785  28.252  53.578  1.00  0.00     0.122 A 
BRANCH  12  13
HETATM   13  N   UNL     1       3.801  26.906  53.332  1.00  0.00    -0.286 NA
HETATM   14  H   UNL     1       4.254  26.314  54.017  1.00  0.00     0.125 HD
HETATM   15  H   UNL     1       4.102  26.694  52.384  1.00  0.00     0.125 HD
ENDBRANCH  12  13
ENDBRANCH   6   7
ENDBRANCH   3   6
BRANCH   1  16
HETATM   16  C   UNL     1       7.431  24.310  55.583  1.00  0.00     0.133 A 
HETATM   17  S   UNL     1       8.182  23.233  56.683  1.00  0.00    -0.066 SA
HETATM   18  C   UNL     1       8.333  22.058  55.433  1.00  0.00     0.035 A 
HETATM   19  C   UNL     1       7.790  22.579  54.257  1.00  0.00     0.075 A 
HETATM   20  C   UNL     1       8.890  20.770  55.486  1.00  0.00     0.021 A 
HETATM   21  C   UNL     1       7.804  21.783  53.093  1.00  0.00     0.033 A 
HETATM   22  N   UNL     1       7.279  23.862  54.355  1.00  0.00    -0.238 NA
HETATM   23  C   UNL     1       8.356  20.499  53.135  1.00  0.00     0.002 A 
HETATM   24  C   UNL     1       8.892  20.001  54.318  1.00  0.00     0.002 A 
ENDBRANCH   1  16
TORSDOF 4
ENDMDL
MODEL 6
REMARK VINA RESULT:      -8.2      4.390      5.661
REMARK  4 active torsions:
REMARK  status: ('A' for Active; 'I' for Inactive)
REMARK    1  A    between atoms: C_6  and  C_7 
REMARK    2  A    between atoms: C_9  and  C_10 
REMARK    3  A    between atoms: C_10  and  C_11 
REMARK    4  A    between atoms: C_15  and  N_16 
ROOT
HETATM    1  C   UNL     1       7.033  25.942  53.840  1.00  0.00     0.112 A 
HETATM    2  O   UNL     1       6.171  26.322  52.844  1.00  0.00    -0.308 OA
HETATM    3  C   UNL     1       6.102  27.698  52.783  1.00  0.00     0.077 A 
HETATM    4  C   UNL     1       6.926  28.187  53.788  1.00  0.00     0.040 A 
HETATM    5  C   UNL     1       7.518  27.084  54.445  1.00  0.00     0.043 A 
ENDROOT
BRANCH   3   6
HETATM    6  C   UNL     1       5.255  28.333  51.830  1.00  0.00     0.059 C 
BRANCH   6   7
HETATM    7  C   UNL     1       5.171  28.068  50.521  1.00  0.00     0.053 A 
HETATM    8  S   UNL     1       4.570  26.680  49.703  1.00  0.00    -0.024 SA
HETATM    9  C   UNL     1       4.992  27.386  48.137  1.00  0.00     0.312 A 
HETATM   10  O   UNL     1       4.801  26.778  47.096  1.00  0.00    -0.258 OA
HETATM   11  N   UNL     1       5.527  28.651  48.227  1.00  0.00    -0.191 NA
HETATM   12  C   UNL     1       5.627  29.038  49.470  1.00  0.00     0.122 A 
BRANCH  12  13
HETATM   13  N   UNL     1       6.128  30.287  49.714  1.00  0.00    -0.286 NA
HETATM   14  H   UNL     1       5.589  30.895  50.318  1.00  0.00     0.125 HD
HETATM   15  H   UNL     1       6.420  30.756  48.860  1.00  0.00     0.125 HD
ENDBRANCH  12  13
ENDBRANCH   6   7
ENDBRANCH   3   6
BRANCH   1  16
HETATM   16  C   UNL     1       7.337  24.575  54.166  1.00  0.00     0.133 A 
HETATM   17  S   UNL     1       7.242  23.976  55.769  1.00  0.00    -0.066 SA
HETATM   18  C   UNL     1       7.739  22.421  55.220  1.00  0.00     0.035 A 
HETATM   19  C   UNL     1       7.940  22.473  53.839  1.00  0.00     0.075 A 
HETATM   20  C   UNL     1       7.937  21.241  55.954  1.00  0.00     0.021 A 
HETATM   21  C   UNL     1       8.354  21.304  53.170  1.00  0.00     0.033 A 
HETATM   22  N   UNL     1       7.708  23.705  53.250  1.00  0.00    -0.238 NA
HETATM   23  C   UNL     1       8.554  20.123  53.891  1.00  0.00     0.002 A 
HETATM   24  C   UNL     1       8.347  20.094  55.266  1.00  0.00     0.002 A 
ENDBRANCH   1  16
TORSDOF 4
ENDMDL
MODEL 7
REMARK VINA RESULT:      -8.1      6.040      8.202
REMARK  4 active torsions:
REMARK  status: ('A' for Active; 'I' for Inactive)
REMARK    1  A    between atoms: C_6  and  C_7 
REMARK    2  A    between atoms: C_9  and  C_10 
REMARK    3  A    between atoms: C_10  and  C_11 
REMARK    4  A    between atoms: C_15  and  N_16 
ROOT
HETATM    1  C   UNL     1       8.310  30.971  60.092  1.00  0.00     0.112 A 
HETATM    2  O   UNL     1       7.565  31.204  61.219  1.00  0.00    -0.308 OA
HETATM    3  C   UNL     1       8.297  31.949  62.121  1.00  0.00     0.077 A 
HETATM    4  C   UNL     1       9.544  32.162  61.547  1.00  0.00     0.040 A 
HETATM    5  C   UNL     1       9.548  31.556  60.269  1.00  0.00     0.043 A 
ENDROOT
BRANCH   3   6
HETATM    6  C   UNL     1       7.735  32.307  63.380  1.00  0.00     0.059 C 
BRANCH   6   7
HETATM    7  C   UNL     1       6.575  32.936  63.596  1.00  0.00     0.053 A 
HETATM    8  S   UNL     1       6.256  34.577  64.002  1.00  0.00    -0.024 SA
HETATM    9  C   UNL     1       4.521  34.249  64.083  1.00  0.00     0.312 A 
HETATM   10  O   UNL     1       3.725  35.124  64.386  1.00  0.00    -0.258 OA
HETATM   11  N   UNL     1       4.187  32.952  63.766  1.00  0.00    -0.191 NA
HETATM   12  C   UNL     1       5.248  32.240  63.499  1.00  0.00     0.122 A 
BRANCH  12  13
HETATM   13  N   UNL     1       5.070  30.930  63.150  1.00  0.00    -0.286 NA
HETATM   14  H   UNL     1       5.716  30.536  62.477  1.00  0.00     0.125 HD
HETATM   15  H   UNL     1       4.101  30.724  62.917  1.00  0.00     0.125 HD
ENDBRANCH  12  13
ENDBRANCH   6   7
ENDBRANCH   3   6
BRANCH   1  16
HETATM   16  C   UNL     1       7.841  30.229  58.954  1.00  0.00     0.133 A 
HETATM   17  S   UNL     1       6.603  30.819  57.926  1.00  0.00    -0.066 SA
HETATM   18  C   UNL     1       6.716  29.393  56.967  1.00  0.00     0.035 A 
HETATM   19  C   UNL     1       7.703  28.565  57.505  1.00  0.00     0.075 A 
HETATM   20  C   UNL     1       5.987  29.032  55.823  1.00  0.00     0.021 A 
HETATM   21  C   UNL     1       7.969  27.331  56.876  1.00  0.00     0.033 A 
HETATM   22  N   UNL     1       8.336  29.051  58.636  1.00  0.00    -0.238 NA
HETATM   23  C   UNL     1       7.249  26.962  55.736  1.00  0.00     0.002 A 
HETATM   24  C   UNL     1       6.271  27.804  55.217  1.00  0.00     0.002 A 
ENDBRANCH   1  16
TORSDOF 4
ENDMDL
MODEL 8
REMARK VINA RESULT:      -8.1      5.350      6.307
REMARK  4 active torsions:
REMARK  status: ('A' for Active; 'I' for Inactive)
REMARK    1  A    between atoms: C_6  and  C_7 
REMARK    2  A    between atoms: C_9  and  C_10 
REMARK    3  A    between atoms: C_10  and  C_11 
REMARK    4  A    between atoms: C_15  and  N_16 
ROOT
HETATM    1  C   UNL     1       6.461  25.277  52.702  1.00  0.00     0.112 A 
HETATM    2  O   UNL     1       5.804  25.222  51.501  1.00  0.00    -0.308 OA
HETATM    3  C   UNL     1       5.468  26.495  51.090  1.00  0.00     0.077 A 
HETATM    4  C   UNL     1       5.907  27.365  52.080  1.00  0.00     0.040 A 
HETATM    5  C   UNL     1       6.539  26.600  53.087  1.00  0.00     0.043 A 
ENDROOT
BRANCH   3   6
HETATM    6  C   UNL     1       4.762  26.694  49.869  1.00  0.00     0.059 C 
BRANCH   6   7
HETATM    7  C   UNL     1       4.657  27.833  49.174  1.00  0.00     0.053 A 
HETATM    8  S   UNL     1       3.962  29.343  49.610  1.00  0.00    -0.024 SA
HETATM    9  C   UNL     1       4.327  30.005  48.012  1.00  0.00     0.312 A 
HETATM   10  O   UNL     1       4.006  31.143  47.709  1.00  0.00    -0.258 OA
HETATM   11  N   UNL     1       4.997  29.127  47.190  1.00  0.00    -0.191 NA
HETATM   12  C   UNL     1       5.190  27.979  47.778  1.00  0.00     0.122 A 
BRANCH  12  13
HETATM   13  N   UNL     1       5.860  27.008  47.085  1.00  0.00    -0.286 NA
HETATM   14  H   UNL     1       5.812  27.041  46.074  1.00  0.00     0.125 HD
HETATM   15  H   UNL     1       5.669  26.077  47.447  1.00  0.00     0.125 HD
ENDBRANCH  12  13
ENDBRANCH   6   7
ENDBRANCH   3   6
BRANCH   1  16
HETATM   16  C   UNL     1       6.955  24.124  53.406  1.00  0.00     0.133 A 
HETATM   17  S   UNL     1       6.959  24.032  55.117  1.00  0.00    -0.066 SA
HETATM   18  C   UNL     1       7.661  22.461  55.033  1.00  0.00     0.035 A 
HETATM   19  C   UNL     1       7.839  22.118  53.691  1.00  0.00     0.075 A 
HETATM   20  C   UNL     1       8.027  21.595  56.075  1.00  0.00     0.021 A 
HETATM   21  C   UNL     1       8.404  20.864  53.381  1.00  0.00     0.033 A 
HETATM   22  N   UNL     1       7.434  23.073  52.774  1.00  0.00    -0.238 NA
HETATM   23  C   UNL     1       8.773  19.993  54.412  1.00  0.00     0.002 A 
HETATM   24  C   UNL     1       8.585  20.356  55.741  1.00  0.00     0.002 A 
ENDBRANCH   1  16
TORSDOF 4
ENDMDL
MODEL 9
REMARK VINA RESULT:      -8.0      1.875      2.351
REMARK  4 active torsions:
REMARK  status: ('A' for Active; 'I' for Inactive)
REMARK    1  A    between atoms: C_6  and  C_7 
REMARK    2  A    between atoms: C_9  and  C_10 
REMARK    3  A    between atoms: C_10  and  C_11 
REMARK    4  A    between atoms: C_15  and  N_16 
ROOT
HETATM    1  C   UNL     1       7.512  25.852  54.473  1.00  0.00     0.112 A 
HETATM    2  O   UNL     1       7.510  26.860  55.400  1.00  0.00    -0.308 OA
HETATM    3  C   UNL     1       7.198  28.058  54.791  1.00  0.00     0.077 A 
HETATM    4  C   UNL     1       7.027  27.789  53.439  1.00  0.00     0.040 A 
HETATM    5  C   UNL     1       7.215  26.401  53.241  1.00  0.00     0.043 A 
ENDROOT
BRANCH   3   6
HETATM    6  C   UNL     1       7.148  29.260  55.553  1.00  0.00     0.059 C 
BRANCH   6   7
HETATM    7  C   UNL     1       7.812  29.527  56.684  1.00  0.00     0.053 A 
HETATM    8  S   UNL     1       7.254  29.619  58.308  1.00  0.00    -0.024 SA
HETATM    9  C   UNL     1       8.872  30.056  58.869  1.00  0.00     0.312 A 
HETATM   10  O   UNL     1       9.092  30.293  60.046  1.00  0.00    -0.258 OA
HETATM   11  N   UNL     1       9.816  30.086  57.867  1.00  0.00    -0.191 NA
HETATM   12  C   UNL     1       9.287  29.805  56.708  1.00  0.00     0.122 A 
BRANCH  12  13
HETATM   13  N   UNL     1      10.111  29.780  55.616  1.00  0.00    -0.286 NA
HETATM   14  H   UNL     1      10.968  30.317  55.669  1.00  0.00     0.125 HD
HETATM   15  H   UNL     1       9.605  29.950  54.750  1.00  0.00     0.125 HD
ENDBRANCH  12  13
ENDBRANCH   6   7
ENDBRANCH   3   6
BRANCH   1  16
HETATM   16  C   UNL     1       7.794  24.475  54.778  1.00  0.00     0.133 A 
HETATM   17  S   UNL     1       7.848  23.890  56.388  1.00  0.00    -0.066 SA
HETATM   18  C   UNL     1       8.218  22.313  55.804  1.00  0.00     0.035 A 
HETATM   19  C   UNL     1       8.271  22.348  54.409  1.00  0.00     0.075 A 
HETATM   20  C   UNL     1       8.446  21.129  56.525  1.00  0.00     0.021 A 
HETATM   21  C   UNL     1       8.561  21.158  53.712  1.00  0.00     0.033 A 
HETATM   22  N   UNL     1       8.027  23.585  53.837  1.00  0.00    -0.238 NA
HETATM   23  C   UNL     1       8.789  19.974  54.420  1.00  0.00     0.002 A 
HETATM   24  C   UNL     1       8.732  19.963  55.809  1.00  0.00     0.002 A 
ENDBRANCH   1  16
TORSDOF 4
ENDMDL
MODEL 10
REMARK VINA RESULT:      -7.9      5.944      7.291
REMARK  4 active torsions:
REMARK  status: ('A' for Active; 'I' for Inactive)
REMARK    1  A    between atoms: C_6  and  C_7 
REMARK    2  A    between atoms: C_9  and  C_10 
REMARK    3  A    between atoms: C_10  and  C_11 
REMARK    4  A    between atoms: C_15  and  N_16 
ROOT
HETATM    1  C   UNL     1       4.984  26.749  52.737  1.00  0.00     0.112 A 
HETATM    2  O   UNL     1       4.942  27.059  51.403  1.00  0.00    -0.308 OA
HETATM    3  C   UNL     1       4.173  28.188  51.206  1.00  0.00     0.077 A 
HETATM    4  C   UNL     1       3.700  28.574  52.454  1.00  0.00     0.040 A 
HETATM    5  C   UNL     1       4.218  27.676  53.416  1.00  0.00     0.043 A 
ENDROOT
BRANCH   3   6
HETATM    6  C   UNL     1       3.969  28.699  49.893  1.00  0.00     0.059 C 
BRANCH   6   7
HETATM    7  C   UNL     1       3.333  28.096  48.882  1.00  0.00     0.053 A 
HETATM    8  S   UNL     1       1.707  28.243  48.344  1.00  0.00    -0.024 SA
HETATM    9  C   UNL     1       1.982  27.030  47.088  1.00  0.00     0.312 A 
HETATM   10  O   UNL     1       1.084  26.675  46.342  1.00  0.00    -0.258 OA
HETATM   11  N   UNL     1       3.277  26.562  47.045  1.00  0.00    -0.191 NA
HETATM   12  C   UNL     1       4.011  27.111  47.974  1.00  0.00     0.122 A 
BRANCH  12  13
HETATM   13  N   UNL     1       5.329  26.753  48.043  1.00  0.00    -0.286 NA
HETATM   14  H   UNL     1       5.652  26.333  48.906  1.00  0.00     0.125 HD
HETATM   15  H   UNL     1       5.945  27.498  47.726  1.00  0.00     0.125 HD
ENDBRANCH  12  13
ENDBRANCH   6   7
ENDBRANCH   3   6
BRANCH   1  16
HETATM   16  C   UNL     1       5.706  25.632  53.284  1.00  0.00     0.133 A 
HETATM   17  S   UNL     1       5.797  25.342  54.970  1.00  0.00    -0.066 SA
HETATM   18  C   UNL     1       6.766  23.948  54.680  1.00  0.00     0.035 A 
HETATM   19  C   UNL     1       6.948  23.804  53.303  1.00  0.00     0.075 A 
HETATM   20  C   UNL     1       7.326  23.048  55.601  1.00  0.00     0.021 A 
HETATM   21  C   UNL     1       7.716  22.720  52.831  1.00  0.00     0.033 A 
HETATM   22  N   UNL     1       6.339  24.768  52.519  1.00  0.00    -0.238 NA
HETATM   23  C   UNL     1       8.278  21.817  53.739  1.00  0.00     0.002 A 
HETATM   24  C   UNL     1       8.083  21.981  55.107  1.00  0.00     0.002 A 
ENDBRANCH   1  16
TORSDOF 4
ENDMDL
