MODEL 1
REMARK VINA RESULT:     -10.9      0.000      0.000
REMARK  8 active torsions:
REMARK  status: ('A' for Active; 'I' for Inactive)
REMARK    1  A    between atoms: N_2  and  C_4 
REMARK    2  A    between atoms: N_2  and  C_32 
REMARK    3  A    between atoms: C_4  and  C_5 
REMARK    4  A    between atoms: N_8  and  C_9 
REMARK    5  A    between atoms: C_12  and  N_13 
REMARK       I    between atoms: N_13  and  C_14 
REMARK       I    between atoms: C_14  and  N_15 
REMARK    6  A    between atoms: N_15  and  C_16 
REMARK    7  A    between atoms: C_18  and  C_19 
REMARK    8  A    between atoms: C_32  and  C_33 
ROOT
HETATM    1  C   UNL     1       5.855  30.770  57.173  1.00  0.00     0.161 C 
HETATM    2  C   UNL     1       4.686  29.820  56.972  1.00  0.00     0.179 C 
HETATM    3  C   UNL     1       5.335  28.453  56.820  1.00  0.00     0.177 C 
HETATM    4  C   UNL     1       5.168  28.133  55.342  1.00  0.00     0.141 C 
HETATM    5  C   UNL     1       3.926  28.940  54.968  1.00  0.00     0.196 C 
HETATM    6  O   UNL     1       3.973  30.138  55.767  1.00  0.00    -0.379 OA
HETATM    7  O   UNL     1       6.722  28.578  57.181  1.00  0.00    -0.379 OA
HETATM    8  C   UNL     1       6.878  29.856  57.825  1.00  0.00     0.198 C 
ENDROOT
BRANCH   1   9
HETATM    9  N   UNL     1       5.493  31.956  57.913  1.00  0.00    -0.274 N 
HETATM   10  N   UNL     1       5.421  33.165  57.329  1.00  0.00     0.005 NA
HETATM   11  N   UNL     1       5.074  34.045  58.255  1.00  0.00    -0.161 NA
HETATM   12  C   UNL     1       4.918  33.378  59.441  1.00  0.00     0.095 A 
HETATM   13  C   UNL     1       5.165  32.040  59.240  1.00  0.00     0.139 A 
BRANCH  12  14
HETATM   14  C   UNL     1       4.581  34.131  60.673  1.00  0.00     0.296 C 
BRANCH  14  15
HETATM   15  N   UNL     1       5.161  33.493  61.919  1.00  0.00    -0.066 N 
HETATM   16  C   UNL     1       4.295  33.703  63.129  1.00  0.00     0.270 C 
HETATM   17  H   UNL     1       5.143  32.480  61.730  1.00  0.00     0.280 HD
BRANCH  15  18
HETATM   18  C   UNL     1       6.597  33.887  62.136  1.00  0.00     0.273 C 
BRANCH  18  19
HETATM   19  C   UNL     1       7.569  32.764  61.897  1.00  0.00    -0.033 A 
HETATM   20  C   UNL     1       7.701  31.725  62.831  1.00  0.00     0.009 A 
HETATM   21  C   UNL     1       8.626  30.701  62.621  1.00  0.00     0.001 A 
HETATM   22  C   UNL     1       9.425  30.704  61.480  1.00  0.00     0.000 A 
HETATM   23  C   UNL     1       9.300  31.728  60.545  1.00  0.00     0.001 A 
HETATM   24  C   UNL     1       8.376  32.754  60.748  1.00  0.00     0.009 A 
ENDBRANCH  18  19
ENDBRANCH  15  18
ENDBRANCH  14  15
ENDBRANCH  12  14
ENDBRANCH   1   9
BRANCH   4  25
HETATM   25  N   UNL     1       5.137  26.715  55.011  1.00  0.00    -0.334 N 
HETATM   26  C   UNL     1       6.285  25.989  54.761  1.00  0.00     0.321 C 
HETATM   27  N   UNL     1       5.989  24.666  54.528  1.00  0.00    -0.309 N 
HETATM   28  O   UNL     1       7.395  26.501  54.799  1.00  0.00    -0.247 OA
HETATM   29  H   UNL     1       5.012  24.419  54.565  1.00  0.00     0.170 HD
HETATM   30  H   UNL     1       4.309  26.401  54.523  1.00  0.00     0.164 HD
BRANCH  27  31
HETATM   31  C   UNL     1       6.891  23.597  54.352  1.00  0.00     0.037 A 
HETATM   32  C   UNL     1       7.304  22.743  55.378  1.00  0.00     0.045 A 
HETATM   33  C   UNL     1       8.174  21.668  55.119  1.00  0.00     0.050 A 
HETATM   34  C   UNL     1       8.651  21.474  53.815  1.00  0.00     0.016 A 
HETATM   35  C   UNL     1       8.252  22.327  52.788  1.00  0.00     0.003 A 
HETATM   36  C   UNL     1       7.375  23.379  53.056  1.00  0.00     0.029 A 
BRANCH  33  37
HETATM   37  C   UNL     1       8.614  20.749  56.233  1.00  0.00     0.417 C 
HETATM   38  F   UNL     1       8.483  21.297  57.473  1.00  0.00    -0.166 F 
HETATM   39  F   UNL     1       7.906  19.586  56.267  1.00  0.00    -0.166 F 
HETATM   40  F   UNL     1       9.921  20.388  56.119  1.00  0.00    -0.166 F 
ENDBRANCH  33  37
ENDBRANCH  27  31
ENDBRANCH   4  25
TORSDOF 8
ENDMDL
MODEL 2
REMARK VINA RESULT:     -10.7      1.567      2.282
REMARK  8 active torsions:
REMARK  status: ('A' for Active; 'I' for Inactive)
REMARK    1  A    between atoms: N_2  and  C_4 
REMARK    2  A    between atoms: N_2  and  C_32 
REMARK    3  A    between atoms: C_4  and  C_5 
REMARK    4  A    between atoms: N_8  and  C_9 
REMARK    5  A    between atoms: C_12  and  N_13 
REMARK       I    between atoms: N_13  and  C_14 
REMARK       I    between atoms: C_14  and  N_15 
REMARK    6  A    between atoms: N_15  and  C_16 
REMARK    7  A    between atoms: C_18  and  C_19 
REMARK    8  A    between atoms: C_32  and  C_33 
ROOT
HETATM    1  C   UNL     1       4.301  30.661  57.782  1.00  0.00     0.161 C 
HETATM    2  C   UNL     1       5.703  30.711  57.198  1.00  0.00     0.179 C 
HETATM    3  C   UNL     1       5.735  29.565  56.198  1.00  0.00     0.177 C 
HETATM    4  C   UNL     1       6.620  28.524  56.867  1.00  0.00     0.141 C 
HETATM    5  C   UNL     1       7.508  29.377  57.771  1.00  0.00     0.196 C 
HETATM    6  O   UNL     1       6.688  30.475  58.216  1.00  0.00    -0.379 OA
HETATM    7  O   UNL     1       4.390  29.087  56.029  1.00  0.00    -0.379 OA
HETATM    8  C   UNL     1       3.515  30.060  56.629  1.00  0.00     0.198 C 
ENDROOT
BRANCH   1   9
HETATM    9  N   UNL     1       3.849  31.942  58.267  1.00  0.00    -0.274 N 
HETATM   10  N   UNL     1       3.101  32.766  57.511  1.00  0.00     0.005 NA
HETATM   11  N   UNL     1       2.849  33.856  58.220  1.00  0.00    -0.161 NA
HETATM   12  C   UNL     1       3.443  33.713  59.446  1.00  0.00     0.095 A 
HETATM   13  C   UNL     1       4.072  32.491  59.502  1.00  0.00     0.139 A 
BRANCH  12  14
HETATM   14  C   UNL     1       3.370  34.816  60.435  1.00  0.00     0.296 C 
BRANCH  14  15
HETATM   15  N   UNL     1       3.565  34.332  61.857  1.00  0.00    -0.066 N 
HETATM   16  C   UNL     1       2.272  34.259  62.620  1.00  0.00     0.270 C 
HETATM   17  H   UNL     1       3.894  33.360  61.764  1.00  0.00     0.280 HD
BRANCH  15  18
HETATM   18  C   UNL     1       4.638  35.106  62.574  1.00  0.00     0.273 C 
BRANCH  18  19
HETATM   19  C   UNL     1       5.811  34.260  62.987  1.00  0.00    -0.033 A 
HETATM   20  C   UNL     1       6.254  34.260  64.319  1.00  0.00     0.009 A 
HETATM   21  C   UNL     1       7.363  33.499  64.694  1.00  0.00     0.001 A 
HETATM   22  C   UNL     1       8.036  32.733  63.746  1.00  0.00     0.000 A 
HETATM   23  C   UNL     1       7.604  32.722  62.422  1.00  0.00     0.001 A 
HETATM   24  C   UNL     1       6.496  33.480  62.042  1.00  0.00     0.009 A 
ENDBRANCH  18  19
ENDBRANCH  15  18
ENDBRANCH  14  15
ENDBRANCH  12  14
ENDBRANCH   1   9
BRANCH   4  25
HETATM   25  N   UNL     1       7.310  27.617  55.959  1.00  0.00    -0.334 N 
HETATM   26  C   UNL     1       7.203  26.244  56.065  1.00  0.00     0.321 C 
HETATM   27  N   UNL     1       7.903  25.618  55.060  1.00  0.00    -0.309 N 
HETATM   28  O   UNL     1       6.526  25.712  56.934  1.00  0.00    -0.247 OA
HETATM   29  H   UNL     1       8.384  26.224  54.413  1.00  0.00     0.170 HD
HETATM   30  H   UNL     1       8.185  27.958  55.587  1.00  0.00     0.164 HD
BRANCH  27  31
HETATM   31  C   UNL     1       7.942  24.240  54.762  1.00  0.00     0.037 A 
HETATM   32  C   UNL     1       8.171  23.241  55.711  1.00  0.00     0.045 A 
HETATM   33  C   UNL     1       8.152  21.881  55.349  1.00  0.00     0.050 A 
HETATM   34  C   UNL     1       7.926  21.534  54.009  1.00  0.00     0.016 A 
HETATM   35  C   UNL     1       7.707  22.525  53.055  1.00  0.00     0.003 A 
HETATM   36  C   UNL     1       7.711  23.869  53.432  1.00  0.00     0.029 A 
BRANCH  33  37
HETATM   37  C   UNL     1       8.399  20.807  56.380  1.00  0.00     0.417 C 
HETATM   38  F   UNL     1       9.616  20.207  56.259  1.00  0.00    -0.166 F 
HETATM   39  F   UNL     1       8.347  21.281  57.657  1.00  0.00    -0.166 F 
HETATM   40  F   UNL     1       7.480  19.806  56.315  1.00  0.00    -0.166 F 
ENDBRANCH  33  37
ENDBRANCH  27  31
ENDBRANCH   4  25
TORSDOF 8
ENDMDL
MODEL 3
REMARK VINA RESULT:     -10.4      1.384      1.924
REMARK  8 active torsions:
REMARK  status: ('A' for Active; 'I' for Inactive)
REMARK    1  A    between atoms: N_2  and  C_4 
REMARK    2  A    between atoms: N_2  and  C_32 
REMARK    3  A    between atoms: C_4  and  C_5 
REMARK    4  A    between atoms: N_8  and  C_9 
REMARK    5  A    between atoms: C_12  and  N_13 
REMARK       I    between atoms: N_13  and  C_14 
REMARK       I    between atoms: C_14  and  N_15 
REMARK    6  A    between atoms: N_15  and  C_16 
REMARK    7  A    between atoms: C_18  and  C_19 
REMARK    8  A    between atoms: C_32  and  C_33 
ROOT
HETATM    1  C   UNL     1       5.670  30.821  57.308  1.00  0.00     0.161 C 
HETATM    2  C   UNL     1       5.299  29.392  56.949  1.00  0.00     0.179 C 
HETATM    3  C   UNL     1       6.623  28.741  56.579  1.00  0.00     0.177 C 
HETATM    4  C   UNL     1       6.541  28.584  55.068  1.00  0.00     0.141 C 
HETATM    5  C   UNL     1       5.035  28.504  54.825  1.00  0.00     0.196 C 
HETATM    6  O   UNL     1       4.426  29.363  55.809  1.00  0.00    -0.379 OA
HETATM    7  O   UNL     1       7.679  29.639  56.962  1.00  0.00    -0.379 OA
HETATM    8  C   UNL     1       7.094  30.647  57.806  1.00  0.00     0.198 C 
ENDROOT
BRANCH   1   9
HETATM    9  N   UNL     1       4.739  31.428  58.229  1.00  0.00    -0.274 N 
HETATM   10  N   UNL     1       3.739  30.730  58.795  1.00  0.00     0.005 NA
HETATM   11  N   UNL     1       3.060  31.552  59.580  1.00  0.00    -0.161 NA
HETATM   12  C   UNL     1       3.646  32.788  59.512  1.00  0.00     0.095 A 
HETATM   13  C   UNL     1       4.730  32.726  58.668  1.00  0.00     0.139 A 
BRANCH  12  14
HETATM   14  C   UNL     1       3.055  33.927  60.255  1.00  0.00     0.296 C 
BRANCH  14  15
HETATM   15  N   UNL     1       3.472  33.947  61.712  1.00  0.00    -0.066 N 
HETATM   16  C   UNL     1       2.330  34.279  62.631  1.00  0.00     0.270 C 
HETATM   17  H   UNL     1       3.734  32.973  61.926  1.00  0.00     0.280 HD
BRANCH  15  18
HETATM   18  C   UNL     1       4.689  34.802  61.938  1.00  0.00     0.273 C 
BRANCH  18  19
HETATM   19  C   UNL     1       5.827  34.065  62.589  1.00  0.00    -0.033 A 
HETATM   20  C   UNL     1       6.143  34.291  63.937  1.00  0.00     0.009 A 
HETATM   21  C   UNL     1       7.219  33.629  64.531  1.00  0.00     0.001 A 
HETATM   22  C   UNL     1       7.987  32.737  63.785  1.00  0.00     0.000 A 
HETATM   23  C   UNL     1       7.681  32.503  62.448  1.00  0.00     0.001 A 
HETATM   24  C   UNL     1       6.606  33.161  61.849  1.00  0.00     0.009 A 
ENDBRANCH  18  19
ENDBRANCH  15  18
ENDBRANCH  14  15
ENDBRANCH  12  14
ENDBRANCH   1   9
BRANCH   4  25
HETATM   25  N   UNL     1       7.340  27.501  54.510  1.00  0.00    -0.334 N 
HETATM   26  C   UNL     1       7.156  26.182  54.877  1.00  0.00     0.321 C 
HETATM   27  N   UNL     1       7.996  25.354  54.169  1.00  0.00    -0.309 N 
HETATM   28  O   UNL     1       6.312  25.850  55.698  1.00  0.00    -0.247 OA
HETATM   29  H   UNL     1       8.610  25.806  53.510  1.00  0.00     0.170 HD
HETATM   30  H   UNL     1       8.282  27.751  54.243  1.00  0.00     0.164 HD
BRANCH  27  31
HETATM   31  C   UNL     1       8.026  23.944  54.175  1.00  0.00     0.037 A 
HETATM   32  C   UNL     1       8.210  23.171  55.324  1.00  0.00     0.045 A 
HETATM   33  C   UNL     1       8.185  21.765  55.262  1.00  0.00     0.050 A 
HETATM   34  C   UNL     1       7.999  21.139  54.021  1.00  0.00     0.016 A 
HETATM   35  C   UNL     1       7.825  21.904  52.869  1.00  0.00     0.003 A 
HETATM   36  C   UNL     1       7.835  23.297  52.948  1.00  0.00     0.029 A 
BRANCH  33  37
HETATM   37  C   UNL     1       8.384  20.936  56.508  1.00  0.00     0.417 C 
HETATM   38  F   UNL     1       9.590  20.307  56.556  1.00  0.00    -0.166 F 
HETATM   39  F   UNL     1       8.308  21.676  57.650  1.00  0.00    -0.166 F 
HETATM   40  F   UNL     1       7.446  19.958  56.633  1.00  0.00    -0.166 F 
ENDBRANCH  33  37
ENDBRANCH  27  31
ENDBRANCH   4  25
TORSDOF 8
ENDMDL
MODEL 4
REMARK VINA RESULT:     -10.1      1.640      2.314
REMARK  8 active torsions:
REMARK  status: ('A' for Active; 'I' for Inactive)
REMARK    1  A    between atoms: N_2  and  C_4 
REMARK    2  A    between atoms: N_2  and  C_32 
REMARK    3  A    between atoms: C_4  and  C_5 
REMARK    4  A    between atoms: N_8  and  C_9 
REMARK    5  A    between atoms: C_12  and  N_13 
REMARK       I    between atoms: N_13  and  C_14 
REMARK       I    between atoms: C_14  and  N_15 
REMARK    6  A    between atoms: N_15  and  C_16 
REMARK    7  A    between atoms: C_18  and  C_19 
REMARK    8  A    between atoms: C_32  and  C_33 
ROOT
HETATM    1  C   UNL     1       5.546  31.583  57.284  1.00  0.00     0.161 C 
HETATM    2  C   UNL     1       4.400  30.586  57.223  1.00  0.00     0.179 C 
HETATM    3  C   UNL     1       5.078  29.227  57.315  1.00  0.00     0.177 C 
HETATM    4  C   UNL     1       4.950  28.662  55.909  1.00  0.00     0.141 C 
HETATM    5  C   UNL     1       3.702  29.366  55.381  1.00  0.00     0.196 C 
HETATM    6  O   UNL     1       3.708  30.682  55.969  1.00  0.00    -0.379 OA
HETATM    7  O   UNL     1       6.454  29.443  57.675  1.00  0.00    -0.379 OA
HETATM    8  C   UNL     1       6.572  30.814  58.099  1.00  0.00     0.198 C 
ENDROOT
BRANCH   1   9
HETATM    9  N   UNL     1       5.145  32.866  57.807  1.00  0.00    -0.274 N 
HETATM   10  N   UNL     1       5.286  34.001  57.098  1.00  0.00     0.005 NA
HETATM   11  N   UNL     1       4.838  35.003  57.838  1.00  0.00    -0.161 NA
HETATM   12  C   UNL     1       4.402  34.492  59.031  1.00  0.00     0.095 A 
HETATM   13  C   UNL     1       4.574  33.127  59.025  1.00  0.00     0.139 A 
BRANCH  12  14
HETATM   14  C   UNL     1       3.895  35.404  60.085  1.00  0.00     0.296 C 
BRANCH  14  15
HETATM   15  N   UNL     1       3.920  34.770  61.461  1.00  0.00    -0.066 N 
HETATM   16  C   UNL     1       2.543  34.613  62.045  1.00  0.00     0.270 C 
HETATM   17  H   UNL     1       4.272  33.814  61.306  1.00  0.00     0.280 HD
BRANCH  15  18
HETATM   18  C   UNL     1       4.885  35.463  62.383  1.00  0.00     0.273 C 
BRANCH  18  19
HETATM   19  C   UNL     1       5.920  34.542  62.969  1.00  0.00    -0.033 A 
HETATM   20  C   UNL     1       6.286  34.650  64.319  1.00  0.00     0.009 A 
HETATM   21  C   UNL     1       7.269  33.816  64.853  1.00  0.00     0.001 A 
HETATM   22  C   UNL     1       7.894  32.868  64.045  1.00  0.00     0.000 A 
HETATM   23  C   UNL     1       7.537  32.749  62.705  1.00  0.00     0.001 A 
HETATM   24  C   UNL     1       6.553  33.581  62.166  1.00  0.00     0.009 A 
ENDBRANCH  18  19
ENDBRANCH  15  18
ENDBRANCH  14  15
ENDBRANCH  12  14
ENDBRANCH   1   9
BRANCH   4  25
HETATM   25  N   UNL     1       4.953  27.207  55.820  1.00  0.00    -0.334 N 
HETATM   26  C   UNL     1       6.114  26.481  55.636  1.00  0.00     0.321 C 
HETATM   27  N   UNL     1       5.854  25.130  55.641  1.00  0.00    -0.309 N 
HETATM   28  O   UNL     1       7.206  27.021  55.532  1.00  0.00    -0.247 OA
HETATM   29  H   UNL     1       4.889  24.867  55.768  1.00  0.00     0.170 HD
HETATM   30  H   UNL     1       4.116  26.795  55.433  1.00  0.00     0.164 HD
BRANCH  27  31
HETATM   31  C   UNL     1       6.784  24.071  55.599  1.00  0.00     0.037 A 
HETATM   32  C   UNL     1       7.016  23.278  54.473  1.00  0.00     0.045 A 
HETATM   33  C   UNL     1       7.993  22.265  54.490  1.00  0.00     0.050 A 
HETATM   34  C   UNL     1       8.720  22.037  55.667  1.00  0.00     0.016 A 
HETATM   35  C   UNL     1       8.488  22.817  56.798  1.00  0.00     0.003 A 
HETATM   36  C   UNL     1       7.528  23.830  56.761  1.00  0.00     0.029 A 
BRANCH  33  37
HETATM   37  C   UNL     1       8.238  21.413  53.269  1.00  0.00     0.417 C 
HETATM   38  F   UNL     1       7.332  20.408  53.116  1.00  0.00    -0.166 F 
HETATM   39  F   UNL     1       8.195  22.128  52.110  1.00  0.00    -0.166 F 
HETATM   40  F   UNL     1       9.460  20.815  53.293  1.00  0.00    -0.166 F 
ENDBRANCH  33  37
ENDBRANCH  27  31
ENDBRANCH   4  25
TORSDOF 8
ENDMDL
MODEL 5
REMARK VINA RESULT:      -9.9      5.637     11.703
REMARK  8 active torsions:
REMARK  status: ('A' for Active; 'I' for Inactive)
REMARK    1  A    between atoms: N_2  and  C_4 
REMARK    2  A    between atoms: N_2  and  C_32 
REMARK    3  A    between atoms: C_4  and  C_5 
REMARK    4  A    between atoms: N_8  and  C_9 
REMARK    5  A    between atoms: C_12  and  N_13 
REMARK       I    between atoms: N_13  and  C_14 
REMARK       I    between atoms: C_14  and  N_15 
REMARK    6  A    between atoms: N_15  and  C_16 
REMARK    7  A    between atoms: C_18  and  C_19 
REMARK    8  A    between atoms: C_32  and  C_33 
ROOT
HETATM    1  C   UNL     1       6.691  29.418  57.209  1.00  0.00     0.161 C 
HETATM    2  C   UNL     1       6.359  30.896  57.090  1.00  0.00     0.179 C 
HETATM    3  C   UNL     1       6.761  31.481  58.435  1.00  0.00     0.177 C 
HETATM    4  C   UNL     1       5.433  31.776  59.115  1.00  0.00     0.141 C 
HETATM    5  C   UNL     1       4.493  31.984  57.929  1.00  0.00     0.196 C 
HETATM    6  O   UNL     1       4.949  31.087  56.897  1.00  0.00    -0.379 OA
HETATM    7  O   UNL     1       7.509  30.479  59.147  1.00  0.00    -0.379 OA
HETATM    8  C   UNL     1       7.839  29.445  58.202  1.00  0.00     0.198 C 
ENDROOT
BRANCH   1   9
HETATM    9  N   UNL     1       6.962  28.800  55.933  1.00  0.00    -0.274 N 
HETATM   10  N   UNL     1       8.170  28.879  55.345  1.00  0.00     0.005 NA
HETATM   11  N   UNL     1       8.108  28.225  54.196  1.00  0.00    -0.161 NA
HETATM   12  C   UNL     1       6.843  27.719  54.060  1.00  0.00     0.095 A 
HETATM   13  C   UNL     1       6.100  28.061  55.166  1.00  0.00     0.139 A 
BRANCH  12  14
HETATM   14  C   UNL     1       6.471  26.981  52.828  1.00  0.00     0.296 C 
BRANCH  14  15
HETATM   15  N   UNL     1       6.451  25.480  53.037  1.00  0.00    -0.066 N 
HETATM   16  C   UNL     1       5.100  24.979  53.465  1.00  0.00     0.270 C 
HETATM   17  H   UNL     1       6.618  25.080  52.103  1.00  0.00     0.280 HD
BRANCH  15  18
HETATM   18  C   UNL     1       7.570  25.021  53.932  1.00  0.00     0.273 C 
BRANCH  18  19
HETATM   19  C   UNL     1       7.652  23.526  54.069  1.00  0.00    -0.033 A 
HETATM   20  C   UNL     1       7.500  22.917  55.324  1.00  0.00     0.009 A 
HETATM   21  C   UNL     1       7.608  21.531  55.454  1.00  0.00     0.001 A 
HETATM   22  C   UNL     1       7.867  20.743  54.335  1.00  0.00     0.000 A 
HETATM   23  C   UNL     1       8.016  21.336  53.084  1.00  0.00     0.001 A 
HETATM   24  C   UNL     1       7.908  22.721  52.948  1.00  0.00     0.009 A 
ENDBRANCH  18  19
ENDBRANCH  15  18
ENDBRANCH  14  15
ENDBRANCH  12  14
ENDBRANCH   1   9
BRANCH   4  25
HETATM   25  N   UNL     1       5.464  32.843  60.106  1.00  0.00    -0.334 N 
HETATM   26  C   UNL     1       5.540  32.591  61.462  1.00  0.00     0.321 C 
HETATM   27  N   UNL     1       5.610  33.765  62.177  1.00  0.00    -0.309 N 
HETATM   28  O   UNL     1       5.579  31.453  61.908  1.00  0.00    -0.247 OA
HETATM   29  H   UNL     1       5.592  34.614  61.634  1.00  0.00     0.170 HD
HETATM   30  H   UNL     1       4.975  33.689  59.848  1.00  0.00     0.164 HD
BRANCH  27  31
HETATM   31  C   UNL     1       5.813  33.921  63.563  1.00  0.00     0.037 A 
HETATM   32  C   UNL     1       4.822  34.337  64.457  1.00  0.00     0.045 A 
HETATM   33  C   UNL     1       5.084  34.428  65.837  1.00  0.00     0.050 A 
HETATM   34  C   UNL     1       6.369  34.123  66.309  1.00  0.00     0.016 A 
HETATM   35  C   UNL     1       7.365  33.718  65.423  1.00  0.00     0.003 A 
HETATM   36  C   UNL     1       7.086  33.615  64.060  1.00  0.00     0.029 A 
BRANCH  33  37
HETATM   37  C   UNL     1       4.009  34.876  66.795  1.00  0.00     0.417 C 
HETATM   38  F   UNL     1       3.834  34.032  67.849  1.00  0.00    -0.166 F 
HETATM   39  F   UNL     1       4.264  36.099  67.340  1.00  0.00    -0.166 F 
HETATM   40  F   UNL     1       2.792  34.982  66.195  1.00  0.00    -0.166 F 
ENDBRANCH  33  37
ENDBRANCH  27  31
ENDBRANCH   4  25
TORSDOF 8
ENDMDL
MODEL 6
REMARK VINA RESULT:      -9.4      4.440     11.082
REMARK  8 active torsions:
REMARK  status: ('A' for Active; 'I' for Inactive)
REMARK    1  A    between atoms: N_2  and  C_4 
REMARK    2  A    between atoms: N_2  and  C_32 
REMARK    3  A    between atoms: C_4  and  C_5 
REMARK    4  A    between atoms: N_8  and  C_9 
REMARK    5  A    between atoms: C_12  and  N_13 
REMARK       I    between atoms: N_13  and  C_14 
REMARK       I    between atoms: C_14  and  N_15 
REMARK    6  A    between atoms: N_15  and  C_16 
REMARK    7  A    between atoms: C_18  and  C_19 
REMARK    8  A    between atoms: C_32  and  C_33 
ROOT
HETATM    1  C   UNL     1       4.663  28.605  55.706  1.00  0.00     0.161 C 
HETATM    2  C   UNL     1       5.401  29.907  55.442  1.00  0.00     0.179 C 
HETATM    3  C   UNL     1       5.694  30.461  56.828  1.00  0.00     0.177 C 
HETATM    4  C   UNL     1       4.741  31.639  56.958  1.00  0.00     0.141 C 
HETATM    5  C   UNL     1       4.522  32.050  55.504  1.00  0.00     0.196 C 
HETATM    6  O   UNL     1       4.561  30.833  54.734  1.00  0.00    -0.379 OA
HETATM    7  O   UNL     1       5.399  29.431  57.787  1.00  0.00    -0.379 OA
HETATM    8  C   UNL     1       5.235  28.203  57.055  1.00  0.00     0.198 C 
ENDROOT
BRANCH   1   9
HETATM    9  N   UNL     1       4.814  27.648  54.636  1.00  0.00    -0.274 N 
HETATM   10  N   UNL     1       4.333  27.877  53.401  1.00  0.00     0.005 NA
HETATM   11  N   UNL     1       4.620  26.826  52.649  1.00  0.00    -0.161 NA
HETATM   12  C   UNL     1       5.298  25.921  53.421  1.00  0.00     0.095 A 
HETATM   13  C   UNL     1       5.448  26.434  54.689  1.00  0.00     0.139 A 
BRANCH  12  14
HETATM   14  C   UNL     1       5.700  24.614  52.847  1.00  0.00     0.296 C 
BRANCH  14  15
HETATM   15  N   UNL     1       7.173  24.322  53.047  1.00  0.00    -0.066 N 
HETATM   16  C   UNL     1       8.053  25.216  52.220  1.00  0.00     0.270 C 
HETATM   17  H   UNL     1       7.361  24.569  54.030  1.00  0.00     0.280 HD
BRANCH  15  18
HETATM   18  C   UNL     1       7.484  22.859  52.882  1.00  0.00     0.273 C 
BRANCH  18  19
HETATM   19  C   UNL     1       7.771  22.157  54.181  1.00  0.00    -0.033 A 
HETATM   20  C   UNL     1       7.911  22.890  55.370  1.00  0.00     0.009 A 
HETATM   21  C   UNL     1       8.208  22.240  56.569  1.00  0.00     0.001 A 
HETATM   22  C   UNL     1       8.368  20.856  56.592  1.00  0.00     0.000 A 
HETATM   23  C   UNL     1       8.229  20.118  55.419  1.00  0.00     0.001 A 
HETATM   24  C   UNL     1       7.930  20.763  54.218  1.00  0.00     0.009 A 
ENDBRANCH  18  19
ENDBRANCH  15  18
ENDBRANCH  14  15
ENDBRANCH  12  14
ENDBRANCH   1   9
BRANCH   4  25
HETATM   25  N   UNL     1       5.173  32.692  57.867  1.00  0.00    -0.334 N 
HETATM   26  C   UNL     1       4.831  32.699  59.205  1.00  0.00     0.321 C 
HETATM   27  N   UNL     1       5.408  33.768  59.853  1.00  0.00    -0.309 N 
HETATM   28  O   UNL     1       4.140  31.822  59.702  1.00  0.00    -0.247 OA
HETATM   29  H   UNL     1       5.973  34.377  59.283  1.00  0.00     0.170 HD
HETATM   30  H   UNL     1       5.303  33.602  57.446  1.00  0.00     0.164 HD
BRANCH  27  31
HETATM   31  C   UNL     1       5.392  34.052  61.234  1.00  0.00     0.037 A 
HETATM   32  C   UNL     1       6.375  33.629  62.132  1.00  0.00     0.045 A 
HETATM   33  C   UNL     1       6.316  33.988  63.491  1.00  0.00     0.050 A 
HETATM   34  C   UNL     1       5.238  34.758  63.948  1.00  0.00     0.016 A 
HETATM   35  C   UNL     1       4.248  35.176  63.062  1.00  0.00     0.003 A 
HETATM   36  C   UNL     1       4.328  34.827  61.713  1.00  0.00     0.029 A 
BRANCH  33  37
HETATM   37  C   UNL     1       7.383  33.527  64.455  1.00  0.00     0.417 C 
HETATM   38  F   UNL     1       6.886  32.916  65.565  1.00  0.00    -0.166 F 
HETATM   39  F   UNL     1       8.247  32.633  63.897  1.00  0.00    -0.166 F 
HETATM   40  F   UNL     1       8.151  34.556  64.906  1.00  0.00    -0.166 F 
ENDBRANCH  33  37
ENDBRANCH  27  31
ENDBRANCH   4  25
TORSDOF 8
ENDMDL
MODEL 7
REMARK VINA RESULT:      -9.4      5.524     11.580
REMARK  8 active torsions:
REMARK  status: ('A' for Active; 'I' for Inactive)
REMARK    1  A    between atoms: N_2  and  C_4 
REMARK    2  A    between atoms: N_2  and  C_32 
REMARK    3  A    between atoms: C_4  and  C_5 
REMARK    4  A    between atoms: N_8  and  C_9 
REMARK    5  A    between atoms: C_12  and  N_13 
REMARK       I    between atoms: N_13  and  C_14 
REMARK       I    between atoms: C_14  and  N_15 
REMARK    6  A    between atoms: N_15  and  C_16 
REMARK    7  A    between atoms: C_18  and  C_19 
REMARK    8  A    between atoms: C_32  and  C_33 
ROOT
HETATM    1  C   UNL     1       5.271  29.741  54.985  1.00  0.00     0.161 C 
HETATM    2  C   UNL     1       5.631  29.209  56.363  1.00  0.00     0.179 C 
HETATM    3  C   UNL     1       4.697  29.950  57.308  1.00  0.00     0.177 C 
HETATM    4  C   UNL     1       5.610  30.932  58.026  1.00  0.00     0.141 C 
HETATM    5  C   UNL     1       6.967  30.235  57.954  1.00  0.00     0.196 C 
HETATM    6  O   UNL     1       6.990  29.535  56.695  1.00  0.00    -0.379 OA
HETATM    7  O   UNL     1       3.710  30.629  56.512  1.00  0.00    -0.379 OA
HETATM    8  C   UNL     1       3.809  30.105  55.175  1.00  0.00     0.198 C 
ENDROOT
BRANCH   1   9
HETATM    9  N   UNL     1       5.566  28.805  53.928  1.00  0.00    -0.274 N 
HETATM   10  N   UNL     1       5.077  28.957  52.684  1.00  0.00     0.005 NA
HETATM   11  N   UNL     1       5.514  27.948  51.947  1.00  0.00    -0.161 NA
HETATM   12  C   UNL     1       6.297  27.150  52.738  1.00  0.00     0.095 A 
HETATM   13  C   UNL     1       6.357  27.688  54.002  1.00  0.00     0.139 A 
BRANCH  12  14
HETATM   14  C   UNL     1       6.880  25.904  52.182  1.00  0.00     0.296 C 
BRANCH  14  15
HETATM   15  N   UNL     1       6.274  24.658  52.796  1.00  0.00    -0.066 N 
HETATM   16  C   UNL     1       4.774  24.725  52.867  1.00  0.00     0.270 C 
HETATM   17  H   UNL     1       6.492  23.902  52.131  1.00  0.00     0.280 HD
BRANCH  15  18
HETATM   18  C   UNL     1       6.919  24.305  54.108  1.00  0.00     0.273 C 
BRANCH  18  19
HETATM   19  C   UNL     1       7.411  22.886  54.172  1.00  0.00    -0.033 A 
HETATM   20  C   UNL     1       7.532  22.229  55.406  1.00  0.00     0.009 A 
HETATM   21  C   UNL     1       8.019  20.922  55.465  1.00  0.00     0.001 A 
HETATM   22  C   UNL     1       8.387  20.260  54.296  1.00  0.00     0.000 A 
HETATM   23  C   UNL     1       8.267  20.900  53.065  1.00  0.00     0.001 A 
HETATM   24  C   UNL     1       7.781  22.207  53.000  1.00  0.00     0.009 A 
ENDBRANCH  18  19
ENDBRANCH  15  18
ENDBRANCH  14  15
ENDBRANCH  12  14
ENDBRANCH   1   9
BRANCH   4  25
HETATM   25  N   UNL     1       5.166  31.338  59.353  1.00  0.00    -0.334 N 
HETATM   26  C   UNL     1       5.989  32.013  60.233  1.00  0.00     0.321 C 
HETATM   27  N   UNL     1       5.316  32.329  61.391  1.00  0.00    -0.309 N 
HETATM   28  O   UNL     1       7.143  32.302  59.948  1.00  0.00    -0.247 OA
HETATM   29  H   UNL     1       4.354  32.031  61.438  1.00  0.00     0.170 HD
HETATM   30  H   UNL     1       4.469  30.743  59.779  1.00  0.00     0.164 HD
BRANCH  27  31
HETATM   31  C   UNL     1       5.776  33.110  62.471  1.00  0.00     0.037 A 
HETATM   32  C   UNL     1       5.208  34.328  62.854  1.00  0.00     0.045 A 
HETATM   33  C   UNL     1       5.692  35.033  63.972  1.00  0.00     0.050 A 
HETATM   34  C   UNL     1       6.777  34.511  64.691  1.00  0.00     0.016 A 
HETATM   35  C   UNL     1       7.354  33.302  64.310  1.00  0.00     0.003 A 
HETATM   36  C   UNL     1       6.853  32.605  63.210  1.00  0.00     0.029 A 
BRANCH  33  37
HETATM   37  C   UNL     1       5.073  36.347  64.379  1.00  0.00     0.417 C 
HETATM   38  F   UNL     1       3.824  36.540  63.871  1.00  0.00    -0.166 F 
HETATM   39  F   UNL     1       4.946  36.475  65.730  1.00  0.00    -0.166 F 
HETATM   40  F   UNL     1       5.812  37.415  63.971  1.00  0.00    -0.166 F 
ENDBRANCH  33  37
ENDBRANCH  27  31
ENDBRANCH   4  25
TORSDOF 8
ENDMDL
MODEL 8
REMARK VINA RESULT:      -9.3      2.226      3.101
REMARK  8 active torsions:
REMARK  status: ('A' for Active; 'I' for Inactive)
REMARK    1  A    between atoms: N_2  and  C_4 
REMARK    2  A    between atoms: N_2  and  C_32 
REMARK    3  A    between atoms: C_4  and  C_5 
REMARK    4  A    between atoms: N_8  and  C_9 
REMARK    5  A    between atoms: C_12  and  N_13 
REMARK       I    between atoms: N_13  and  C_14 
REMARK       I    between atoms: C_14  and  N_15 
REMARK    6  A    between atoms: N_15  and  C_16 
REMARK    7  A    between atoms: C_18  and  C_19 
REMARK    8  A    between atoms: C_32  and  C_33 
ROOT
HETATM    1  C   UNL     1       5.825  30.899  57.093  1.00  0.00     0.161 C 
HETATM    2  C   UNL     1       4.647  29.973  56.839  1.00  0.00     0.179 C 
HETATM    3  C   UNL     1       5.270  28.587  56.759  1.00  0.00     0.177 C 
HETATM    4  C   UNL     1       5.188  28.237  55.280  1.00  0.00     0.141 C 
HETATM    5  C   UNL     1       3.993  29.064  54.810  1.00  0.00     0.196 C 
HETATM    6  O   UNL     1       4.020  30.280  55.584  1.00  0.00    -0.379 OA
HETATM    7  O   UNL     1       6.634  28.688  57.204  1.00  0.00    -0.379 OA
HETATM    8  C   UNL     1       6.782  29.976  57.828  1.00  0.00     0.198 C 
ENDROOT
BRANCH   1   9
HETATM    9  N   UNL     1       5.448  32.110  57.782  1.00  0.00    -0.274 N 
HETATM   10  N   UNL     1       5.965  32.440  58.978  1.00  0.00     0.005 NA
HETATM   11  N   UNL     1       5.427  33.591  59.352  1.00  0.00    -0.161 NA
HETATM   12  C   UNL     1       4.562  33.996  58.372  1.00  0.00     0.095 A 
HETATM   13  C   UNL     1       4.572  33.073  57.352  1.00  0.00     0.139 A 
BRANCH  12  14
HETATM   14  C   UNL     1       3.770  35.238  58.552  1.00  0.00     0.296 C 
BRANCH  14  15
HETATM   15  N   UNL     1       3.256  35.395  59.968  1.00  0.00    -0.066 N 
HETATM   16  C   UNL     1       1.944  34.694  60.184  1.00  0.00     0.270 C 
HETATM   17  H   UNL     1       3.942  34.900  60.556  1.00  0.00     0.280 HD
BRANCH  15  18
HETATM   18  C   UNL     1       3.242  36.835  60.405  1.00  0.00     0.273 C 
BRANCH  18  19
HETATM   19  C   UNL     1       4.105  37.104  61.607  1.00  0.00    -0.033 A 
HETATM   20  C   UNL     1       3.686  36.710  62.887  1.00  0.00     0.009 A 
HETATM   21  C   UNL     1       4.474  36.989  64.005  1.00  0.00     0.001 A 
HETATM   22  C   UNL     1       5.684  37.662  63.856  1.00  0.00     0.000 A 
HETATM   23  C   UNL     1       6.112  38.055  62.591  1.00  0.00     0.001 A 
HETATM   24  C   UNL     1       5.329  37.778  61.469  1.00  0.00     0.009 A 
ENDBRANCH  18  19
ENDBRANCH  15  18
ENDBRANCH  14  15
ENDBRANCH  12  14
ENDBRANCH   1   9
BRANCH   4  25
HETATM   25  N   UNL     1       5.142  26.812  54.979  1.00  0.00    -0.334 N 
HETATM   26  C   UNL     1       6.281  26.073  54.730  1.00  0.00     0.321 C 
HETATM   27  N   UNL     1       5.972  24.747  54.528  1.00  0.00    -0.309 N 
HETATM   28  O   UNL     1       7.396  26.576  54.742  1.00  0.00    -0.247 OA
HETATM   29  H   UNL     1       4.994  24.509  54.583  1.00  0.00     0.170 HD
HETATM   30  H   UNL     1       4.306  26.495  54.509  1.00  0.00     0.164 HD
BRANCH  27  31
HETATM   31  C   UNL     1       6.864  23.668  54.362  1.00  0.00     0.037 A 
HETATM   32  C   UNL     1       7.253  22.808  55.393  1.00  0.00     0.045 A 
HETATM   33  C   UNL     1       8.114  21.723  55.144  1.00  0.00     0.050 A 
HETATM   34  C   UNL     1       8.605  21.524  53.845  1.00  0.00     0.016 A 
HETATM   35  C   UNL     1       8.229  22.383  52.814  1.00  0.00     0.003 A 
HETATM   36  C   UNL     1       7.361  23.445  53.072  1.00  0.00     0.029 A 
BRANCH  33  37
HETATM   37  C   UNL     1       8.528  20.798  56.262  1.00  0.00     0.417 C 
HETATM   38  F   UNL     1       8.451  21.369  57.496  1.00  0.00    -0.166 F 
HETATM   39  F   UNL     1       7.763  19.673  56.327  1.00  0.00    -0.166 F 
HETATM   40  F   UNL     1       9.813  20.369  56.129  1.00  0.00    -0.166 F 
ENDBRANCH  33  37
ENDBRANCH  27  31
ENDBRANCH   4  25
TORSDOF 8
ENDMDL
MODEL 9
REMARK VINA RESULT:      -9.2      6.650      9.998
REMARK  8 active torsions:
REMARK  status: ('A' for Active; 'I' for Inactive)
REMARK    1  A    between atoms: N_2  and  C_4 
REMARK    2  A    between atoms: N_2  and  C_32 
REMARK    3  A    between atoms: C_4  and  C_5 
REMARK    4  A    between atoms: N_8  and  C_9 
REMARK    5  A    between atoms: C_12  and  N_13 
REMARK       I    between atoms: N_13  and  C_14 
REMARK       I    between atoms: C_14  and  N_15 
REMARK    6  A    between atoms: N_15  and  C_16 
REMARK    7  A    between atoms: C_18  and  C_19 
REMARK    8  A    between atoms: C_32  and  C_33 
ROOT
HETATM    1  C   UNL     1       3.396  28.041  49.183  1.00  0.00     0.161 C 
HETATM    2  C   UNL     1       4.535  28.729  49.918  1.00  0.00     0.179 C 
HETATM    3  C   UNL     1       5.366  27.586  50.479  1.00  0.00     0.177 C 
HETATM    4  C   UNL     1       5.078  27.625  51.973  1.00  0.00     0.141 C 
HETATM    5  C   UNL     1       4.712  29.090  52.200  1.00  0.00     0.196 C 
HETATM    6  O   UNL     1       4.032  29.522  51.005  1.00  0.00    -0.379 OA
HETATM    7  O   UNL     1       4.898  26.364  49.882  1.00  0.00    -0.379 OA
HETATM    8  C   UNL     1       4.048  26.729  48.780  1.00  0.00     0.198 C 
ENDROOT
BRANCH   1   9
HETATM    9  N   UNL     1       2.854  28.842  48.113  1.00  0.00    -0.274 N 
HETATM   10  N   UNL     1       1.578  28.717  47.705  1.00  0.00     0.005 NA
HETATM   11  N   UNL     1       1.381  29.574  46.715  1.00  0.00    -0.161 NA
HETATM   12  C   UNL     1       2.549  30.254  46.499  1.00  0.00     0.095 A 
HETATM   13  C   UNL     1       3.498  29.813  47.392  1.00  0.00     0.139 A 
BRANCH  12  14
HETATM   14  C   UNL     1       2.634  31.247  45.401  1.00  0.00     0.296 C 
BRANCH  14  15
HETATM   15  N   UNL     1       3.429  32.476  45.792  1.00  0.00    -0.066 N 
HETATM   16  C   UNL     1       2.642  33.746  45.624  1.00  0.00     0.270 C 
HETATM   17  H   UNL     1       3.591  32.376  46.805  1.00  0.00     0.280 HD
BRANCH  15  18
HETATM   18  C   UNL     1       4.774  32.514  45.120  1.00  0.00     0.273 C 
BRANCH  18  19
HETATM   19  C   UNL     1       5.869  33.048  46.002  1.00  0.00    -0.033 A 
HETATM   20  C   UNL     1       5.780  32.933  47.397  1.00  0.00     0.009 A 
HETATM   21  C   UNL     1       6.782  33.457  48.215  1.00  0.00     0.001 A 
HETATM   22  C   UNL     1       7.881  34.098  47.648  1.00  0.00     0.000 A 
HETATM   23  C   UNL     1       7.983  34.216  46.264  1.00  0.00     0.001 A 
HETATM   24  C   UNL     1       6.984  33.693  45.442  1.00  0.00     0.009 A 
ENDBRANCH  18  19
ENDBRANCH  15  18
ENDBRANCH  14  15
ENDBRANCH  12  14
ENDBRANCH   1   9
BRANCH   4  25
HETATM   25  N   UNL     1       6.129  27.085  52.824  1.00  0.00    -0.334 N 
HETATM   26  C   UNL     1       6.075  25.806  53.343  1.00  0.00     0.321 C 
HETATM   27  N   UNL     1       7.211  25.522  54.066  1.00  0.00    -0.309 N 
HETATM   28  O   UNL     1       5.136  25.056  53.121  1.00  0.00    -0.247 OA
HETATM   29  H   UNL     1       7.897  26.259  54.120  1.00  0.00     0.170 HD
HETATM   30  H   UNL     1       6.621  27.764  53.389  1.00  0.00     0.164 HD
BRANCH  27  31
HETATM   31  C   UNL     1       7.579  24.292  54.648  1.00  0.00     0.037 A 
HETATM   32  C   UNL     1       7.758  23.108  53.929  1.00  0.00     0.045 A 
HETATM   33  C   UNL     1       8.170  21.925  54.571  1.00  0.00     0.050 A 
HETATM   34  C   UNL     1       8.374  21.937  55.958  1.00  0.00     0.016 A 
HETATM   35  C   UNL     1       8.187  23.111  56.685  1.00  0.00     0.003 A 
HETATM   36  C   UNL     1       7.796  24.281  56.032  1.00  0.00     0.029 A 
BRANCH  33  37
HETATM   37  C   UNL     1       8.362  20.650  53.786  1.00  0.00     0.417 C 
HETATM   38  F   UNL     1       9.393  20.709  52.898  1.00  0.00    -0.166 F 
HETATM   39  F   UNL     1       8.621  19.575  54.582  1.00  0.00    -0.166 F 
HETATM   40  F   UNL     1       7.260  20.320  53.059  1.00  0.00    -0.166 F 
ENDBRANCH  33  37
ENDBRANCH  27  31
ENDBRANCH   4  25
TORSDOF 8
ENDMDL
MODEL 10
REMARK VINA RESULT:      -9.1      7.712     11.848
REMARK  8 active torsions:
REMARK  status: ('A' for Active; 'I' for Inactive)
REMARK    1  A    between atoms: N_2  and  C_4 
REMARK    2  A    between atoms: N_2  and  C_32 
REMARK    3  A    between atoms: C_4  and  C_5 
REMARK    4  A    between atoms: N_8  and  C_9 
REMARK    5  A    between atoms: C_12  and  N_13 
REMARK       I    between atoms: N_13  and  C_14 
REMARK       I    between atoms: C_14  and  N_15 
REMARK    6  A    between atoms: N_15  and  C_16 
REMARK    7  A    between atoms: C_18  and  C_19 
REMARK    8  A    between atoms: C_32  and  C_33 
ROOT
HETATM    1  C   UNL     1       1.937  27.091  48.018  1.00  0.00     0.161 C 
HETATM    2  C   UNL     1       3.267  27.790  48.249  1.00  0.00     0.179 C 
HETATM    3  C   UNL     1       4.218  26.669  48.640  1.00  0.00     0.177 C 
HETATM    4  C   UNL     1       4.444  26.886  50.128  1.00  0.00     0.141 C 
HETATM    5  C   UNL     1       4.200  28.385  50.285  1.00  0.00     0.196 C 
HETATM    6  O   UNL     1       3.169  28.723  49.337  1.00  0.00    -0.379 OA
HETATM    7  O   UNL     1       3.557  25.418  48.381  1.00  0.00    -0.379 OA
HETATM    8  C   UNL     1       2.394  25.709  47.584  1.00  0.00     0.198 C 
ENDROOT
BRANCH   1   9
HETATM    9  N   UNL     1       1.083  27.801  47.097  1.00  0.00    -0.274 N 
HETATM   10  N   UNL     1       0.399  27.168  46.127  1.00  0.00     0.005 NA
HETATM   11  N   UNL     1      -0.284  28.077  45.449  1.00  0.00    -0.161 NA
HETATM   12  C   UNL     1      -0.031  29.303  46.005  1.00  0.00     0.095 A 
HETATM   13  C   UNL     1       0.826  29.147  47.069  1.00  0.00     0.139 A 
BRANCH  12  14
HETATM   14  C   UNL     1      -0.627  30.522  45.406  1.00  0.00     0.296 C 
BRANCH  14  15
HETATM   15  N   UNL     1      -2.142  30.489  45.412  1.00  0.00    -0.066 N 
HETATM   16  C   UNL     1      -2.722  30.499  44.025  1.00  0.00     0.270 C 
HETATM   17  H   UNL     1      -2.385  29.573  45.814  1.00  0.00     0.280 HD
BRANCH  15  18
HETATM   18  C   UNL     1      -2.724  31.546  46.310  1.00  0.00     0.273 C 
BRANCH  18  19
HETATM   19  C   UNL     1      -3.685  31.001  47.331  1.00  0.00    -0.033 A 
HETATM   20  C   UNL     1      -3.827  31.626  48.579  1.00  0.00     0.009 A 
HETATM   21  C   UNL     1      -4.696  31.101  49.537  1.00  0.00     0.001 A 
HETATM   22  C   UNL     1      -5.430  29.950  49.257  1.00  0.00     0.000 A 
HETATM   23  C   UNL     1      -5.300  29.324  48.021  1.00  0.00     0.001 A 
HETATM   24  C   UNL     1      -4.433  29.845  47.059  1.00  0.00     0.009 A 
ENDBRANCH  18  19
ENDBRANCH  15  18
ENDBRANCH  14  15
ENDBRANCH  12  14
ENDBRANCH   1   9
BRANCH   4  25
HETATM   25  N   UNL     1       5.710  26.383  50.646  1.00  0.00    -0.334 N 
HETATM   26  C   UNL     1       5.783  25.590  51.774  1.00  0.00     0.321 C 
HETATM   27  N   UNL     1       7.082  25.205  52.020  1.00  0.00    -0.309 N 
HETATM   28  O   UNL     1       4.787  25.270  52.407  1.00  0.00    -0.247 OA
HETATM   29  H   UNL     1       7.774  25.546  51.370  1.00  0.00     0.170 HD
HETATM   30  H   UNL     1       6.513  26.972  50.474  1.00  0.00     0.164 HD
BRANCH  27  31
HETATM   31  C   UNL     1       7.545  24.307  53.003  1.00  0.00     0.037 A 
HETATM   32  C   UNL     1       7.743  22.941  52.784  1.00  0.00     0.045 A 
HETATM   33  C   UNL     1       8.251  22.111  53.801  1.00  0.00     0.050 A 
HETATM   34  C   UNL     1       8.534  22.666  55.057  1.00  0.00     0.016 A 
HETATM   35  C   UNL     1       8.330  24.025  55.286  1.00  0.00     0.003 A 
HETATM   36  C   UNL     1       7.842  24.839  54.263  1.00  0.00     0.029 A 
BRANCH  33  37
HETATM   37  C   UNL     1       8.463  20.637  53.557  1.00  0.00     0.417 C 
HETATM   38  F   UNL     1       9.057  19.993  54.599  1.00  0.00    -0.166 F 
HETATM   39  F   UNL     1       7.298  19.969  53.325  1.00  0.00    -0.166 F 
HETATM   40  F   UNL     1       9.251  20.401  52.473  1.00  0.00    -0.166 F 
ENDBRANCH  33  37
ENDBRANCH  27  31
ENDBRANCH   4  25
TORSDOF 8
ENDMDL
