MODEL 1
REMARK VINA RESULT:      -9.1      0.000      0.000
REMARK  3 active torsions:
REMARK  status: ('A' for Active; 'I' for Inactive)
REMARK    1  A    between atoms: C_3  and  C_4 
REMARK    2  A    between atoms: C_10  and  C_11 
REMARK    3  A    between atoms: C_14  and  O_15 
ROOT
HETATM    1  C   UNL     1       7.041  29.739  57.771  1.00  0.00    -0.007 A 
HETATM    2  C   UNL     1       7.562  28.436  57.795  1.00  0.00     0.047 A 
HETATM    3  C   UNL     1       7.334  27.594  56.695  1.00  0.00     0.086 A 
HETATM    4  C   UNL     1       6.604  28.058  55.613  1.00  0.00     0.063 A 
HETATM    5  N   UNL     1       6.589  27.000  54.741  1.00  0.00    -0.338 N 
HETATM    6  H   UNL     1       6.162  27.001  53.828  1.00  0.00     0.167 HD
HETATM    7  C   UNL     1       7.290  25.951  55.297  1.00  0.00     0.139 A 
HETATM    8  N   UNL     1       7.749  26.304  56.487  1.00  0.00    -0.228 NA
HETATM    9  C   UNL     1       6.066  29.341  55.547  1.00  0.00     0.033 A 
HETATM   10  C   UNL     1       6.300  30.170  56.653  1.00  0.00     0.016 A 
ENDROOT
BRANCH   1  11
HETATM   11  C   UNL     1       7.265  30.713  58.898  1.00  0.00     0.069 C 
HETATM   12  C   UNL     1       8.583  30.696  59.665  1.00  0.00     0.045 C 
HETATM   13  C   UNL     1       9.614  31.535  58.908  1.00  0.00     0.017 C 
HETATM   14  C   UNL     1       8.365  31.209  61.081  1.00  0.00     0.115 C 
HETATM   15  C   UNL     1       7.512  32.442  61.104  1.00  0.00     0.238 C 
HETATM   16  N   UNL     1       6.549  32.508  60.132  1.00  0.00    -0.247 N 
HETATM   17  O   UNL     1       7.613  33.299  61.978  1.00  0.00    -0.272 OA
HETATM   18  N   UNL     1       6.347  31.607  59.136  1.00  0.00    -0.176 NA
HETATM   19  H   UNL     1       5.890  33.278  60.189  1.00  0.00     0.192 HD
ENDBRANCH   1  11
BRANCH   7  20
HETATM   20  C   UNL     1       7.514  24.660  54.639  1.00  0.00     0.010 A 
HETATM   21  C   UNL     1       7.549  23.495  55.417  1.00  0.00     0.018 A 
HETATM   22  C   UNL     1       7.773  22.247  54.830  1.00  0.00     0.037 A 
HETATM   23  C   UNL     1       7.959  22.132  53.452  1.00  0.00     0.068 A 
HETATM   24  C   UNL     1       7.915  23.282  52.666  1.00  0.00     0.037 A 
HETATM   25  C   UNL     1       7.693  24.536  53.255  1.00  0.00     0.018 A 
BRANCH  23  26
HETATM   26  O   UNL     1       8.171  20.857  53.007  1.00  0.00    -0.356 OA
HETATM   27  C   UNL     1       8.773  19.946  53.918  1.00  0.00     0.210 C 
ENDBRANCH  23  26
ENDBRANCH   7  20
TORSDOF 3
ENDMDL
MODEL 2
REMARK VINA RESULT:      -9.0      1.830      9.336
REMARK  3 active torsions:
REMARK  status: ('A' for Active; 'I' for Inactive)
REMARK    1  A    between atoms: C_3  and  C_4 
REMARK    2  A    between atoms: C_10  and  C_11 
REMARK    3  A    between atoms: C_14  and  O_15 
ROOT
HETATM    1  C   UNL     1       7.777  25.230  54.998  1.00  0.00    -0.007 A 
HETATM    2  C   UNL     1       8.037  25.710  56.290  1.00  0.00     0.047 A 
HETATM    3  C   UNL     1       7.776  27.059  56.578  1.00  0.00     0.086 A 
HETATM    4  C   UNL     1       7.272  27.889  55.589  1.00  0.00     0.063 A 
HETATM    5  N   UNL     1       7.133  29.103  56.210  1.00  0.00    -0.338 N 
HETATM    6  H   UNL     1       6.762  29.937  55.784  1.00  0.00     0.167 HD
HETATM    7  C   UNL     1       7.542  28.985  57.521  1.00  0.00     0.139 A 
HETATM    8  N   UNL     1       7.933  27.743  57.755  1.00  0.00    -0.228 NA
HETATM    9  C   UNL     1       7.004  27.457  54.293  1.00  0.00     0.033 A 
HETATM   10  C   UNL     1       7.270  26.108  54.019  1.00  0.00     0.016 A 
ENDROOT
BRANCH   1  11
HETATM   11  C   UNL     1       8.003  23.790  54.617  1.00  0.00     0.069 C 
HETATM   12  C   UNL     1       8.870  22.899  55.499  1.00  0.00     0.045 C 
HETATM   13  C   UNL     1       8.015  22.329  56.632  1.00  0.00     0.017 C 
HETATM   14  C   UNL     1       9.504  21.798  54.660  1.00  0.00     0.115 C 
HETATM   15  C   UNL     1       8.517  21.173  53.721  1.00  0.00     0.238 C 
HETATM   16  N   UNL     1       7.551  22.015  53.237  1.00  0.00    -0.247 N 
HETATM   17  O   UNL     1       8.609  20.006  53.346  1.00  0.00    -0.272 OA
HETATM   18  N   UNL     1       7.377  23.319  53.575  1.00  0.00    -0.176 NA
HETATM   19  H   UNL     1       6.936  21.646  52.518  1.00  0.00     0.192 HD
ENDBRANCH   1  11
BRANCH   7  20
HETATM   20  C   UNL     1       7.505  30.074  58.503  1.00  0.00     0.010 A 
HETATM   21  C   UNL     1       8.463  30.103  59.525  1.00  0.00     0.018 A 
HETATM   22  C   UNL     1       8.455  31.115  60.488  1.00  0.00     0.037 A 
HETATM   23  C   UNL     1       7.496  32.126  60.449  1.00  0.00     0.068 A 
HETATM   24  C   UNL     1       6.543  32.115  59.430  1.00  0.00     0.037 A 
HETATM   25  C   UNL     1       6.549  31.098  58.465  1.00  0.00     0.018 A 
BRANCH  23  26
HETATM   26  O   UNL     1       7.597  33.052  61.449  1.00  0.00    -0.356 OA
HETATM   27  C   UNL     1       7.838  32.561  62.762  1.00  0.00     0.210 C 
ENDBRANCH  23  26
ENDBRANCH   7  20
TORSDOF 3
ENDMDL
MODEL 3
REMARK VINA RESULT:      -8.6      2.119      9.394
REMARK  3 active torsions:
REMARK  status: ('A' for Active; 'I' for Inactive)
REMARK    1  A    between atoms: C_3  and  C_4 
REMARK    2  A    between atoms: C_10  and  C_11 
REMARK    3  A    between atoms: C_14  and  O_15 
ROOT
HETATM    1  C   UNL     1       7.711  25.239  54.516  1.00  0.00    -0.007 A 
HETATM    2  C   UNL     1       7.595  25.725  55.826  1.00  0.00     0.047 A 
HETATM    3  C   UNL     1       7.325  27.089  56.023  1.00  0.00     0.086 A 
HETATM    4  C   UNL     1       7.180  27.927  54.928  1.00  0.00     0.063 A 
HETATM    5  N   UNL     1       6.919  29.155  55.478  1.00  0.00    -0.338 N 
HETATM    6  H   UNL     1       6.733  29.999  54.961  1.00  0.00     0.167 HD
HETATM    7  C   UNL     1       6.912  29.038  56.852  1.00  0.00     0.139 A 
HETATM    8  N   UNL     1       7.156  27.783  57.193  1.00  0.00    -0.228 NA
HETATM    9  C   UNL     1       7.290  27.489  53.611  1.00  0.00     0.033 A 
HETATM   10  C   UNL     1       7.561  26.125  53.430  1.00  0.00     0.016 A 
ENDROOT
BRANCH   1  11
HETATM   11  C   UNL     1       7.972  23.785  54.220  1.00  0.00     0.069 C 
HETATM   12  C   UNL     1       8.793  22.948  55.194  1.00  0.00     0.045 C 
HETATM   13  C   UNL     1       7.878  22.425  56.302  1.00  0.00     0.017 C 
HETATM   14  C   UNL     1       9.485  21.816  54.449  1.00  0.00     0.115 C 
HETATM   15  C   UNL     1       8.560  21.133  53.486  1.00  0.00     0.238 C 
HETATM   16  N   UNL     1       7.616  21.940  52.906  1.00  0.00    -0.247 N 
HETATM   17  O   UNL     1       8.684  19.951  53.175  1.00  0.00    -0.272 OA
HETATM   18  N   UNL     1       7.411  23.256  53.169  1.00  0.00    -0.176 NA
HETATM   19  H   UNL     1       7.047  21.528  52.172  1.00  0.00     0.192 HD
ENDBRANCH   1  11
BRANCH   7  20
HETATM   20  C   UNL     1       6.636  30.141  57.778  1.00  0.00     0.010 A 
HETATM   21  C   UNL     1       5.369  30.739  57.769  1.00  0.00     0.018 A 
HETATM   22  C   UNL     1       5.070  31.800  58.627  1.00  0.00     0.037 A 
HETATM   23  C   UNL     1       6.027  32.286  59.518  1.00  0.00     0.068 A 
HETATM   24  C   UNL     1       7.289  31.692  59.544  1.00  0.00     0.037 A 
HETATM   25  C   UNL     1       7.590  30.628  58.682  1.00  0.00     0.018 A 
BRANCH  23  26
HETATM   26  O   UNL     1       5.609  33.327  60.297  1.00  0.00    -0.356 OA
HETATM   27  C   UNL     1       4.430  34.008  59.887  1.00  0.00     0.210 C 
ENDBRANCH  23  26
ENDBRANCH   7  20
TORSDOF 3
ENDMDL
MODEL 4
REMARK VINA RESULT:      -8.6      2.678      9.393
REMARK  3 active torsions:
REMARK  status: ('A' for Active; 'I' for Inactive)
REMARK    1  A    between atoms: C_3  and  C_4 
REMARK    2  A    between atoms: C_10  and  C_11 
REMARK    3  A    between atoms: C_14  and  O_15 
ROOT
HETATM    1  C   UNL     1       7.597  28.305  54.817  1.00  0.00    -0.007 A 
HETATM    2  C   UNL     1       6.909  28.659  55.987  1.00  0.00     0.047 A 
HETATM    3  C   UNL     1       7.592  29.367  56.989  1.00  0.00     0.086 A 
HETATM    4  C   UNL     1       8.925  29.701  56.808  1.00  0.00     0.063 A 
HETATM    5  N   UNL     1       9.258  30.380  57.952  1.00  0.00    -0.338 N 
HETATM    6  H   UNL     1      10.156  30.794  58.145  1.00  0.00     0.167 HD
HETATM    7  C   UNL     1       8.153  30.441  58.774  1.00  0.00     0.139 A 
HETATM    8  N   UNL     1       7.133  29.829  58.195  1.00  0.00    -0.228 NA
HETATM    9  C   UNL     1       9.648  29.367  55.666  1.00  0.00     0.033 A 
HETATM   10  C   UNL     1       8.954  28.659  54.675  1.00  0.00     0.016 A 
ENDROOT
BRANCH   1  11
HETATM   11  C   UNL     1       6.929  27.570  53.685  1.00  0.00     0.069 C 
HETATM   12  C   UNL     1       7.134  26.067  53.530  1.00  0.00     0.045 C 
HETATM   13  C   UNL     1       6.136  25.330  54.424  1.00  0.00     0.017 C 
HETATM   14  C   UNL     1       6.983  25.671  52.068  1.00  0.00     0.115 C 
HETATM   15  C   UNL     1       5.793  26.325  51.432  1.00  0.00     0.238 C 
HETATM   16  N   UNL     1       5.490  27.576  51.899  1.00  0.00    -0.247 N 
HETATM   17  O   UNL     1       5.177  25.812  50.501  1.00  0.00    -0.272 OA
HETATM   18  N   UNL     1       6.120  28.233  52.908  1.00  0.00    -0.176 NA
HETATM   19  H   UNL     1       4.757  28.084  51.414  1.00  0.00     0.192 HD
ENDBRANCH   1  11
BRANCH   7  20
HETATM   20  C   UNL     1       8.121  31.120  60.074  1.00  0.00     0.010 A 
HETATM   21  C   UNL     1       8.949  30.657  61.105  1.00  0.00     0.018 A 
HETATM   22  C   UNL     1       8.939  31.268  62.362  1.00  0.00     0.037 A 
HETATM   23  C   UNL     1       8.108  32.358  62.616  1.00  0.00     0.068 A 
HETATM   24  C   UNL     1       7.287  32.835  61.595  1.00  0.00     0.037 A 
HETATM   25  C   UNL     1       7.295  32.221  60.334  1.00  0.00     0.018 A 
BRANCH  23  26
HETATM   26  O   UNL     1       8.192  32.860  63.884  1.00  0.00    -0.356 OA
HETATM   27  C   UNL     1       6.974  33.243  64.510  1.00  0.00     0.210 C 
ENDBRANCH  23  26
ENDBRANCH   7  20
TORSDOF 3
ENDMDL
MODEL 5
REMARK VINA RESULT:      -8.5      5.523      7.033
REMARK  3 active torsions:
REMARK  status: ('A' for Active; 'I' for Inactive)
REMARK    1  A    between atoms: C_3  and  C_4 
REMARK    2  A    between atoms: C_10  and  C_11 
REMARK    3  A    between atoms: C_14  and  O_15 
ROOT
HETATM    1  C   UNL     1       7.168  27.411  53.982  1.00  0.00    -0.007 A 
HETATM    2  C   UNL     1       6.113  28.009  53.278  1.00  0.00     0.047 A 
HETATM    3  C   UNL     1       5.658  27.404  52.095  1.00  0.00     0.086 A 
HETATM    4  C   UNL     1       6.254  26.236  51.645  1.00  0.00     0.063 A 
HETATM    5  N   UNL     1       5.568  25.929  50.499  1.00  0.00    -0.338 N 
HETATM    6  H   UNL     1       5.725  25.118  49.924  1.00  0.00     0.167 HD
HETATM    7  C   UNL     1       4.600  26.888  50.287  1.00  0.00     0.139 A 
HETATM    8  N   UNL     1       4.645  27.789  51.255  1.00  0.00    -0.228 NA
HETATM    9  C   UNL     1       7.306  25.611  52.310  1.00  0.00     0.033 A 
HETATM   10  C   UNL     1       7.751  26.226  53.488  1.00  0.00     0.016 A 
ENDROOT
BRANCH   1  11
HETATM   11  C   UNL     1       7.695  27.981  55.273  1.00  0.00     0.069 C 
HETATM   12  C   UNL     1       7.227  27.404  56.604  1.00  0.00     0.045 C 
HETATM   13  C   UNL     1       8.078  26.181  56.948  1.00  0.00     0.017 C 
HETATM   14  C   UNL     1       7.305  28.470  57.687  1.00  0.00     0.115 C 
HETATM   15  C   UNL     1       8.592  29.237  57.626  1.00  0.00     0.238 C 
HETATM   16  N   UNL     1       9.112  29.411  56.371  1.00  0.00    -0.247 N 
HETATM   17  O   UNL     1       9.107  29.743  58.619  1.00  0.00    -0.272 OA
HETATM   18  N   UNL     1       8.610  28.908  55.214  1.00  0.00    -0.176 NA
HETATM   19  H   UNL     1       9.924  30.016  56.289  1.00  0.00     0.192 HD
ENDBRANCH   1  11
BRANCH   7  20
HETATM   20  C   UNL     1       3.647  26.873  49.172  1.00  0.00     0.010 A 
HETATM   21  C   UNL     1       2.688  27.891  49.081  1.00  0.00     0.018 A 
HETATM   22  C   UNL     1       1.755  27.906  48.041  1.00  0.00     0.037 A 
HETATM   23  C   UNL     1       1.762  26.911  47.064  1.00  0.00     0.068 A 
HETATM   24  C   UNL     1       2.718  25.899  47.137  1.00  0.00     0.037 A 
HETATM   25  C   UNL     1       3.654  25.881  48.182  1.00  0.00     0.018 A 
BRANCH  23  26
HETATM   26  O   UNL     1       0.796  27.040  46.106  1.00  0.00    -0.356 OA
HETATM   27  C   UNL     1      -0.324  27.857  46.424  1.00  0.00     0.210 C 
ENDBRANCH  23  26
ENDBRANCH   7  20
TORSDOF 3
ENDMDL
MODEL 6
REMARK VINA RESULT:      -8.4      4.109      9.267
REMARK  3 active torsions:
REMARK  status: ('A' for Active; 'I' for Inactive)
REMARK    1  A    between atoms: C_3  and  C_4 
REMARK    2  A    between atoms: C_10  and  C_11 
REMARK    3  A    between atoms: C_14  and  O_15 
ROOT
HETATM    1  C   UNL     1       6.501  24.367  54.623  1.00  0.00    -0.007 A 
HETATM    2  C   UNL     1       6.340  25.499  55.435  1.00  0.00     0.047 A 
HETATM    3  C   UNL     1       5.532  26.553  54.976  1.00  0.00     0.086 A 
HETATM    4  C   UNL     1       4.914  26.458  53.740  1.00  0.00     0.063 A 
HETATM    5  N   UNL     1       4.215  27.632  53.625  1.00  0.00    -0.338 N 
HETATM    6  H   UNL     1       3.623  27.885  52.849  1.00  0.00     0.167 HD
HETATM    7  C   UNL     1       4.419  28.388  54.759  1.00  0.00     0.139 A 
HETATM    8  N   UNL     1       5.218  27.738  55.590  1.00  0.00    -0.228 NA
HETATM    9  C   UNL     1       5.048  25.355  52.900  1.00  0.00     0.033 A 
HETATM   10  C   UNL     1       5.858  24.312  53.370  1.00  0.00     0.016 A 
ENDROOT
BRANCH   1  11
HETATM   11  C   UNL     1       7.327  23.183  55.054  1.00  0.00     0.069 C 
HETATM   12  C   UNL     1       7.624  22.064  54.062  1.00  0.00     0.045 C 
HETATM   13  C   UNL     1       8.845  22.446  53.225  1.00  0.00     0.017 C 
HETATM   14  C   UNL     1       7.836  20.753  54.807  1.00  0.00     0.115 C 
HETATM   15  C   UNL     1       8.716  20.929  56.008  1.00  0.00     0.238 C 
HETATM   16  N   UNL     1       8.608  22.138  56.643  1.00  0.00    -0.247 N 
HETATM   17  O   UNL     1       9.428  20.028  56.443  1.00  0.00    -0.272 OA
HETATM   18  N   UNL     1       7.839  23.188  56.253  1.00  0.00    -0.176 NA
HETATM   19  H   UNL     1       9.112  22.245  57.519  1.00  0.00     0.192 HD
ENDBRANCH   1  11
BRANCH   7  20
HETATM   20  C   UNL     1       3.803  29.696  55.007  1.00  0.00     0.010 A 
HETATM   21  C   UNL     1       3.577  30.104  56.328  1.00  0.00     0.018 A 
HETATM   22  C   UNL     1       2.982  31.337  56.607  1.00  0.00     0.037 A 
HETATM   23  C   UNL     1       2.605  32.194  55.573  1.00  0.00     0.068 A 
HETATM   24  C   UNL     1       2.835  31.805  54.254  1.00  0.00     0.037 A 
HETATM   25  C   UNL     1       3.430  30.566  53.974  1.00  0.00     0.018 A 
BRANCH  23  26
HETATM   26  O   UNL     1       2.031  33.366  55.981  1.00  0.00    -0.356 OA
HETATM   27  C   UNL     1       2.338  34.531  55.226  1.00  0.00     0.210 C 
ENDBRANCH  23  26
ENDBRANCH   7  20
TORSDOF 3
ENDMDL
MODEL 7
REMARK VINA RESULT:      -8.4      1.728      9.484
REMARK  3 active torsions:
REMARK  status: ('A' for Active; 'I' for Inactive)
REMARK    1  A    between atoms: C_3  and  C_4 
REMARK    2  A    between atoms: C_10  and  C_11 
REMARK    3  A    between atoms: C_14  and  O_15 
ROOT
HETATM    1  C   UNL     1       7.205  27.796  55.636  1.00  0.00    -0.007 A 
HETATM    2  C   UNL     1       7.820  27.885  56.894  1.00  0.00     0.047 A 
HETATM    3  C   UNL     1       7.588  29.023  57.683  1.00  0.00     0.086 A 
HETATM    4  C   UNL     1       6.765  30.033  57.210  1.00  0.00     0.063 A 
HETATM    5  N   UNL     1       6.757  30.959  58.221  1.00  0.00    -0.338 N 
HETATM    6  H   UNL     1       6.231  31.818  58.221  1.00  0.00     0.167 HD
HETATM    7  C   UNL     1       7.551  30.504  59.251  1.00  0.00     0.139 A 
HETATM    8  N   UNL     1       8.060  29.324  58.934  1.00  0.00    -0.228 NA
HETATM    9  C   UNL     1       6.137  29.988  55.968  1.00  0.00     0.033 A 
HETATM   10  C   UNL     1       6.378  28.847  55.190  1.00  0.00     0.016 A 
ENDROOT
BRANCH   1  11
HETATM   11  C   UNL     1       7.379  26.597  54.741  1.00  0.00     0.069 C 
HETATM   12  C   UNL     1       7.113  25.198  55.287  1.00  0.00     0.045 C 
HETATM   13  C   UNL     1       5.618  24.895  55.185  1.00  0.00     0.017 C 
HETATM   14  C   UNL     1       7.951  24.178  54.530  1.00  0.00     0.115 C 
HETATM   15  C   UNL     1       7.914  24.413  53.049  1.00  0.00     0.238 C 
HETATM   16  N   UNL     1       7.809  25.724  52.665  1.00  0.00    -0.247 N 
HETATM   17  O   UNL     1       8.046  23.505  52.233  1.00  0.00    -0.272 OA
HETATM   18  N   UNL     1       7.676  26.796  53.488  1.00  0.00    -0.176 NA
HETATM   19  H   UNL     1       7.889  25.920  51.672  1.00  0.00     0.192 HD
ENDBRANCH   1  11
BRANCH   7  20
HETATM   20  C   UNL     1       7.759  31.216  60.517  1.00  0.00     0.010 A 
HETATM   21  C   UNL     1       6.777  32.109  60.966  1.00  0.00     0.018 A 
HETATM   22  C   UNL     1       6.943  32.816  62.160  1.00  0.00     0.037 A 
HETATM   23  C   UNL     1       8.088  32.643  62.936  1.00  0.00     0.068 A 
HETATM   24  C   UNL     1       9.068  31.749  62.506  1.00  0.00     0.037 A 
HETATM   25  C   UNL     1       8.903  31.040  61.306  1.00  0.00     0.018 A 
BRANCH  23  26
HETATM   26  O   UNL     1       8.127  33.395  64.076  1.00  0.00    -0.356 OA
HETATM   27  C   UNL     1       6.959  33.402  64.886  1.00  0.00     0.210 C 
ENDBRANCH  23  26
ENDBRANCH   7  20
TORSDOF 3
ENDMDL
MODEL 8
REMARK VINA RESULT:      -8.1      5.863      8.433
REMARK  3 active torsions:
REMARK  status: ('A' for Active; 'I' for Inactive)
REMARK    1  A    between atoms: C_3  and  C_4 
REMARK    2  A    between atoms: C_10  and  C_11 
REMARK    3  A    between atoms: C_14  and  O_15 
ROOT
HETATM    1  C   UNL     1       4.082  28.112  50.393  1.00  0.00    -0.007 A 
HETATM    2  C   UNL     1       4.979  27.036  50.331  1.00  0.00     0.047 A 
HETATM    3  C   UNL     1       5.445  26.471  51.530  1.00  0.00     0.086 A 
HETATM    4  C   UNL     1       5.015  26.982  52.744  1.00  0.00     0.063 A 
HETATM    5  N   UNL     1       5.646  26.202  53.678  1.00  0.00    -0.338 N 
HETATM    6  H   UNL     1       5.536  26.282  54.676  1.00  0.00     0.167 HD
HETATM    7  C   UNL     1       6.420  25.264  53.028  1.00  0.00     0.139 A 
HETATM    8  N   UNL     1       6.303  25.419  51.719  1.00  0.00    -0.228 NA
HETATM    9  C   UNL     1       4.128  28.050  52.853  1.00  0.00     0.033 A 
HETATM   10  C   UNL     1       3.672  28.605  51.649  1.00  0.00     0.016 A 
ENDROOT
BRANCH   1  11
HETATM   11  C   UNL     1       3.514  28.755  49.155  1.00  0.00     0.069 C 
HETATM   12  C   UNL     1       4.439  29.488  48.189  1.00  0.00     0.045 C 
HETATM   13  C   UNL     1       5.058  28.477  47.222  1.00  0.00     0.017 C 
HETATM   14  C   UNL     1       3.666  30.573  47.454  1.00  0.00     0.115 C 
HETATM   15  C   UNL     1       2.333  30.082  46.972  1.00  0.00     0.238 C 
HETATM   16  N   UNL     1       1.729  29.148  47.771  1.00  0.00    -0.247 N 
HETATM   17  O   UNL     1       1.782  30.539  45.974  1.00  0.00    -0.272 OA
HETATM   18  N   UNL     1       2.246  28.595  48.898  1.00  0.00    -0.176 NA
HETATM   19  H   UNL     1       0.781  28.877  47.526  1.00  0.00     0.192 HD
ENDBRANCH   1  11
BRANCH   7  20
HETATM   20  C   UNL     1       7.218  24.234  53.703  1.00  0.00     0.010 A 
HETATM   21  C   UNL     1       7.547  23.063  53.008  1.00  0.00     0.018 A 
HETATM   22  C   UNL     1       8.294  22.053  53.619  1.00  0.00     0.037 A 
HETATM   23  C   UNL     1       8.736  22.191  54.934  1.00  0.00     0.068 A 
HETATM   24  C   UNL     1       8.425  23.357  55.633  1.00  0.00     0.037 A 
HETATM   25  C   UNL     1       7.673  24.371  55.021  1.00  0.00     0.018 A 
BRANCH  23  26
HETATM   26  O   UNL     1       9.454  21.131  55.413  1.00  0.00    -0.356 OA
HETATM   27  C   UNL     1       8.743  20.160  56.171  1.00  0.00     0.210 C 
ENDBRANCH  23  26
ENDBRANCH   7  20
TORSDOF 3
ENDMDL
MODEL 9
REMARK VINA RESULT:      -8.1      2.302      3.188
REMARK  3 active torsions:
REMARK  status: ('A' for Active; 'I' for Inactive)
REMARK    1  A    between atoms: C_3  and  C_4 
REMARK    2  A    between atoms: C_10  and  C_11 
REMARK    3  A    between atoms: C_14  and  O_15 
ROOT
HETATM    1  C   UNL     1       5.948  30.058  57.675  1.00  0.00    -0.007 A 
HETATM    2  C   UNL     1       5.513  28.901  57.012  1.00  0.00     0.047 A 
HETATM    3  C   UNL     1       6.399  27.818  56.886  1.00  0.00     0.086 A 
HETATM    4  C   UNL     1       7.678  27.910  57.412  1.00  0.00     0.063 A 
HETATM    5  N   UNL     1       8.246  26.697  57.122  1.00  0.00    -0.338 N 
HETATM    6  H   UNL     1       9.175  26.409  57.386  1.00  0.00     0.167 HD
HETATM    7  C   UNL     1       7.327  25.921  56.447  1.00  0.00     0.139 A 
HETATM    8  N   UNL     1       6.198  26.595  56.301  1.00  0.00    -0.228 NA
HETATM    9  C   UNL     1       8.153  29.039  58.074  1.00  0.00     0.033 A 
HETATM   10  C   UNL     1       7.259  30.113  58.192  1.00  0.00     0.016 A 
ENDROOT
BRANCH   1  11
HETATM   11  C   UNL     1       5.052  31.251  57.877  1.00  0.00     0.069 C 
HETATM   12  C   UNL     1       5.169  32.455  56.948  1.00  0.00     0.045 C 
HETATM   13  C   UNL     1       4.332  32.203  55.693  1.00  0.00     0.017 C 
HETATM   14  C   UNL     1       4.730  33.717  57.676  1.00  0.00     0.115 C 
HETATM   15  C   UNL     1       3.465  33.503  58.453  1.00  0.00     0.238 C 
HETATM   16  N   UNL     1       3.301  32.247  58.974  1.00  0.00    -0.247 N 
HETATM   17  O   UNL     1       2.665  34.408  58.676  1.00  0.00    -0.272 OA
HETATM   18  N   UNL     1       4.134  31.188  58.800  1.00  0.00    -0.176 NA
HETATM   19  H   UNL     1       2.508  32.105  59.593  1.00  0.00     0.192 HD
ENDBRANCH   1  11
BRANCH   7  20
HETATM   20  C   UNL     1       7.570  24.545  56.001  1.00  0.00     0.010 A 
HETATM   21  C   UNL     1       7.219  24.180  54.695  1.00  0.00     0.018 A 
HETATM   22  C   UNL     1       7.422  22.876  54.235  1.00  0.00     0.037 A 
HETATM   23  C   UNL     1       7.987  21.909  55.067  1.00  0.00     0.068 A 
HETATM   24  C   UNL     1       8.351  22.263  56.365  1.00  0.00     0.037 A 
HETATM   25  C   UNL     1       8.145  23.571  56.828  1.00  0.00     0.018 A 
BRANCH  23  26
HETATM   26  O   UNL     1       8.128  20.675  54.497  1.00  0.00    -0.356 OA
HETATM   27  C   UNL     1       7.873  20.574  53.101  1.00  0.00     0.210 C 
ENDBRANCH  23  26
ENDBRANCH   7  20
TORSDOF 3
ENDMDL
MODEL 10
REMARK VINA RESULT:      -8.0      4.250      4.920
REMARK  3 active torsions:
REMARK  status: ('A' for Active; 'I' for Inactive)
REMARK    1  A    between atoms: C_3  and  C_4 
REMARK    2  A    between atoms: C_10  and  C_11 
REMARK    3  A    between atoms: C_14  and  O_15 
ROOT
HETATM    1  C   UNL     1       4.275  29.151  53.455  1.00  0.00    -0.007 A 
HETATM    2  C   UNL     1       4.587  28.099  54.330  1.00  0.00     0.047 A 
HETATM    3  C   UNL     1       5.297  26.993  53.836  1.00  0.00     0.086 A 
HETATM    4  C   UNL     1       5.674  26.957  52.503  1.00  0.00     0.063 A 
HETATM    5  N   UNL     1       6.342  25.767  52.377  1.00  0.00    -0.338 N 
HETATM    6  H   UNL     1       6.780  25.429  51.535  1.00  0.00     0.167 HD
HETATM    7  C   UNL     1       6.354  25.128  53.599  1.00  0.00     0.139 A 
HETATM    8  N   UNL     1       5.722  25.869  54.495  1.00  0.00    -0.228 NA
HETATM    9  C   UNL     1       5.384  27.975  51.599  1.00  0.00     0.033 A 
HETATM   10  C   UNL     1       4.674  29.073  52.106  1.00  0.00     0.016 A 
ENDROOT
BRANCH   1  11
HETATM   11  C   UNL     1       3.542  30.384  53.913  1.00  0.00     0.069 C 
HETATM   12  C   UNL     1       3.610  30.809  55.375  1.00  0.00     0.045 C 
HETATM   13  C   UNL     1       4.876  31.638  55.598  1.00  0.00     0.017 C 
HETATM   14  C   UNL     1       2.355  31.583  55.750  1.00  0.00     0.115 C 
HETATM   15  C   UNL     1       1.986  32.592  54.704  1.00  0.00     0.238 C 
HETATM   16  N   UNL     1       2.286  32.237  53.415  1.00  0.00    -0.247 N 
HETATM   17  O   UNL     1       1.387  33.630  54.969  1.00  0.00    -0.272 OA
HETATM   18  N   UNL     1       2.929  31.108  53.019  1.00  0.00    -0.176 NA
HETATM   19  H   UNL     1       1.953  32.853  52.679  1.00  0.00     0.192 HD
ENDBRANCH   1  11
BRANCH   7  20
HETATM   20  C   UNL     1       7.008  23.840  53.856  1.00  0.00     0.010 A 
HETATM   21  C   UNL     1       7.110  23.379  55.175  1.00  0.00     0.018 A 
HETATM   22  C   UNL     1       7.736  22.164  55.464  1.00  0.00     0.037 A 
HETATM   23  C   UNL     1       8.268  21.378  54.443  1.00  0.00     0.068 A 
HETATM   24  C   UNL     1       8.163  21.820  53.124  1.00  0.00     0.037 A 
HETATM   25  C   UNL     1       7.537  23.041  52.834  1.00  0.00     0.018 A 
BRANCH  23  26
HETATM   26  O   UNL     1       8.855  20.216  54.859  1.00  0.00    -0.356 OA
HETATM   27  C   UNL     1       9.330  20.177  56.199  1.00  0.00     0.210 C 
ENDBRANCH  23  26
ENDBRANCH   7  20
TORSDOF 3
ENDMDL
