MODEL 1
REMARK VINA RESULT:      -7.7      0.000      0.000
REMARK  6 active torsions:
REMARK  status: ('A' for Active; 'I' for Inactive)
REMARK    1  A    between atoms: C_2  and  O_3 
REMARK    2  A    between atoms: O_3  and  C_4 
REMARK    3  A    between atoms: C_4  and  C_5 
REMARK    4  A    between atoms: C_6  and  O_7 
REMARK    5  A    between atoms: C_12  and  O_13 
REMARK    6  A    between atoms: C_17  and  C_18 
ROOT
HETATM    1  C   UNL     1       7.327  25.900  54.080  1.00  0.00     0.133 C 
HETATM    2  C   UNL     1       6.610  25.094  52.954  1.00  0.00     0.073 C 
HETATM    3  C   UNL     1       6.935  23.593  52.997  1.00  0.00     0.047 C 
HETATM    4  C   UNL     1       5.064  25.286  52.931  1.00  0.00     0.097 C 
HETATM    5  C   UNL     1       4.724  26.709  53.185  1.00  0.00     0.042 A 
HETATM    6  C   UNL     1       5.543  27.681  53.720  1.00  0.00     0.030 A 
HETATM    7  C   UNL     1       4.753  28.841  53.640  1.00  0.00     0.190 A 
HETATM    8  N   UNL     1       3.533  28.625  53.162  1.00  0.00    -0.149 NA
HETATM    9  N   UNL     1       3.541  27.313  52.874  1.00  0.00    -0.279 N 
HETATM   10  H   UNL     1       2.712  26.909  52.449  1.00  0.00     0.189 HD
HETATM   11  C   UNL     1       6.961  27.416  54.109  1.00  0.00     0.074 C 
ENDROOT
BRANCH  11  12
HETATM   12  C   UNL     1       7.264  28.122  55.425  1.00  0.00    -0.048 A 
HETATM   13  C   UNL     1       6.356  28.180  56.500  1.00  0.00     0.009 A 
HETATM   14  C   UNL     1       6.701  28.802  57.703  1.00  0.00     0.024 A 
HETATM   15  C   UNL     1       7.964  29.360  57.855  1.00  0.00     0.034 A 
HETATM   16 CL   UNL     1       8.394  30.115  59.339  1.00  0.00    -0.084 Cl
HETATM   17  C   UNL     1       8.886  29.305  56.813  1.00  0.00     0.024 A 
HETATM   18  C   UNL     1       8.538  28.689  55.606  1.00  0.00     0.009 A 
ENDBRANCH  11  12
BRANCH   1  19
HETATM   19  C   UNL     1       7.212  25.223  55.431  1.00  0.00     0.267 C 
HETATM   20  O   UNL     1       6.130  24.987  55.958  1.00  0.00    -0.265 OA
BRANCH  19  21
HETATM   21  O   UNL     1       8.419  24.947  55.983  1.00  0.00    -0.321 OA
BRANCH  21  22
HETATM   22  C   UNL     1       8.465  23.787  56.829  1.00  0.00     0.174 C 
HETATM   23  C   UNL     1       8.716  22.538  56.005  1.00  0.00     0.034 C 
ENDBRANCH  21  22
ENDBRANCH  19  21
ENDBRANCH   1  19
BRANCH   2  24
HETATM   24  O   UNL     1       7.117  25.575  51.688  1.00  0.00    -0.389 OA
HETATM   25  H   UNL     1       6.382  25.619  51.051  1.00  0.00     0.210 HD
ENDBRANCH   2  24
BRANCH   7  26
HETATM   26  O   UNL     1       5.043  30.102  53.971  1.00  0.00    -0.343 OA
HETATM   27  H   UNL     1       4.239  30.640  53.936  1.00  0.00     0.219 HD
ENDBRANCH   7  26
TORSDOF 6
ENDMDL
MODEL 2
REMARK VINA RESULT:      -7.6      2.745      5.168
REMARK  6 active torsions:
REMARK  status: ('A' for Active; 'I' for Inactive)
REMARK    1  A    between atoms: C_2  and  O_3 
REMARK    2  A    between atoms: O_3  and  C_4 
REMARK    3  A    between atoms: C_4  and  C_5 
REMARK    4  A    between atoms: C_6  and  O_7 
REMARK    5  A    between atoms: C_12  and  O_13 
REMARK    6  A    between atoms: C_17  and  C_18 
ROOT
HETATM    1  C   UNL     1       6.510  28.184  57.066  1.00  0.00     0.133 C 
HETATM    2  C   UNL     1       5.997  29.616  57.412  1.00  0.00     0.073 C 
HETATM    3  C   UNL     1       6.917  30.359  58.392  1.00  0.00     0.047 C 
HETATM    4  C   UNL     1       5.746  30.511  56.161  1.00  0.00     0.097 C 
HETATM    5  C   UNL     1       5.112  29.713  55.082  1.00  0.00     0.042 A 
HETATM    6  C   UNL     1       5.055  28.338  54.982  1.00  0.00     0.030 A 
HETATM    7  C   UNL     1       4.264  28.136  53.839  1.00  0.00     0.190 A 
HETATM    8  N   UNL     1       3.901  29.260  53.232  1.00  0.00    -0.149 NA
HETATM    9  N   UNL     1       4.419  30.217  54.021  1.00  0.00    -0.279 N 
HETATM   10  H   UNL     1       4.239  31.187  53.781  1.00  0.00     0.189 HD
HETATM   11  C   UNL     1       5.635  27.431  56.017  1.00  0.00     0.074 C 
ENDROOT
BRANCH  11  12
HETATM   12  C   UNL     1       6.329  26.260  55.331  1.00  0.00    -0.048 A 
HETATM   13  C   UNL     1       7.081  26.391  54.147  1.00  0.00     0.009 A 
HETATM   14  C   UNL     1       7.735  25.293  53.582  1.00  0.00     0.024 A 
HETATM   15  C   UNL     1       7.659  24.051  54.201  1.00  0.00     0.034 A 
HETATM   16 CL   UNL     1       8.472  22.701  53.513  1.00  0.00    -0.084 Cl
HETATM   17  C   UNL     1       6.933  23.896  55.379  1.00  0.00     0.024 A 
HETATM   18  C   UNL     1       6.273  24.994  55.940  1.00  0.00     0.009 A 
ENDBRANCH  11  12
BRANCH   1  19
HETATM   19  C   UNL     1       7.990  28.168  56.745  1.00  0.00     0.267 C 
HETATM   20  O   UNL     1       8.772  27.392  57.284  1.00  0.00    -0.265 OA
BRANCH  19  21
HETATM   21  O   UNL     1       8.340  29.113  55.838  1.00  0.00    -0.321 OA
BRANCH  21  22
HETATM   22  C   UNL     1       9.751  29.314  55.661  1.00  0.00     0.174 C 
HETATM   23  C   UNL     1      10.307  30.187  56.770  1.00  0.00     0.034 C 
ENDBRANCH  21  22
ENDBRANCH  19  21
ENDBRANCH   1  19
BRANCH   2  24
HETATM   24  O   UNL     1       4.728  29.469  58.090  1.00  0.00    -0.389 OA
HETATM   25  H   UNL     1       4.825  29.780  59.007  1.00  0.00     0.210 HD
ENDBRANCH   2  24
BRANCH   7  26
HETATM   26  O   UNL     1       3.834  27.000  53.282  1.00  0.00    -0.343 OA
HETATM   27  H   UNL     1       3.386  27.197  52.447  1.00  0.00     0.219 HD
ENDBRANCH   7  26
TORSDOF 6
ENDMDL
MODEL 3
REMARK VINA RESULT:      -7.4      2.329      4.414
REMARK  6 active torsions:
REMARK  status: ('A' for Active; 'I' for Inactive)
REMARK    1  A    between atoms: C_2  and  O_3 
REMARK    2  A    between atoms: O_3  and  C_4 
REMARK    3  A    between atoms: C_4  and  C_5 
REMARK    4  A    between atoms: C_6  and  O_7 
REMARK    5  A    between atoms: C_12  and  O_13 
REMARK    6  A    between atoms: C_17  and  C_18 
ROOT
HETATM    1  C   UNL     1       5.497  26.593  53.881  1.00  0.00     0.133 C 
HETATM    2  C   UNL     1       5.243  25.486  52.813  1.00  0.00     0.073 C 
HETATM    3  C   UNL     1       4.959  26.058  51.416  1.00  0.00     0.047 C 
HETATM    4  C   UNL     1       6.389  24.434  52.715  1.00  0.00     0.097 C 
HETATM    5  C   UNL     1       6.879  24.087  54.073  1.00  0.00     0.042 A 
HETATM    6  C   UNL     1       6.671  24.790  55.242  1.00  0.00     0.030 A 
HETATM    7  C   UNL     1       7.261  23.967  56.216  1.00  0.00     0.190 A 
HETATM    8  N   UNL     1       7.842  22.881  55.720  1.00  0.00    -0.149 NA
HETATM    9  N   UNL     1       7.582  22.966  54.404  1.00  0.00    -0.279 N 
HETATM   10  H   UNL     1       7.898  22.212  53.802  1.00  0.00     0.189 HD
HETATM   11  C   UNL     1       5.860  26.044  55.295  1.00  0.00     0.074 C 
ENDROOT
BRANCH  11  12
HETATM   12  C   UNL     1       6.543  27.049  56.215  1.00  0.00    -0.048 A 
HETATM   13  C   UNL     1       7.938  27.107  56.397  1.00  0.00     0.009 A 
HETATM   14  C   UNL     1       8.518  28.078  57.218  1.00  0.00     0.024 A 
HETATM   15  C   UNL     1       7.713  29.014  57.856  1.00  0.00     0.034 A 
HETATM   16 CL   UNL     1       8.426  30.216  58.858  1.00  0.00    -0.084 Cl
HETATM   17  C   UNL     1       6.332  28.986  57.682  1.00  0.00     0.024 A 
HETATM   18  C   UNL     1       5.751  28.011  56.866  1.00  0.00     0.009 A 
ENDBRANCH  11  12
BRANCH   1  19
HETATM   19  C   UNL     1       6.449  27.662  53.383  1.00  0.00     0.267 C 
HETATM   20  O   UNL     1       7.638  27.440  53.180  1.00  0.00    -0.265 OA
BRANCH  19  21
HETATM   21  O   UNL     1       5.848  28.866  53.223  1.00  0.00    -0.321 OA
BRANCH  21  22
HETATM   22  C   UNL     1       4.457  28.920  53.578  1.00  0.00     0.174 C 
HETATM   23  C   UNL     1       4.145  30.209  54.314  1.00  0.00     0.034 C 
ENDBRANCH  21  22
ENDBRANCH  19  21
ENDBRANCH   1  19
BRANCH   2  24
HETATM   24  O   UNL     1       4.046  24.774  53.203  1.00  0.00    -0.389 OA
HETATM   25  H   UNL     1       3.577  24.485  52.401  1.00  0.00     0.210 HD
ENDBRANCH   2  24
BRANCH   7  26
HETATM   26  O   UNL     1       7.325  24.117  57.542  1.00  0.00    -0.343 OA
HETATM   27  H   UNL     1       6.759  24.854  57.813  1.00  0.00     0.219 HD
ENDBRANCH   7  26
TORSDOF 6
ENDMDL
MODEL 4
REMARK VINA RESULT:      -7.1      2.732      4.661
REMARK  6 active torsions:
REMARK  status: ('A' for Active; 'I' for Inactive)
REMARK    1  A    between atoms: C_2  and  O_3 
REMARK    2  A    between atoms: O_3  and  C_4 
REMARK    3  A    between atoms: C_4  and  C_5 
REMARK    4  A    between atoms: C_6  and  O_7 
REMARK    5  A    between atoms: C_12  and  O_13 
REMARK    6  A    between atoms: C_17  and  C_18 
ROOT
HETATM    1  C   UNL     1       5.759  27.094  56.123  1.00  0.00     0.133 C 
HETATM    2  C   UNL     1       5.034  28.474  56.159  1.00  0.00     0.073 C 
HETATM    3  C   UNL     1       5.488  29.354  57.334  1.00  0.00     0.047 C 
HETATM    4  C   UNL     1       5.156  29.282  54.833  1.00  0.00     0.097 C 
HETATM    5  C   UNL     1       5.009  28.374  53.668  1.00  0.00     0.042 A 
HETATM    6  C   UNL     1       5.112  26.999  53.662  1.00  0.00     0.030 A 
HETATM    7  C   UNL     1       4.788  26.662  52.336  1.00  0.00     0.190 A 
HETATM    8  N   UNL     1       4.562  27.713  51.557  1.00  0.00    -0.149 NA
HETATM    9  N   UNL     1       4.686  28.754  52.398  1.00  0.00    -0.279 N 
HETATM   10  H   UNL     1       4.517  29.687  52.036  1.00  0.00     0.189 HD
HETATM   11  C   UNL     1       5.374  26.205  54.900  1.00  0.00     0.074 C 
ENDROOT
BRANCH  11  12
HETATM   12  C   UNL     1       6.363  25.089  54.585  1.00  0.00    -0.048 A 
HETATM   13  C   UNL     1       6.379  23.855  55.263  1.00  0.00     0.009 A 
HETATM   14  C   UNL     1       7.279  22.847  54.905  1.00  0.00     0.024 A 
HETATM   15  C   UNL     1       8.164  23.053  53.853  1.00  0.00     0.034 A 
HETATM   16 CL   UNL     1       9.264  21.809  53.404  1.00  0.00    -0.084 Cl
HETATM   17  C   UNL     1       8.160  24.259  53.158  1.00  0.00     0.024 A 
HETATM   18  C   UNL     1       7.264  25.270  53.521  1.00  0.00     0.009 A 
ENDBRANCH  11  12
BRANCH   1  19
HETATM   19  C   UNL     1       7.254  27.227  56.329  1.00  0.00     0.267 C 
HETATM   20  O   UNL     1       7.963  27.901  55.589  1.00  0.00    -0.265 OA
BRANCH  19  21
HETATM   21  O   UNL     1       7.705  26.503  57.383  1.00  0.00    -0.321 OA
BRANCH  21  22
HETATM   22  C   UNL     1       8.921  25.771  57.161  1.00  0.00     0.174 C 
HETATM   23  C   UNL     1       8.828  24.387  57.775  1.00  0.00     0.034 C 
ENDBRANCH  21  22
ENDBRANCH  19  21
ENDBRANCH   1  19
BRANCH   2  24
HETATM   24  O   UNL     1       3.627  28.218  56.373  1.00  0.00    -0.389 OA
HETATM   25  H   UNL     1       3.285  28.864  57.016  1.00  0.00     0.210 HD
ENDBRANCH   2  24
BRANCH   7  26
HETATM   26  O   UNL     1       4.681  25.464  51.757  1.00  0.00    -0.343 OA
HETATM   27  H   UNL     1       4.681  25.567  50.794  1.00  0.00     0.219 HD
ENDBRANCH   7  26
TORSDOF 6
ENDMDL
MODEL 5
REMARK VINA RESULT:      -7.1      3.443      5.969
REMARK  6 active torsions:
REMARK  status: ('A' for Active; 'I' for Inactive)
REMARK    1  A    between atoms: C_2  and  O_3 
REMARK    2  A    between atoms: O_3  and  C_4 
REMARK    3  A    between atoms: C_4  and  C_5 
REMARK    4  A    between atoms: C_6  and  O_7 
REMARK    5  A    between atoms: C_12  and  O_13 
REMARK    6  A    between atoms: C_17  and  C_18 
ROOT
HETATM    1  C   UNL     1       6.318  26.776  53.814  1.00  0.00     0.133 C 
HETATM    2  C   UNL     1       5.911  28.100  54.530  1.00  0.00     0.073 C 
HETATM    3  C   UNL     1       4.696  28.780  53.881  1.00  0.00     0.047 C 
HETATM    4  C   UNL     1       5.653  27.934  56.058  1.00  0.00     0.097 C 
HETATM    5  C   UNL     1       6.669  27.027  56.650  1.00  0.00     0.042 A 
HETATM    6  C   UNL     1       7.501  26.154  55.981  1.00  0.00     0.030 A 
HETATM    7  C   UNL     1       8.309  25.636  57.008  1.00  0.00     0.190 A 
HETATM    8  N   UNL     1       7.988  26.081  58.217  1.00  0.00    -0.149 NA
HETATM    9  N   UNL     1       6.990  26.946  57.974  1.00  0.00    -0.279 N 
HETATM   10  H   UNL     1       6.594  27.456  58.757  1.00  0.00     0.189 HD
HETATM   11  C   UNL     1       7.504  26.023  54.493  1.00  0.00     0.074 C 
ENDROOT
BRANCH  11  12
HETATM   12  C   UNL     1       7.626  24.552  54.115  1.00  0.00    -0.048 A 
HETATM   13  C   UNL     1       8.105  24.111  52.866  1.00  0.00     0.009 A 
HETATM   14  C   UNL     1       8.239  22.748  52.586  1.00  0.00     0.024 A 
HETATM   15  C   UNL     1       7.913  21.808  53.556  1.00  0.00     0.034 A 
HETATM   16 CL   UNL     1       8.089  20.131  53.217  1.00  0.00    -0.084 Cl
HETATM   17  C   UNL     1       7.450  22.218  54.803  1.00  0.00     0.024 A 
HETATM   18  C   UNL     1       7.309  23.581  55.081  1.00  0.00     0.009 A 
ENDBRANCH  11  12
BRANCH   1  19
HETATM   19  C   UNL     1       5.123  25.891  53.526  1.00  0.00     0.267 C 
HETATM   20  O   UNL     1       4.613  25.175  54.382  1.00  0.00    -0.265 OA
BRANCH  19  21
HETATM   21  O   UNL     1       4.717  25.961  52.234  1.00  0.00    -0.321 OA
BRANCH  21  22
HETATM   22  C   UNL     1       5.721  26.360  51.288  1.00  0.00     0.174 C 
HETATM   23  C   UNL     1       5.106  26.574  49.918  1.00  0.00     0.034 C 
ENDBRANCH  21  22
ENDBRANCH  19  21
ENDBRANCH   1  19
BRANCH   2  24
HETATM   24  O   UNL     1       7.012  29.027  54.384  1.00  0.00    -0.389 OA
HETATM   25  H   UNL     1       6.880  29.770  54.999  1.00  0.00     0.210 HD
ENDBRANCH   2  24
BRANCH   7  26
HETATM   26  O   UNL     1       9.329  24.776  56.947  1.00  0.00    -0.343 OA
HETATM   27  H   UNL     1       9.098  24.039  56.362  1.00  0.00     0.219 HD
ENDBRANCH   7  26
TORSDOF 6
ENDMDL
MODEL 6
REMARK VINA RESULT:      -7.0      4.010      6.201
REMARK  6 active torsions:
REMARK  status: ('A' for Active; 'I' for Inactive)
REMARK    1  A    between atoms: C_2  and  O_3 
REMARK    2  A    between atoms: O_3  and  C_4 
REMARK    3  A    between atoms: C_4  and  C_5 
REMARK    4  A    between atoms: C_6  and  O_7 
REMARK    5  A    between atoms: C_12  and  O_13 
REMARK    6  A    between atoms: C_17  and  C_18 
ROOT
HETATM    1  C   UNL     1       7.842  25.178  55.738  1.00  0.00     0.133 C 
HETATM    2  C   UNL     1       8.441  24.494  57.005  1.00  0.00     0.073 C 
HETATM    3  C   UNL     1       8.233  25.320  58.283  1.00  0.00     0.047 C 
HETATM    4  C   UNL     1       7.922  23.043  57.239  1.00  0.00     0.097 C 
HETATM    5  C   UNL     1       7.839  22.317  55.947  1.00  0.00     0.042 A 
HETATM    6  C   UNL     1       7.847  22.863  54.679  1.00  0.00     0.030 A 
HETATM    7  C   UNL     1       7.848  21.730  53.847  1.00  0.00     0.190 A 
HETATM    8  N   UNL     1       7.785  20.580  54.507  1.00  0.00    -0.149 NA
HETATM    9  N   UNL     1       7.797  20.962  55.795  1.00  0.00    -0.279 N 
HETATM   10  H   UNL     1       7.794  20.241  56.511  1.00  0.00     0.189 HD
HETATM   11  C   UNL     1       7.972  24.331  54.435  1.00  0.00     0.074 C 
ENDROOT
BRANCH  11  12
HETATM   12  C   UNL     1       7.027  24.739  53.311  1.00  0.00    -0.048 A 
HETATM   13  C   UNL     1       5.709  24.257  53.196  1.00  0.00     0.009 A 
HETATM   14  C   UNL     1       4.868  24.697  52.170  1.00  0.00     0.024 A 
HETATM   15  C   UNL     1       5.327  25.637  51.255  1.00  0.00     0.034 A 
HETATM   16 CL   UNL     1       4.289  26.188  49.999  1.00  0.00    -0.084 Cl
HETATM   17  C   UNL     1       6.622  26.139  51.354  1.00  0.00     0.024 A 
HETATM   18  C   UNL     1       7.465  25.693  52.377  1.00  0.00     0.009 A 
ENDBRANCH  11  12
BRANCH   1  19
HETATM   19  C   UNL     1       6.443  25.707  55.980  1.00  0.00     0.267 C 
HETATM   20  O   UNL     1       5.521  24.985  56.344  1.00  0.00    -0.265 OA
BRANCH  19  21
HETATM   21  O   UNL     1       6.332  27.034  55.724  1.00  0.00    -0.321 OA
BRANCH  21  22
HETATM   22  C   UNL     1       4.991  27.533  55.599  1.00  0.00     0.174 C 
HETATM   23  C   UNL     1       4.688  27.887  54.155  1.00  0.00     0.034 C 
ENDBRANCH  21  22
ENDBRANCH  19  21
ENDBRANCH   1  19
BRANCH   2  24
HETATM   24  O   UNL     1       9.872  24.407  56.815  1.00  0.00    -0.389 OA
HETATM   25  H   UNL     1      10.106  23.486  56.604  1.00  0.00     0.210 HD
ENDBRANCH   2  24
BRANCH   7  26
HETATM   26  O   UNL     1       7.899  21.644  52.515  1.00  0.00    -0.343 OA
HETATM   27  H   UNL     1       7.458  20.833  52.225  1.00  0.00     0.219 HD
ENDBRANCH   7  26
TORSDOF 6
ENDMDL
MODEL 7
REMARK VINA RESULT:      -6.8      3.568      6.171
REMARK  6 active torsions:
REMARK  status: ('A' for Active; 'I' for Inactive)
REMARK    1  A    between atoms: C_2  and  O_3 
REMARK    2  A    between atoms: O_3  and  C_4 
REMARK    3  A    between atoms: C_4  and  C_5 
REMARK    4  A    between atoms: C_6  and  O_7 
REMARK    5  A    between atoms: C_12  and  O_13 
REMARK    6  A    between atoms: C_17  and  C_18 
ROOT
HETATM    1  C   UNL     1       7.129  27.473  55.704  1.00  0.00     0.133 C 
HETATM    2  C   UNL     1       7.717  27.478  57.148  1.00  0.00     0.073 C 
HETATM    3  C   UNL     1       7.178  28.632  58.008  1.00  0.00     0.047 C 
HETATM    4  C   UNL     1       7.522  26.133  57.911  1.00  0.00     0.097 C 
HETATM    5  C   UNL     1       7.759  24.990  56.994  1.00  0.00     0.042 A 
HETATM    6  C   UNL     1       7.789  25.016  55.615  1.00  0.00     0.030 A 
HETATM    7  C   UNL     1       8.147  23.699  55.281  1.00  0.00     0.190 A 
HETATM    8  N   UNL     1       8.274  22.895  56.331  1.00  0.00    -0.149 NA
HETATM    9  N   UNL     1       8.047  23.711  57.373  1.00  0.00    -0.279 N 
HETATM   10  H   UNL     1       8.127  23.328  58.310  1.00  0.00     0.189 HD
HETATM   11  C   UNL     1       7.601  26.272  54.829  1.00  0.00     0.074 C 
ENDROOT
BRANCH  11  12
HETATM   12  C   UNL     1       6.725  25.982  53.616  1.00  0.00    -0.048 A 
HETATM   13  C   UNL     1       5.678  25.040  53.624  1.00  0.00     0.009 A 
HETATM   14  C   UNL     1       4.875  24.845  52.497  1.00  0.00     0.024 A 
HETATM   15  C   UNL     1       5.097  25.599  51.351  1.00  0.00     0.034 A 
HETATM   16 CL   UNL     1       4.102  25.368  49.968  1.00  0.00    -0.084 Cl
HETATM   17  C   UNL     1       6.117  26.546  51.321  1.00  0.00     0.024 A 
HETATM   18  C   UNL     1       6.924  26.737  52.447  1.00  0.00     0.009 A 
ENDBRANCH  11  12
BRANCH   1  19
HETATM   19  C   UNL     1       5.627  27.675  55.697  1.00  0.00     0.267 C 
HETATM   20  O   UNL     1       4.863  26.950  56.324  1.00  0.00    -0.265 OA
BRANCH  19  21
HETATM   21  O   UNL     1       5.241  28.709  54.910  1.00  0.00    -0.321 OA
BRANCH  21  22
HETATM   22  C   UNL     1       4.074  28.476  54.105  1.00  0.00     0.174 C 
HETATM   23  C   UNL     1       3.591  29.772  53.482  1.00  0.00     0.034 C 
ENDBRANCH  21  22
ENDBRANCH  19  21
ENDBRANCH   1  19
BRANCH   2  24
HETATM   24  O   UNL     1       9.142  27.699  57.034  1.00  0.00    -0.389 OA
HETATM   25  H   UNL     1       9.299  28.408  56.386  1.00  0.00     0.210 HD
ENDBRANCH   2  24
BRANCH   7  26
HETATM   26  O   UNL     1       8.371  23.147  54.085  1.00  0.00    -0.343 OA
HETATM   27  H   UNL     1       7.539  23.088  53.594  1.00  0.00     0.219 HD
ENDBRANCH   7  26
TORSDOF 6
ENDMDL
MODEL 8
REMARK VINA RESULT:      -6.6      8.412     11.097
REMARK  6 active torsions:
REMARK  status: ('A' for Active; 'I' for Inactive)
REMARK    1  A    between atoms: C_2  and  O_3 
REMARK    2  A    between atoms: O_3  and  C_4 
REMARK    3  A    between atoms: C_4  and  C_5 
REMARK    4  A    between atoms: C_6  and  O_7 
REMARK    5  A    between atoms: C_12  and  O_13 
REMARK    6  A    between atoms: C_17  and  C_18 
ROOT
HETATM    1  C   UNL     1       3.800  33.869  61.638  1.00  0.00     0.133 C 
HETATM    2  C   UNL     1       3.505  33.689  60.117  1.00  0.00     0.073 C 
HETATM    3  C   UNL     1       2.617  34.805  59.546  1.00  0.00     0.047 C 
HETATM    4  C   UNL     1       4.785  33.551  59.240  1.00  0.00     0.097 C 
HETATM    5  C   UNL     1       5.784  32.696  59.930  1.00  0.00     0.042 A 
HETATM    6  C   UNL     1       5.808  32.348  61.265  1.00  0.00     0.030 A 
HETATM    7  C   UNL     1       6.894  31.459  61.341  1.00  0.00     0.190 A 
HETATM    8  N   UNL     1       7.539  31.301  60.191  1.00  0.00    -0.149 NA
HETATM    9  N   UNL     1       6.832  32.056  59.334  1.00  0.00    -0.279 N 
HETATM   10  H   UNL     1       7.113  32.068  58.359  1.00  0.00     0.189 HD
HETATM   11  C   UNL     1       4.759  32.791  62.231  1.00  0.00     0.074 C 
ENDROOT
BRANCH  11  12
HETATM   12  C   UNL     1       5.419  33.180  63.549  1.00  0.00    -0.048 A 
HETATM   13  C   UNL     1       6.775  33.543  63.658  1.00  0.00     0.009 A 
HETATM   14  C   UNL     1       7.320  33.935  64.884  1.00  0.00     0.024 A 
HETATM   15  C   UNL     1       6.514  33.984  66.015  1.00  0.00     0.034 A 
HETATM   16 CL   UNL     1       7.181  34.476  67.522  1.00  0.00    -0.084 Cl
HETATM   17  C   UNL     1       5.167  33.642  65.932  1.00  0.00     0.024 A 
HETATM   18  C   UNL     1       4.623  33.243  64.706  1.00  0.00     0.009 A 
ENDBRANCH  11  12
BRANCH   1  19
HETATM   19  C   UNL     1       4.200  35.290  61.979  1.00  0.00     0.267 C 
HETATM   20  O   UNL     1       5.191  35.828  61.498  1.00  0.00    -0.265 OA
BRANCH  19  21
HETATM   21  O   UNL     1       3.367  35.866  62.881  1.00  0.00    -0.321 OA
BRANCH  21  22
HETATM   22  C   UNL     1       3.787  37.143  63.387  1.00  0.00     0.174 C 
HETATM   23  C   UNL     1       4.720  36.966  64.569  1.00  0.00     0.034 C 
ENDBRANCH  21  22
ENDBRANCH  19  21
ENDBRANCH   1  19
BRANCH   2  24
HETATM   24  O   UNL     1       2.751  32.464  59.965  1.00  0.00    -0.389 OA
HETATM   25  H   UNL     1       3.374  31.721  59.875  1.00  0.00     0.210 HD
ENDBRANCH   2  24
BRANCH   7  26
HETATM   26  O   UNL     1       7.365  30.767  62.382  1.00  0.00    -0.343 OA
HETATM   27  H   UNL     1       6.808  30.927  63.158  1.00  0.00     0.219 HD
ENDBRANCH   7  26
TORSDOF 6
ENDMDL
MODEL 9
REMARK VINA RESULT:      -6.6      9.004     11.510
REMARK  6 active torsions:
REMARK  status: ('A' for Active; 'I' for Inactive)
REMARK    1  A    between atoms: C_2  and  O_3 
REMARK    2  A    between atoms: O_3  and  C_4 
REMARK    3  A    between atoms: C_4  and  C_5 
REMARK    4  A    between atoms: C_6  and  O_7 
REMARK    5  A    between atoms: C_12  and  O_13 
REMARK    6  A    between atoms: C_17  and  C_18 
ROOT
HETATM    1  C   UNL     1       4.029  34.133  62.197  1.00  0.00     0.133 C 
HETATM    2  C   UNL     1       2.818  34.764  62.948  1.00  0.00     0.073 C 
HETATM    3  C   UNL     1       1.484  34.548  62.218  1.00  0.00     0.047 C 
HETATM    4  C   UNL     1       2.678  34.289  64.426  1.00  0.00     0.097 C 
HETATM    5  C   UNL     1       4.016  34.212  65.064  1.00  0.00     0.042 A 
HETATM    6  C   UNL     1       5.243  34.191  64.434  1.00  0.00     0.030 A 
HETATM    7  C   UNL     1       6.151  34.215  65.507  1.00  0.00     0.190 A 
HETATM    8  N   UNL     1       5.570  34.191  66.701  1.00  0.00    -0.149 NA
HETATM    9  N   UNL     1       4.259  34.206  66.407  1.00  0.00    -0.279 N 
HETATM   10  H   UNL     1       3.595  34.231  67.174  1.00  0.00     0.189 HD
HETATM   11  C   UNL     1       5.388  34.273  62.949  1.00  0.00     0.074 C 
ENDROOT
BRANCH  11  12
HETATM   12  C   UNL     1       6.473  33.304  62.494  1.00  0.00    -0.048 A 
HETATM   13  C   UNL     1       6.789  32.117  63.181  1.00  0.00     0.009 A 
HETATM   14  C   UNL     1       7.764  31.240  62.696  1.00  0.00     0.024 A 
HETATM   15  C   UNL     1       8.424  31.530  61.508  1.00  0.00     0.034 A 
HETATM   16 CL   UNL     1       9.615  30.447  60.903  1.00  0.00    -0.084 Cl
HETATM   17  C   UNL     1       8.121  32.691  60.802  1.00  0.00     0.024 A 
HETATM   18  C   UNL     1       7.151  33.572  61.291  1.00  0.00     0.009 A 
ENDBRANCH  11  12
BRANCH   1  19
HETATM   19  C   UNL     1       3.739  32.722  61.726  1.00  0.00     0.267 C 
HETATM   20  O   UNL     1       3.448  31.817  62.501  1.00  0.00    -0.265 OA
BRANCH  19  21
HETATM   21  O   UNL     1       3.867  32.581  60.384  1.00  0.00    -0.321 OA
BRANCH  21  22
HETATM   22  C   UNL     1       3.849  33.800  59.625  1.00  0.00     0.174 C 
HETATM   23  C   UNL     1       4.731  33.676  58.397  1.00  0.00     0.034 C 
ENDBRANCH  21  22
ENDBRANCH  19  21
ENDBRANCH   1  19
BRANCH   2  24
HETATM   24  O   UNL     1       3.026  36.195  62.981  1.00  0.00    -0.389 OA
HETATM   25  H   UNL     1       3.731  36.396  63.621  1.00  0.00     0.210 HD
ENDBRANCH   2  24
BRANCH   7  26
HETATM   26  O   UNL     1       7.486  34.254  65.500  1.00  0.00    -0.343 OA
HETATM   27  H   UNL     1       7.838  33.368  65.671  1.00  0.00     0.219 HD
ENDBRANCH   7  26
TORSDOF 6
ENDMDL
MODEL 10
REMARK VINA RESULT:      -6.6      6.402      8.949
REMARK  6 active torsions:
REMARK  status: ('A' for Active; 'I' for Inactive)
REMARK    1  A    between atoms: C_2  and  O_3 
REMARK    2  A    between atoms: O_3  and  C_4 
REMARK    3  A    between atoms: C_4  and  C_5 
REMARK    4  A    between atoms: C_6  and  O_7 
REMARK    5  A    between atoms: C_12  and  O_13 
REMARK    6  A    between atoms: C_17  and  C_18 
ROOT
HETATM    1  C   UNL     1       7.719  32.676  60.891  1.00  0.00     0.133 C 
HETATM    2  C   UNL     1       8.923  31.851  60.343  1.00  0.00     0.073 C 
HETATM    3  C   UNL     1      10.050  31.684  61.374  1.00  0.00     0.047 C 
HETATM    4  C   UNL     1       8.524  30.451  59.787  1.00  0.00     0.097 C 
HETATM    5  C   UNL     1       7.256  30.550  59.021  1.00  0.00     0.042 A 
HETATM    6  C   UNL     1       6.337  31.579  59.055  1.00  0.00     0.030 A 
HETATM    7  C   UNL     1       5.402  31.202  58.076  1.00  0.00     0.190 A 
HETATM    8  N   UNL     1       5.658  30.025  57.516  1.00  0.00    -0.149 NA
HETATM    9  N   UNL     1       6.809  29.649  58.099  1.00  0.00    -0.279 N 
HETATM   10  H   UNL     1       7.237  28.778  57.801  1.00  0.00     0.189 HD
HETATM   11  C   UNL     1       6.527  32.801  59.893  1.00  0.00     0.074 C 
ENDROOT
BRANCH  11  12
HETATM   12  C   UNL     1       5.197  33.187  60.531  1.00  0.00    -0.048 A 
HETATM   13  C   UNL     1       4.316  32.253  61.108  1.00  0.00     0.009 A 
HETATM   14  C   UNL     1       3.129  32.665  61.721  1.00  0.00     0.024 A 
HETATM   15  C   UNL     1       2.814  34.017  61.779  1.00  0.00     0.034 A 
HETATM   16 CL   UNL     1       1.360  34.526  62.542  1.00  0.00    -0.084 Cl
HETATM   17  C   UNL     1       3.675  34.962  61.227  1.00  0.00     0.024 A 
HETATM   18  C   UNL     1       4.859  34.550  60.608  1.00  0.00     0.009 A 
ENDBRANCH  11  12
BRANCH   1  19
HETATM   19  C   UNL     1       7.304  32.232  62.278  1.00  0.00     0.267 C 
HETATM   20  O   UNL     1       6.971  31.078  62.528  1.00  0.00    -0.265 OA
BRANCH  19  21
HETATM   21  O   UNL     1       7.316  33.245  63.179  1.00  0.00    -0.321 OA
BRANCH  21  22
HETATM   22  C   UNL     1       6.251  33.233  64.143  1.00  0.00     0.174 C 
HETATM   23  C   UNL     1       5.687  34.629  64.330  1.00  0.00     0.034 C 
ENDBRANCH  21  22
ENDBRANCH  19  21
ENDBRANCH   1  19
BRANCH   2  24
HETATM   24  O   UNL     1       9.496  32.597  59.244  1.00  0.00    -0.389 OA
HETATM   25  H   UNL     1      10.305  33.040  59.554  1.00  0.00     0.210 HD
ENDBRANCH   2  24
BRANCH   7  26
HETATM   26  O   UNL     1       4.314  31.839  57.638  1.00  0.00    -0.343 OA
HETATM   27  H   UNL     1       3.521  31.382  57.952  1.00  0.00     0.219 HD
ENDBRANCH   7  26
TORSDOF 6
ENDMDL
