MODEL 1
REMARK VINA RESULT:     -10.9      0.000      0.000
REMARK  3 active torsions:
REMARK  status: ('A' for Active; 'I' for Inactive)
REMARK    1  A    between atoms: O_2  and  C_3 
REMARK       I    between atoms: N_13  and  C_14 
REMARK       I    between atoms: C_14  and  N_15 
REMARK    2  A    between atoms: N_15  and  C_16 
REMARK    3  A    between atoms: C_22  and  C_23 
ROOT
HETATM    1  C   UNL     1       5.142  31.770  57.622  1.00  0.00     0.069 A 
HETATM    2  C   UNL     1       6.070  30.726  57.730  1.00  0.00     0.051 A 
HETATM    3  C   UNL     1       5.766  29.459  57.194  1.00  0.00     0.002 A 
HETATM    4  C   UNL     1       4.522  29.266  56.592  1.00  0.00     0.043 A 
HETATM    5  N   UNL     1       4.480  27.964  56.140  1.00  0.00    -0.356 N 
HETATM    6  H   UNL     1       3.706  27.562  55.629  1.00  0.00     0.166 HD
HETATM    7  C   UNL     1       5.683  27.348  56.377  1.00  0.00     0.045 A 
HETATM    8  C   UNL     1       6.476  28.239  57.070  1.00  0.00    -0.019 A 
HETATM    9  C   UNL     1       7.850  27.871  57.480  1.00  0.00     0.061 C 
HETATM   10  C   UNL     1       7.971  26.341  57.514  1.00  0.00     0.133 C 
HETATM   11  N   UNL     1       7.474  25.667  56.291  1.00  0.00    -0.320 N 
HETATM   12  C   UNL     1       8.012  24.384  56.124  1.00  0.00     0.319 C 
HETATM   13  N   UNL     1       7.721  23.788  54.927  1.00  0.00    -0.338 N 
HETATM   14  O   UNL     1       8.738  23.854  56.962  1.00  0.00    -0.247 OA
HETATM   15  C   UNL     1       6.061  25.968  55.891  1.00  0.00     0.172 C 
HETATM   16  C   UNL     1       3.567  30.284  56.503  1.00  0.00     0.033 A 
HETATM   17  C   UNL     1       3.901  31.542  57.026  1.00  0.00     0.039 A 
HETATM   18  H   UNL     1       7.608  24.458  54.183  1.00  0.00     0.164 HD
ENDROOT
BRANCH  15  19
HETATM   19  C   UNL     1       5.795  25.890  54.389  1.00  0.00    -0.029 A 
HETATM   20  C   UNL     1       6.415  26.803  53.515  1.00  0.00     0.012 A 
HETATM   21  C   UNL     1       6.184  26.733  52.140  1.00  0.00     0.043 A 
HETATM   22  C   UNL     1       5.340  25.751  51.635  1.00  0.00     0.116 A 
HETATM   23  F   UNL     1       5.122  25.686  50.315  1.00  0.00    -0.206 F 
HETATM   24  C   UNL     1       4.720  24.836  52.477  1.00  0.00     0.043 A 
HETATM   25  C   UNL     1       4.946  24.904  53.852  1.00  0.00     0.012 A 
ENDBRANCH  15  19
BRANCH  13  26
HETATM   26  C   UNL     1       8.289  22.532  54.477  1.00  0.00     0.086 C 
HETATM   27  C   UNL     1       7.846  21.309  55.276  1.00  0.00     0.025 C 
HETATM   28  C   UNL     1       8.356  20.155  54.427  1.00  0.00     0.002 C 
HETATM   29  C   UNL     1       8.209  20.625  52.980  1.00  0.00     0.002 C 
HETATM   30  C   UNL     1       8.016  22.143  53.027  1.00  0.00     0.025 C 
ENDBRANCH  13  26
BRANCH   1  31
HETATM   31  O   UNL     1       5.565  32.961  58.148  1.00  0.00    -0.356 OA
HETATM   32  C   UNL     1       4.632  34.033  58.117  1.00  0.00     0.210 C 
ENDBRANCH   1  31
TORSDOF 3
ENDMDL
MODEL 2
REMARK VINA RESULT:      -9.9      2.971      8.373
REMARK  3 active torsions:
REMARK  status: ('A' for Active; 'I' for Inactive)
REMARK    1  A    between atoms: O_2  and  C_3 
REMARK       I    between atoms: N_13  and  C_14 
REMARK       I    between atoms: C_14  and  N_15 
REMARK    2  A    between atoms: N_15  and  C_16 
REMARK    3  A    between atoms: C_22  and  C_23 
ROOT
HETATM    1  C   UNL     1       8.515  21.486  54.721  1.00  0.00     0.069 A 
HETATM    2  C   UNL     1       7.681  22.371  54.027  1.00  0.00     0.051 A 
HETATM    3  C   UNL     1       7.130  23.483  54.692  1.00  0.00     0.002 A 
HETATM    4  C   UNL     1       7.406  23.658  56.049  1.00  0.00     0.043 A 
HETATM    5  N   UNL     1       6.771  24.813  56.453  1.00  0.00    -0.356 N 
HETATM    6  H   UNL     1       6.832  25.202  57.385  1.00  0.00     0.166 HD
HETATM    7  C   UNL     1       6.157  25.410  55.381  1.00  0.00     0.045 A 
HETATM    8  C   UNL     1       6.326  24.580  54.292  1.00  0.00    -0.019 A 
HETATM    9  C   UNL     1       5.774  24.945  52.968  1.00  0.00     0.061 C 
HETATM   10  C   UNL     1       4.639  25.960  53.160  1.00  0.00     0.133 C 
HETATM   11  N   UNL     1       4.991  27.104  54.035  1.00  0.00    -0.320 N 
HETATM   12  C   UNL     1       4.171  28.220  53.821  1.00  0.00     0.319 C 
HETATM   13  N   UNL     1       4.562  29.355  54.477  1.00  0.00    -0.338 N 
HETATM   14  O   UNL     1       3.209  28.201  53.057  1.00  0.00    -0.247 OA
HETATM   15  C   UNL     1       5.487  26.764  55.408  1.00  0.00     0.172 C 
HETATM   16  C   UNL     1       8.209  22.769  56.770  1.00  0.00     0.033 A 
HETATM   17  C   UNL     1       8.763  21.681  56.081  1.00  0.00     0.039 A 
HETATM   18  H   UNL     1       5.560  29.400  54.607  1.00  0.00     0.164 HD
ENDROOT
BRANCH  15  19
HETATM   19  C   UNL     1       6.464  27.779  55.999  1.00  0.00    -0.029 A 
HETATM   20  C   UNL     1       6.216  28.342  57.266  1.00  0.00     0.012 A 
HETATM   21  C   UNL     1       7.109  29.263  57.816  1.00  0.00     0.043 A 
HETATM   22  C   UNL     1       8.251  29.620  57.108  1.00  0.00     0.116 A 
HETATM   23  F   UNL     1       9.106  30.503  57.641  1.00  0.00    -0.206 F 
HETATM   24  C   UNL     1       8.520  29.074  55.859  1.00  0.00     0.043 A 
HETATM   25  C   UNL     1       7.629  28.155  55.304  1.00  0.00     0.012 A 
ENDBRANCH  15  19
BRANCH  13  26
HETATM   26  C   UNL     1       3.957  30.660  54.290  1.00  0.00     0.086 C 
HETATM   27  C   UNL     1       4.428  31.729  55.272  1.00  0.00     0.025 C 
HETATM   28  C   UNL     1       3.860  33.006  54.671  1.00  0.00     0.002 C 
HETATM   29  C   UNL     1       3.934  32.805  53.157  1.00  0.00     0.002 C 
HETATM   30  C   UNL     1       4.147  31.307  52.921  1.00  0.00     0.025 C 
ENDBRANCH  13  26
BRANCH   1  31
HETATM   31  O   UNL     1       9.019  20.465  53.959  1.00  0.00    -0.356 OA
HETATM   32  C   UNL     1       8.400  20.252  52.698  1.00  0.00     0.210 C 
ENDBRANCH   1  31
TORSDOF 3
ENDMDL
MODEL 3
REMARK VINA RESULT:      -9.6      2.770      8.626
REMARK  3 active torsions:
REMARK  status: ('A' for Active; 'I' for Inactive)
REMARK    1  A    between atoms: O_2  and  C_3 
REMARK       I    between atoms: N_13  and  C_14 
REMARK       I    between atoms: C_14  and  N_15 
REMARK    2  A    between atoms: N_15  and  C_16 
REMARK    3  A    between atoms: C_22  and  C_23 
ROOT
HETATM    1  C   UNL     1       8.396  22.575  53.915  1.00  0.00     0.069 A 
HETATM    2  C   UNL     1       7.502  23.614  53.628  1.00  0.00     0.051 A 
HETATM    3  C   UNL     1       7.246  24.607  54.594  1.00  0.00     0.002 A 
HETATM    4  C   UNL     1       7.873  24.510  55.838  1.00  0.00     0.043 A 
HETATM    5  N   UNL     1       7.475  25.597  56.586  1.00  0.00    -0.356 N 
HETATM    6  H   UNL     1       7.807  25.801  57.519  1.00  0.00     0.166 HD
HETATM    7  C   UNL     1       6.669  26.413  55.833  1.00  0.00     0.045 A 
HETATM    8  C   UNL     1       6.476  25.796  54.615  1.00  0.00    -0.019 A 
HETATM    9  C   UNL     1       5.643  26.430  53.567  1.00  0.00     0.061 C 
HETATM   10  C   UNL     1       4.696  27.443  54.224  1.00  0.00     0.133 C 
HETATM   11  N   UNL     1       5.366  28.384  55.153  1.00  0.00    -0.320 N 
HETATM   12  C   UNL     1       4.629  29.559  55.357  1.00  0.00     0.319 C 
HETATM   13  N   UNL     1       5.281  30.530  56.068  1.00  0.00    -0.338 N 
HETATM   14  O   UNL     1       3.508  29.730  54.886  1.00  0.00    -0.247 OA
HETATM   15  C   UNL     1       6.160  27.769  56.266  1.00  0.00     0.172 C 
HETATM   16  C   UNL     1       8.744  23.463  56.157  1.00  0.00     0.033 A 
HETATM   17  C   UNL     1       8.998  22.499  55.172  1.00  0.00     0.039 A 
HETATM   18  H   UNL     1       6.279  30.501  55.932  1.00  0.00     0.164 HD
ENDROOT
BRANCH  15  19
HETATM   19  C   UNL     1       7.347  28.607  56.738  1.00  0.00    -0.029 A 
HETATM   20  C   UNL     1       7.399  29.072  58.066  1.00  0.00     0.012 A 
HETATM   21  C   UNL     1       8.485  29.830  58.506  1.00  0.00     0.043 A 
HETATM   22  C   UNL     1       9.522  30.121  57.626  1.00  0.00     0.116 A 
HETATM   23  F   UNL     1      10.563  30.848  58.054  1.00  0.00    -0.206 F 
HETATM   24  C   UNL     1       9.495  29.669  56.313  1.00  0.00     0.043 A 
HETATM   25  C   UNL     1       8.411  28.913  55.868  1.00  0.00     0.012 A 
ENDBRANCH  15  19
BRANCH  13  26
HETATM   26  C   UNL     1       4.775  31.874  56.272  1.00  0.00     0.086 C 
HETATM   27  C   UNL     1       5.302  32.571  57.523  1.00  0.00     0.025 C 
HETATM   28  C   UNL     1       4.841  34.006  57.324  1.00  0.00     0.002 C 
HETATM   29  C   UNL     1       4.931  34.251  55.817  1.00  0.00     0.002 C 
HETATM   30  C   UNL     1       5.039  32.877  55.152  1.00  0.00     0.025 C 
ENDBRANCH  13  26
BRANCH   1  31
HETATM   31  O   UNL     1       8.590  21.694  52.885  1.00  0.00    -0.356 OA
HETATM   32  C   UNL     1       8.150  20.360  53.103  1.00  0.00     0.210 C 
ENDBRANCH   1  31
TORSDOF 3
ENDMDL
MODEL 4
REMARK VINA RESULT:      -9.5      7.012     10.914
REMARK  3 active torsions:
REMARK  status: ('A' for Active; 'I' for Inactive)
REMARK    1  A    between atoms: O_2  and  C_3 
REMARK       I    between atoms: N_13  and  C_14 
REMARK       I    between atoms: C_14  and  N_15 
REMARK    2  A    between atoms: N_15  and  C_16 
REMARK    3  A    between atoms: C_22  and  C_23 
ROOT
HETATM    1  C   UNL     1       6.460  34.681  68.094  1.00  0.00     0.069 A 
HETATM    2  C   UNL     1       7.091  34.174  66.951  1.00  0.00     0.051 A 
HETATM    3  C   UNL     1       6.318  33.746  65.855  1.00  0.00     0.002 A 
HETATM    4  C   UNL     1       4.927  33.807  65.950  1.00  0.00     0.043 A 
HETATM    5  N   UNL     1       4.412  33.352  64.755  1.00  0.00    -0.356 N 
HETATM    6  H   UNL     1       3.426  33.323  64.532  1.00  0.00     0.166 HD
HETATM    7  C   UNL     1       5.432  33.067  63.883  1.00  0.00     0.045 A 
HETATM    8  C   UNL     1       6.619  33.258  64.558  1.00  0.00    -0.019 A 
HETATM    9  C   UNL     1       7.919  33.031  63.886  1.00  0.00     0.061 C 
HETATM   10  C   UNL     1       7.707  32.104  62.683  1.00  0.00     0.133 C 
HETATM   11  N   UNL     1       6.597  32.515  61.790  1.00  0.00    -0.320 N 
HETATM   12  C   UNL     1       6.716  31.984  60.499  1.00  0.00     0.319 C 
HETATM   13  N   UNL     1       5.815  32.469  59.591  1.00  0.00    -0.338 N 
HETATM   14  O   UNL     1       7.598  31.187  60.187  1.00  0.00    -0.247 OA
HETATM   15  C   UNL     1       5.253  32.684  62.432  1.00  0.00     0.172 C 
HETATM   16  C   UNL     1       4.275  34.278  67.094  1.00  0.00     0.033 A 
HETATM   17  C   UNL     1       5.066  34.719  68.164  1.00  0.00     0.039 A 
HETATM   18  H   UNL     1       5.540  33.417  59.792  1.00  0.00     0.164 HD
ENDROOT
BRANCH  15  19
HETATM   19  C   UNL     1       4.355  33.723  61.762  1.00  0.00    -0.029 A 
HETATM   20  C   UNL     1       3.068  33.362  61.320  1.00  0.00     0.012 A 
HETATM   21  C   UNL     1       2.239  34.308  60.715  1.00  0.00     0.043 A 
HETATM   22  C   UNL     1       2.688  35.614  60.555  1.00  0.00     0.116 A 
HETATM   23  F   UNL     1       1.888  36.518  59.975  1.00  0.00    -0.206 F 
HETATM   24  C   UNL     1       3.951  35.994  60.988  1.00  0.00     0.043 A 
HETATM   25  C   UNL     1       4.785  35.052  61.591  1.00  0.00     0.012 A 
ENDBRANCH  15  19
BRANCH  13  26
HETATM   26  C   UNL     1       5.844  32.177  58.171  1.00  0.00     0.086 C 
HETATM   27  C   UNL     1       5.315  30.797  57.792  1.00  0.00     0.025 C 
HETATM   28  C   UNL     1       5.206  30.885  56.278  1.00  0.00     0.002 C 
HETATM   29  C   UNL     1       4.795  32.329  55.989  1.00  0.00     0.002 C 
HETATM   30  C   UNL     1       5.069  33.130  57.264  1.00  0.00     0.025 C 
ENDBRANCH  13  26
BRANCH   1  31
HETATM   31  O   UNL     1       7.317  35.099  69.077  1.00  0.00    -0.356 OA
HETATM   32  C   UNL     1       6.752  35.300  70.366  1.00  0.00     0.210 C 
ENDBRANCH   1  31
TORSDOF 3
ENDMDL
MODEL 5
REMARK VINA RESULT:      -9.3      2.133      7.798
REMARK  3 active torsions:
REMARK  status: ('A' for Active; 'I' for Inactive)
REMARK    1  A    between atoms: O_2  and  C_3 
REMARK       I    between atoms: N_13  and  C_14 
REMARK       I    between atoms: C_14  and  N_15 
REMARK    2  A    between atoms: N_15  and  C_16 
REMARK    3  A    between atoms: C_22  and  C_23 
ROOT
HETATM    1  C   UNL     1       7.892  21.759  54.631  1.00  0.00     0.069 A 
HETATM    2  C   UNL     1       7.695  22.828  55.516  1.00  0.00     0.051 A 
HETATM    3  C   UNL     1       7.603  24.142  55.018  1.00  0.00     0.002 A 
HETATM    4  C   UNL     1       7.744  24.352  53.646  1.00  0.00     0.043 A 
HETATM    5  N   UNL     1       7.597  25.704  53.418  1.00  0.00    -0.356 N 
HETATM    6  H   UNL     1       7.616  26.134  52.503  1.00  0.00     0.166 HD
HETATM    7  C   UNL     1       7.303  26.347  54.593  1.00  0.00     0.045 A 
HETATM    8  C   UNL     1       7.348  25.408  55.602  1.00  0.00    -0.019 A 
HETATM    9  C   UNL     1       7.073  25.790  57.007  1.00  0.00     0.061 C 
HETATM   10  C   UNL     1       7.297  27.299  57.169  1.00  0.00     0.133 C 
HETATM   11  N   UNL     1       6.617  28.127  56.144  1.00  0.00    -0.320 N 
HETATM   12  C   UNL     1       6.422  29.450  56.561  1.00  0.00     0.319 C 
HETATM   13  N   UNL     1       5.649  30.208  55.725  1.00  0.00    -0.338 N 
HETATM   14  O   UNL     1       6.861  29.884  57.623  1.00  0.00    -0.247 OA
HETATM   15  C   UNL     1       6.932  27.807  54.714  1.00  0.00     0.172 C 
HETATM   16  C   UNL     1       7.974  23.304  52.748  1.00  0.00     0.033 A 
HETATM   17  C   UNL     1       8.042  22.003  53.265  1.00  0.00     0.039 A 
HETATM   18  H   UNL     1       4.960  29.659  55.236  1.00  0.00     0.164 HD
ENDROOT
BRANCH  15  19
HETATM   19  C   UNL     1       5.799  28.104  53.732  1.00  0.00    -0.029 A 
HETATM   20  C   UNL     1       6.079  28.720  52.498  1.00  0.00     0.012 A 
HETATM   21  C   UNL     1       5.050  28.986  51.593  1.00  0.00     0.043 A 
HETATM   22  C   UNL     1       3.744  28.635  51.914  1.00  0.00     0.116 A 
HETATM   23  F   UNL     1       2.760  28.892  51.042  1.00  0.00    -0.206 F 
HETATM   24  C   UNL     1       3.444  28.023  53.124  1.00  0.00     0.043 A 
HETATM   25  C   UNL     1       4.468  27.757  54.033  1.00  0.00     0.012 A 
ENDBRANCH  15  19
BRANCH  13  26
HETATM   26  C   UNL     1       5.193  31.553  56.024  1.00  0.00     0.086 C 
HETATM   27  C   UNL     1       4.605  32.306  54.835  1.00  0.00     0.025 C 
HETATM   28  C   UNL     1       3.977  33.526  55.491  1.00  0.00     0.002 C 
HETATM   29  C   UNL     1       3.450  33.031  56.838  1.00  0.00     0.002 C 
HETATM   30  C   UNL     1       4.125  31.683  57.107  1.00  0.00     0.025 C 
ENDBRANCH  13  26
BRANCH   1  31
HETATM   31  O   UNL     1       7.929  20.528  55.229  1.00  0.00    -0.356 OA
HETATM   32  C   UNL     1       8.855  20.370  56.296  1.00  0.00     0.210 C 
ENDBRANCH   1  31
TORSDOF 3
ENDMDL
MODEL 6
REMARK VINA RESULT:      -8.9      3.348      5.380
REMARK  3 active torsions:
REMARK  status: ('A' for Active; 'I' for Inactive)
REMARK    1  A    between atoms: O_2  and  C_3 
REMARK       I    between atoms: N_13  and  C_14 
REMARK       I    between atoms: C_14  and  N_15 
REMARK    2  A    between atoms: N_15  and  C_16 
REMARK    3  A    between atoms: C_22  and  C_23 
ROOT
HETATM    1  C   UNL     1       7.648  32.277  61.509  1.00  0.00     0.069 A 
HETATM    2  C   UNL     1       6.809  32.171  60.392  1.00  0.00     0.051 A 
HETATM    3  C   UNL     1       7.159  31.314  59.331  1.00  0.00     0.002 A 
HETATM    4  C   UNL     1       8.362  30.610  59.405  1.00  0.00     0.043 A 
HETATM    5  N   UNL     1       8.460  29.841  58.265  1.00  0.00    -0.356 N 
HETATM    6  H   UNL     1       9.218  29.199  58.073  1.00  0.00     0.166 HD
HETATM    7  C   UNL     1       7.328  29.985  57.504  1.00  0.00     0.045 A 
HETATM    8  C   UNL     1       6.531  30.927  58.120  1.00  0.00    -0.019 A 
HETATM    9  C   UNL     1       5.224  31.311  57.540  1.00  0.00     0.061 C 
HETATM   10  C   UNL     1       5.216  30.963  56.046  1.00  0.00     0.133 C 
HETATM   11  N   UNL     1       5.661  29.581  55.743  1.00  0.00    -0.320 N 
HETATM   12  C   UNL     1       5.205  29.127  54.498  1.00  0.00     0.319 C 
HETATM   13  N   UNL     1       5.441  27.803  54.247  1.00  0.00    -0.338 N 
HETATM   14  O   UNL     1       4.588  29.845  53.715  1.00  0.00    -0.247 OA
HETATM   15  C   UNL     1       7.012  29.188  56.259  1.00  0.00     0.172 C 
HETATM   16  C   UNL     1       9.230  30.726  60.495  1.00  0.00     0.033 A 
HETATM   17  C   UNL     1       8.850  31.569  61.548  1.00  0.00     0.039 A 
HETATM   18  H   UNL     1       5.446  27.247  55.087  1.00  0.00     0.164 HD
ENDROOT
BRANCH  15  19
HETATM   19  C   UNL     1       7.162  27.702  56.581  1.00  0.00    -0.029 A 
HETATM   20  C   UNL     1       6.070  26.979  57.099  1.00  0.00     0.012 A 
HETATM   21  C   UNL     1       6.198  25.619  57.387  1.00  0.00     0.043 A 
HETATM   22  C   UNL     1       7.408  24.978  57.154  1.00  0.00     0.116 A 
HETATM   23  F   UNL     1       7.525  23.673  57.431  1.00  0.00    -0.206 F 
HETATM   24  C   UNL     1       8.498  25.669  56.639  1.00  0.00     0.043 A 
HETATM   25  C   UNL     1       8.377  27.029  56.352  1.00  0.00     0.012 A 
ENDBRANCH  15  19
BRANCH  13  26
HETATM   26  C   UNL     1       4.931  27.084  53.095  1.00  0.00     0.086 C 
HETATM   27  C   UNL     1       5.697  27.330  51.799  1.00  0.00     0.025 C 
HETATM   28  C   UNL     1       5.132  26.264  50.872  1.00  0.00     0.002 C 
HETATM   29  C   UNL     1       4.861  25.055  51.767  1.00  0.00     0.002 C 
HETATM   30  C   UNL     1       4.881  25.562  53.211  1.00  0.00     0.025 C 
ENDBRANCH  13  26
BRANCH   1  31
HETATM   31  O   UNL     1       7.183  33.112  62.490  1.00  0.00    -0.356 OA
HETATM   32  C   UNL     1       7.609  32.827  63.816  1.00  0.00     0.210 C 
ENDBRANCH   1  31
TORSDOF 3
ENDMDL
MODEL 7
REMARK VINA RESULT:      -8.5      3.700      8.259
REMARK  3 active torsions:
REMARK  status: ('A' for Active; 'I' for Inactive)
REMARK    1  A    between atoms: O_2  and  C_3 
REMARK       I    between atoms: N_13  and  C_14 
REMARK       I    between atoms: C_14  and  N_15 
REMARK    2  A    between atoms: N_15  and  C_16 
REMARK    3  A    between atoms: C_22  and  C_23 
ROOT
HETATM    1  C   UNL     1       7.600  22.577  54.723  1.00  0.00     0.069 A 
HETATM    2  C   UNL     1       6.889  23.769  54.913  1.00  0.00     0.051 A 
HETATM    3  C   UNL     1       6.843  24.730  53.885  1.00  0.00     0.002 A 
HETATM    4  C   UNL     1       7.543  24.483  52.703  1.00  0.00     0.043 A 
HETATM    5  N   UNL     1       7.325  25.554  51.863  1.00  0.00    -0.356 N 
HETATM    6  H   UNL     1       7.685  25.623  50.920  1.00  0.00     0.166 HD
HETATM    7  C   UNL     1       6.458  26.440  52.450  1.00  0.00     0.045 A 
HETATM    8  C   UNL     1       6.184  25.974  53.718  1.00  0.00    -0.019 A 
HETATM    9  C   UNL     1       5.270  26.715  54.618  1.00  0.00     0.061 C 
HETATM   10  C   UNL     1       5.189  28.176  54.158  1.00  0.00     0.133 C 
HETATM   11  N   UNL     1       4.921  28.342  52.709  1.00  0.00    -0.320 N 
HETATM   12  C   UNL     1       4.382  29.597  52.398  1.00  0.00     0.319 C 
HETATM   13  N   UNL     1       3.958  29.737  51.105  1.00  0.00    -0.338 N 
HETATM   14  O   UNL     1       4.244  30.486  53.234  1.00  0.00    -0.247 OA
HETATM   15  C   UNL     1       5.874  27.659  51.773  1.00  0.00     0.172 C 
HETATM   16  C   UNL     1       8.286  23.315  52.504  1.00  0.00     0.033 A 
HETATM   17  C   UNL     1       8.300  22.364  53.534  1.00  0.00     0.039 A 
HETATM   18  H   UNL     1       3.638  28.868  50.709  1.00  0.00     0.164 HD
ENDROOT
BRANCH  15  19
HETATM   19  C   UNL     1       5.259  27.230  50.442  1.00  0.00    -0.029 A 
HETATM   20  C   UNL     1       4.443  26.084  50.379  1.00  0.00     0.012 A 
HETATM   21  C   UNL     1       3.871  25.691  49.168  1.00  0.00     0.043 A 
HETATM   22  C   UNL     1       4.106  26.441  48.022  1.00  0.00     0.116 A 
HETATM   23  F   UNL     1       3.554  26.061  46.862  1.00  0.00    -0.206 F 
HETATM   24  C   UNL     1       4.903  27.578  48.060  1.00  0.00     0.043 A 
HETATM   25  C   UNL     1       5.479  27.974  49.267  1.00  0.00     0.012 A 
ENDBRANCH  15  19
BRANCH  13  26
HETATM   26  C   UNL     1       3.236  30.889  50.599  1.00  0.00     0.086 C 
HETATM   27  C   UNL     1       4.120  32.033  50.111  1.00  0.00     0.025 C 
HETATM   28  C   UNL     1       3.127  32.942  49.403  1.00  0.00     0.002 C 
HETATM   29  C   UNL     1       2.107  32.001  48.762  1.00  0.00     0.002 C 
HETATM   30  C   UNL     1       2.283  30.636  49.434  1.00  0.00     0.025 C 
ENDBRANCH  13  26
BRANCH   1  31
HETATM   31  O   UNL     1       7.541  21.707  55.778  1.00  0.00    -0.356 OA
HETATM   32  C   UNL     1       8.066  20.405  55.554  1.00  0.00     0.210 C 
ENDBRANCH   1  31
TORSDOF 3
ENDMDL
MODEL 8
REMARK VINA RESULT:      -8.3      3.413      5.283
REMARK  3 active torsions:
REMARK  status: ('A' for Active; 'I' for Inactive)
REMARK    1  A    between atoms: O_2  and  C_3 
REMARK       I    between atoms: N_13  and  C_14 
REMARK       I    between atoms: C_14  and  N_15 
REMARK    2  A    between atoms: N_15  and  C_16 
REMARK    3  A    between atoms: C_22  and  C_23 
ROOT
HETATM    1  C   UNL     1       5.709  33.043  61.304  1.00  0.00     0.069 A 
HETATM    2  C   UNL     1       4.949  32.650  60.195  1.00  0.00     0.051 A 
HETATM    3  C   UNL     1       5.546  31.894  59.168  1.00  0.00     0.002 A 
HETATM    4  C   UNL     1       6.903  31.580  59.268  1.00  0.00     0.043 A 
HETATM    5  N   UNL     1       7.234  30.830  58.160  1.00  0.00    -0.356 N 
HETATM    6  H   UNL     1       8.150  30.434  57.992  1.00  0.00     0.166 HD
HETATM    7  C   UNL     1       6.117  30.603  57.396  1.00  0.00     0.045 A 
HETATM    8  C   UNL     1       5.072  31.291  57.976  1.00  0.00    -0.019 A 
HETATM    9  C   UNL     1       3.715  31.249  57.384  1.00  0.00     0.061 C 
HETATM   10  C   UNL     1       3.825  30.856  55.905  1.00  0.00     0.133 C 
HETATM   11  N   UNL     1       4.660  29.656  55.657  1.00  0.00    -0.320 N 
HETATM   12  C   UNL     1       4.370  29.039  54.433  1.00  0.00     0.319 C 
HETATM   13  N   UNL     1       4.990  27.835  54.235  1.00  0.00    -0.338 N 
HETATM   14  O   UNL     1       3.577  29.511  53.623  1.00  0.00    -0.247 OA
HETATM   15  C   UNL     1       6.063  29.700  56.185  1.00  0.00     0.172 C 
HETATM   16  C   UNL     1       7.688  31.990  60.350  1.00  0.00     0.033 A 
HETATM   17  C   UNL     1       7.066  32.724  61.369  1.00  0.00     0.039 A 
HETATM   18  H   UNL     1       5.150  27.339  55.097  1.00  0.00     0.164 HD
ENDROOT
BRANCH  15  19
HETATM   19  C   UNL     1       6.641  28.338  56.567  1.00  0.00    -0.029 A 
HETATM   20  C   UNL     1       8.003  28.061  56.339  1.00  0.00     0.012 A 
HETATM   21  C   UNL     1       8.539  26.823  56.693  1.00  0.00     0.043 A 
HETATM   22  C   UNL     1       7.723  25.862  57.278  1.00  0.00     0.116 A 
HETATM   23  F   UNL     1       8.243  24.675  57.618  1.00  0.00    -0.206 F 
HETATM   24  C   UNL     1       6.379  26.114  57.518  1.00  0.00     0.043 A 
HETATM   25  C   UNL     1       5.836  27.349  57.163  1.00  0.00     0.012 A 
ENDBRANCH  15  19
BRANCH  13  26
HETATM   26  C   UNL     1       4.725  26.952  53.115  1.00  0.00     0.086 C 
HETATM   27  C   UNL     1       5.664  27.132  51.925  1.00  0.00     0.025 C 
HETATM   28  C   UNL     1       5.338  25.926  51.059  1.00  0.00     0.002 C 
HETATM   29  C   UNL     1       5.026  24.797  52.042  1.00  0.00     0.002 C 
HETATM   30  C   UNL     1       4.779  25.454  53.403  1.00  0.00     0.025 C 
ENDBRANCH  13  26
BRANCH   1  31
HETATM   31  O   UNL     1       5.009  33.742  62.252  1.00  0.00    -0.356 OA
HETATM   32  C   UNL     1       5.067  33.237  63.580  1.00  0.00     0.210 C 
ENDBRANCH   1  31
TORSDOF 3
ENDMDL
MODEL 9
REMARK VINA RESULT:      -8.1      4.295      6.763
REMARK  3 active torsions:
REMARK  status: ('A' for Active; 'I' for Inactive)
REMARK    1  A    between atoms: O_2  and  C_3 
REMARK       I    between atoms: N_13  and  C_14 
REMARK       I    between atoms: C_14  and  N_15 
REMARK    2  A    between atoms: N_15  and  C_16 
REMARK    3  A    between atoms: C_22  and  C_23 
ROOT
HETATM    1  C   UNL     1       7.088  32.555  62.856  1.00  0.00     0.069 A 
HETATM    2  C   UNL     1       6.069  32.624  61.897  1.00  0.00     0.051 A 
HETATM    3  C   UNL     1       6.333  32.245  60.566  1.00  0.00     0.002 A 
HETATM    4  C   UNL     1       7.624  31.839  60.226  1.00  0.00     0.043 A 
HETATM    5  N   UNL     1       7.614  31.511  58.887  1.00  0.00    -0.356 N 
HETATM    6  H   UNL     1       8.412  31.147  58.383  1.00  0.00     0.166 HD
HETATM    7  C   UNL     1       6.344  31.633  58.385  1.00  0.00     0.045 A 
HETATM    8  C   UNL     1       5.545  32.132  59.393  1.00  0.00    -0.019 A 
HETATM    9  C   UNL     1       4.103  32.380  59.165  1.00  0.00     0.061 C 
HETATM   10  C   UNL     1       3.851  32.529  57.659  1.00  0.00     0.133 C 
HETATM   11  N   UNL     1       4.444  31.448  56.836  1.00  0.00    -0.320 N 
HETATM   12  C   UNL     1       3.826  31.321  55.584  1.00  0.00     0.319 C 
HETATM   13  N   UNL     1       4.219  30.231  54.857  1.00  0.00    -0.338 N 
HETATM   14  O   UNL     1       2.956  32.094  55.192  1.00  0.00    -0.247 OA
HETATM   15  C   UNL     1       5.917  31.221  56.994  1.00  0.00     0.172 C 
HETATM   16  C   UNL     1       8.664  31.794  61.160  1.00  0.00     0.033 A 
HETATM   17  C   UNL     1       8.372  32.155  62.483  1.00  0.00     0.039 A 
HETATM   18  H   UNL     1       4.483  29.454  55.441  1.00  0.00     0.164 HD
ENDROOT
BRANCH  15  19
HETATM   19  C   UNL     1       6.368  29.781  56.753  1.00  0.00    -0.029 A 
HETATM   20  C   UNL     1       7.467  29.518  55.914  1.00  0.00     0.012 A 
HETATM   21  C   UNL     1       7.890  28.206  55.696  1.00  0.00     0.043 A 
HETATM   22  C   UNL     1       7.223  27.157  56.318  1.00  0.00     0.116 A 
HETATM   23  F   UNL     1       7.633  25.899  56.107  1.00  0.00    -0.206 F 
HETATM   24  C   UNL     1       6.139  27.392  57.154  1.00  0.00     0.043 A 
HETATM   25  C   UNL     1       5.711  28.702  57.373  1.00  0.00     0.012 A 
ENDBRANCH  15  19
BRANCH  13  26
HETATM   26  C   UNL     1       3.611  29.818  53.606  1.00  0.00     0.086 C 
HETATM   27  C   UNL     1       4.013  30.653  52.394  1.00  0.00     0.025 C 
HETATM   28  C   UNL     1       3.466  29.838  51.232  1.00  0.00     0.002 C 
HETATM   29  C   UNL     1       3.629  28.377  51.655  1.00  0.00     0.002 C 
HETATM   30  C   UNL     1       3.871  28.380  53.166  1.00  0.00     0.025 C 
ENDBRANCH  13  26
BRANCH   1  31
HETATM   31  O   UNL     1       6.702  32.912  64.120  1.00  0.00    -0.356 OA
HETATM   32  C   UNL     1       5.315  33.160  64.312  1.00  0.00     0.210 C 
ENDBRANCH   1  31
TORSDOF 3
ENDMDL
MODEL 10
REMARK VINA RESULT:      -8.0      6.779     10.909
REMARK  3 active torsions:
REMARK  status: ('A' for Active; 'I' for Inactive)
REMARK    1  A    between atoms: O_2  and  C_3 
REMARK       I    between atoms: N_13  and  C_14 
REMARK       I    between atoms: C_14  and  N_15 
REMARK    2  A    between atoms: N_15  and  C_16 
REMARK    3  A    between atoms: C_22  and  C_23 
ROOT
HETATM    1  C   UNL     1       3.385  32.163  55.171  1.00  0.00     0.069 A 
HETATM    2  C   UNL     1       3.168  32.981  56.288  1.00  0.00     0.051 A 
HETATM    3  C   UNL     1       3.602  32.560  57.560  1.00  0.00     0.002 A 
HETATM    4  C   UNL     1       4.213  31.311  57.682  1.00  0.00     0.043 A 
HETATM    5  N   UNL     1       4.555  31.147  59.008  1.00  0.00    -0.356 N 
HETATM    6  H   UNL     1       5.047  30.344  59.375  1.00  0.00     0.166 HD
HETATM    7  C   UNL     1       4.238  32.278  59.716  1.00  0.00     0.045 A 
HETATM    8  C   UNL     1       3.606  33.146  58.851  1.00  0.00    -0.019 A 
HETATM    9  C   UNL     1       3.134  34.471  59.315  1.00  0.00     0.061 C 
HETATM   10  C   UNL     1       2.968  34.438  60.840  1.00  0.00     0.133 C 
HETATM   11  N   UNL     1       4.140  33.894  61.566  1.00  0.00    -0.320 N 
HETATM   12  C   UNL     1       4.185  34.304  62.905  1.00  0.00     0.319 C 
HETATM   13  N   UNL     1       5.334  33.972  63.571  1.00  0.00    -0.338 N 
HETATM   14  O   UNL     1       3.289  34.961  63.429  1.00  0.00    -0.247 OA
HETATM   15  C   UNL     1       4.596  32.524  61.164  1.00  0.00     0.172 C 
HETATM   16  C   UNL     1       4.410  30.465  56.586  1.00  0.00     0.033 A 
HETATM   17  C   UNL     1       3.989  30.914  55.327  1.00  0.00     0.039 A 
HETATM   18  H   UNL     1       6.135  33.937  62.961  1.00  0.00     0.164 HD
ENDROOT
BRANCH  15  19
HETATM   19  C   UNL     1       6.093  32.273  61.344  1.00  0.00    -0.029 A 
HETATM   20  C   UNL     1       7.014  32.806  60.422  1.00  0.00     0.012 A 
HETATM   21  C   UNL     1       8.382  32.588  60.586  1.00  0.00     0.043 A 
HETATM   22  C   UNL     1       8.835  31.846  61.670  1.00  0.00     0.116 A 
HETATM   23  F   UNL     1      10.150  31.642  61.824  1.00  0.00    -0.206 F 
HETATM   24  C   UNL     1       7.947  31.315  62.596  1.00  0.00     0.043 A 
HETATM   25  C   UNL     1       6.577  31.528  62.436  1.00  0.00     0.012 A 
ENDBRANCH  15  19
BRANCH  13  26
HETATM   26  C   UNL     1       5.662  34.418  64.911  1.00  0.00     0.086 C 
HETATM   27  C   UNL     1       4.761  33.860  66.008  1.00  0.00     0.025 C 
HETATM   28  C   UNL     1       5.497  34.258  67.279  1.00  0.00     0.002 C 
HETATM   29  C   UNL     1       6.982  34.159  66.930  1.00  0.00     0.002 C 
HETATM   30  C   UNL     1       7.075  34.111  65.403  1.00  0.00     0.025 C 
ENDBRANCH  13  26
BRANCH   1  31
HETATM   31  O   UNL     1       2.953  32.696  53.986  1.00  0.00    -0.356 OA
HETATM   32  C   UNL     1       3.957  33.002  53.027  1.00  0.00     0.210 C 
ENDBRANCH   1  31
TORSDOF 3
ENDMDL
