MODEL 1
REMARK VINA RESULT:      -9.0      0.000      0.000
REMARK  6 active torsions:
REMARK  status: ('A' for Active; 'I' for Inactive)
REMARK    1  A    between atoms: C_4  and  O_5 
REMARK    2  A    between atoms: O_5  and  C_6 
REMARK    3  A    between atoms: C_6  and  C_7 
REMARK       I    between atoms: C_7  and  N_8 
REMARK    4  A    between atoms: N_8  and  N_9 
REMARK    5  A    between atoms: C_10  and  C_11 
REMARK    6  A    between atoms: C_23  and  C_24 
ROOT
HETATM    1  C   UNL     1       5.932  26.651  53.239  1.00  0.00     0.261 C 
HETATM    2  N   UNL     1       6.637  27.670  53.872  1.00  0.00    -0.246 N 
HETATM    3  O   UNL     1       4.709  26.517  53.228  1.00  0.00    -0.269 OA
HETATM    4  H   UNL     1       7.603  27.815  53.581  1.00  0.00     0.192 HD
ENDROOT
BRANCH   2   5
HETATM    5  N   UNL     1       6.110  28.705  54.615  1.00  0.00    -0.184 NA
HETATM    6  C   UNL     1       6.718  29.075  55.695  1.00  0.00     0.152 C 
BRANCH   6   7
HETATM    7  C   UNL     1       6.189  30.157  56.505  1.00  0.00     0.011 A 
HETATM    8  C   UNL     1       6.628  30.681  57.767  1.00  0.00     0.005 A 
HETATM    9  C   UNL     1       5.751  31.712  58.119  1.00  0.00     0.043 A 
HETATM   10  C   UNL     1       7.677  30.368  58.657  1.00  0.00     0.033 A 
HETATM   11  C   UNL     1       5.870  32.446  59.305  1.00  0.00     0.031 A 
HETATM   12  N   UNL     1       4.825  31.821  57.109  1.00  0.00    -0.364 N 
HETATM   13  C   UNL     1       6.915  32.114  60.170  1.00  0.00     0.021 A 
HETATM   14  C   UNL     1       7.803  31.091  59.848  1.00  0.00     0.012 A 
HETATM   15 BR   UNL     1       9.202  30.664  61.050  1.00  0.00    -0.051 Br
HETATM   16  H   UNL     1       4.069  32.493  57.094  1.00  0.00     0.165 HD
HETATM   17  C   UNL     1       5.069  30.886  56.142  1.00  0.00     0.102 A 
ENDBRANCH   6   7
ENDBRANCH   2   5
BRANCH   1  18
HETATM   18  C   UNL     1       6.844  25.597  52.623  1.00  0.00     0.280 C 
BRANCH  18  19
HETATM   19  O   UNL     1       7.961  25.305  53.457  1.00  0.00    -0.341 OA
BRANCH  19  20
HETATM   20  C   UNL     1       7.939  24.025  53.964  1.00  0.00     0.076 A 
HETATM   21  C   UNL     1       8.071  22.899  53.137  1.00  0.00     0.044 A 
HETATM   22  C   UNL     1       8.070  21.607  53.674  1.00  0.00    -0.059 A 
HETATM   23  C   UNL     1       8.268  20.409  52.794  1.00  0.00     0.048 C 
HETATM   24  C   UNL     1       7.938  21.451  55.053  1.00  0.00     0.007 A 
HETATM   25  C   UNL     1       7.774  22.566  55.879  1.00  0.00     0.011 A 
HETATM   26  C   UNL     1       7.749  23.869  55.351  1.00  0.00    -0.021 A 
BRANCH  26  27
HETATM   27  C   UNL     1       7.593  25.075  56.268  1.00  0.00     0.013 C 
HETATM   28  C   UNL     1       6.154  25.278  56.764  1.00  0.00     0.015 C 
HETATM   29  C   UNL     1       8.556  24.969  57.453  1.00  0.00     0.015 C 
ENDBRANCH  26  27
ENDBRANCH  19  20
ENDBRANCH  18  19
ENDBRANCH   1  18
TORSDOF 6
ENDMDL
MODEL 2
REMARK VINA RESULT:      -9.0      2.582      3.949
REMARK  6 active torsions:
REMARK  status: ('A' for Active; 'I' for Inactive)
REMARK    1  A    between atoms: C_4  and  O_5 
REMARK    2  A    between atoms: O_5  and  C_6 
REMARK    3  A    between atoms: C_6  and  C_7 
REMARK       I    between atoms: C_7  and  N_8 
REMARK    4  A    between atoms: N_8  and  N_9 
REMARK    5  A    between atoms: C_10  and  C_11 
REMARK    6  A    between atoms: C_23  and  C_24 
ROOT
HETATM    1  C   UNL     1       7.728  26.649  57.377  1.00  0.00     0.261 C 
HETATM    2  N   UNL     1       7.964  28.020  57.397  1.00  0.00    -0.246 N 
HETATM    3  O   UNL     1       7.665  25.912  58.359  1.00  0.00    -0.269 OA
HETATM    4  H   UNL     1       7.725  28.543  56.556  1.00  0.00     0.192 HD
ENDROOT
BRANCH   2   5
HETATM    5  N   UNL     1       8.186  28.806  58.508  1.00  0.00    -0.184 NA
HETATM    6  C   UNL     1       7.701  30.005  58.536  1.00  0.00     0.152 C 
BRANCH   6   7
HETATM    7  C   UNL     1       7.919  30.863  59.686  1.00  0.00     0.011 A 
HETATM    8  C   UNL     1       7.067  31.841  60.297  1.00  0.00     0.005 A 
HETATM    9  C   UNL     1       7.772  32.400  61.368  1.00  0.00     0.043 A 
HETATM   10  C   UNL     1       5.766  32.323  60.036  1.00  0.00     0.033 A 
HETATM   11  C   UNL     1       7.247  33.405  62.189  1.00  0.00     0.031 A 
HETATM   12  N   UNL     1       8.998  31.779  61.416  1.00  0.00    -0.364 N 
HETATM   13  C   UNL     1       5.960  33.867  61.906  1.00  0.00     0.021 A 
HETATM   14  C   UNL     1       5.233  33.331  60.845  1.00  0.00     0.012 A 
HETATM   15 BR   UNL     1       3.494  33.987  60.488  1.00  0.00    -0.051 Br
HETATM   16  H   UNL     1       9.716  31.981  62.097  1.00  0.00     0.165 HD
HETATM   17  C   UNL     1       9.103  30.865  60.405  1.00  0.00     0.102 A 
ENDBRANCH   6   7
ENDBRANCH   2   5
BRANCH   1  18
HETATM   18  C   UNL     1       7.664  26.083  55.963  1.00  0.00     0.280 C 
BRANCH  18  19
HETATM   19  O   UNL     1       6.663  25.077  55.837  1.00  0.00    -0.341 OA
BRANCH  19  20
HETATM   20  C   UNL     1       7.132  23.915  55.265  1.00  0.00     0.076 A 
HETATM   21  C   UNL     1       7.665  22.872  56.038  1.00  0.00     0.044 A 
HETATM   22  C   UNL     1       8.115  21.690  55.441  1.00  0.00    -0.059 A 
HETATM   23  C   UNL     1       8.632  20.555  56.275  1.00  0.00     0.048 C 
HETATM   24  C   UNL     1       8.022  21.558  54.056  1.00  0.00     0.007 A 
HETATM   25  C   UNL     1       7.522  22.604  53.277  1.00  0.00     0.011 A 
HETATM   26  C   UNL     1       7.089  23.808  53.862  1.00  0.00    -0.021 A 
BRANCH  26  27
HETATM   27  C   UNL     1       6.525  24.929  53.000  1.00  0.00     0.013 C 
HETATM   28  C   UNL     1       7.361  25.210  51.744  1.00  0.00     0.015 C 
HETATM   29  C   UNL     1       5.073  24.627  52.619  1.00  0.00     0.015 C 
ENDBRANCH  26  27
ENDBRANCH  19  20
ENDBRANCH  18  19
ENDBRANCH   1  18
TORSDOF 6
ENDMDL
MODEL 3
REMARK VINA RESULT:      -8.9      3.505      8.566
REMARK  6 active torsions:
REMARK  status: ('A' for Active; 'I' for Inactive)
REMARK    1  A    between atoms: C_4  and  O_5 
REMARK    2  A    between atoms: O_5  and  C_6 
REMARK    3  A    between atoms: C_6  and  C_7 
REMARK       I    between atoms: C_7  and  N_8 
REMARK    4  A    between atoms: N_8  and  N_9 
REMARK    5  A    between atoms: C_10  and  C_11 
REMARK    6  A    between atoms: C_23  and  C_24 
ROOT
HETATM    1  C   UNL     1       4.401  31.246  58.123  1.00  0.00     0.261 C 
HETATM    2  N   UNL     1       4.997  30.034  57.791  1.00  0.00    -0.246 N 
HETATM    3  O   UNL     1       3.403  31.730  57.591  1.00  0.00    -0.269 OA
HETATM    4  H   UNL     1       5.638  29.631  58.473  1.00  0.00     0.192 HD
ENDROOT
BRANCH   2   5
HETATM    5  N   UNL     1       4.600  29.157  56.803  1.00  0.00    -0.184 NA
HETATM    6  C   UNL     1       5.451  28.811  55.892  1.00  0.00     0.152 C 
BRANCH   6   7
HETATM    7  C   UNL     1       5.066  27.894  54.834  1.00  0.00     0.011 A 
HETATM    8  C   UNL     1       5.600  26.615  54.467  1.00  0.00     0.005 A 
HETATM    9  C   UNL     1       4.878  26.164  53.357  1.00  0.00     0.043 A 
HETATM   10  C   UNL     1       6.641  25.798  54.958  1.00  0.00     0.033 A 
HETATM   11  C   UNL     1       5.137  24.945  52.719  1.00  0.00     0.031 A 
HETATM   12  N   UNL     1       3.935  27.122  53.068  1.00  0.00    -0.364 N 
HETATM   13  C   UNL     1       6.176  24.158  53.223  1.00  0.00     0.021 A 
HETATM   14  C   UNL     1       6.914  24.581  54.326  1.00  0.00     0.012 A 
HETATM   15 BR   UNL     1       8.318  23.491  54.975  1.00  0.00    -0.051 Br
HETATM   16  H   UNL     1       3.265  27.058  52.314  1.00  0.00     0.165 HD
HETATM   17  C   UNL     1       4.047  28.170  53.939  1.00  0.00     0.102 A 
ENDBRANCH   6   7
ENDBRANCH   2   5
BRANCH   1  18
HETATM   18  C   UNL     1       5.187  32.022  59.174  1.00  0.00     0.280 C 
BRANCH  18  19
HETATM   19  O   UNL     1       6.546  32.210  58.791  1.00  0.00    -0.341 OA
BRANCH  19  20
HETATM   20  C   UNL     1       7.433  32.000  59.823  1.00  0.00     0.076 A 
HETATM   21  C   UNL     1       7.212  32.524  61.107  1.00  0.00     0.044 A 
HETATM   22  C   UNL     1       8.113  32.280  62.149  1.00  0.00    -0.059 A 
HETATM   23  C   UNL     1       7.846  32.794  63.532  1.00  0.00     0.048 C 
HETATM   24  C   UNL     1       9.242  31.501  61.894  1.00  0.00     0.007 A 
HETATM   25  C   UNL     1       9.484  31.004  60.611  1.00  0.00     0.011 A 
HETATM   26  C   UNL     1       8.599  31.261  59.549  1.00  0.00    -0.021 A 
BRANCH  26  27
HETATM   27  C   UNL     1       8.866  30.692  58.162  1.00  0.00     0.013 C 
HETATM   28  C   UNL     1      10.334  30.814  57.728  1.00  0.00     0.015 C 
HETATM   29  C   UNL     1       8.408  29.233  58.090  1.00  0.00     0.015 C 
ENDBRANCH  26  27
ENDBRANCH  19  20
ENDBRANCH  18  19
ENDBRANCH   1  18
TORSDOF 6
ENDMDL
MODEL 4
REMARK VINA RESULT:      -8.8      5.591      7.948
REMARK  6 active torsions:
REMARK  status: ('A' for Active; 'I' for Inactive)
REMARK    1  A    between atoms: C_4  and  O_5 
REMARK    2  A    between atoms: O_5  and  C_6 
REMARK    3  A    between atoms: C_6  and  C_7 
REMARK       I    between atoms: C_7  and  N_8 
REMARK    4  A    between atoms: N_8  and  N_9 
REMARK    5  A    between atoms: C_10  and  C_11 
REMARK    6  A    between atoms: C_23  and  C_24 
ROOT
HETATM    1  C   UNL     1       5.914  25.878  51.656  1.00  0.00     0.261 C 
HETATM    2  N   UNL     1       5.763  26.233  50.319  1.00  0.00    -0.246 N 
HETATM    3  O   UNL     1       5.100  26.083  52.555  1.00  0.00    -0.269 OA
HETATM    4  H   UNL     1       6.374  25.773  49.646  1.00  0.00     0.192 HD
ENDROOT
BRANCH   2   5
HETATM    5  N   UNL     1       4.691  26.889  49.752  1.00  0.00    -0.184 NA
HETATM    6  C   UNL     1       4.230  26.474  48.617  1.00  0.00     0.152 C 
BRANCH   6   7
HETATM    7  C   UNL     1       3.106  27.144  47.988  1.00  0.00     0.011 A 
HETATM    8  C   UNL     1       3.006  28.447  47.397  1.00  0.00     0.005 A 
HETATM    9  C   UNL     1       1.689  28.606  46.955  1.00  0.00     0.043 A 
HETATM   10  C   UNL     1       3.905  29.519  47.207  1.00  0.00     0.033 A 
HETATM   11  C   UNL     1       1.226  29.772  46.334  1.00  0.00     0.031 A 
HETATM   12  N   UNL     1       1.017  27.445  47.254  1.00  0.00    -0.364 N 
HETATM   13  C   UNL     1       2.134  30.819  46.162  1.00  0.00     0.021 A 
HETATM   14  C   UNL     1       3.453  30.691  46.592  1.00  0.00     0.012 A 
HETATM   15 BR   UNL     1       4.652  32.134  46.349  1.00  0.00    -0.051 Br
HETATM   16  H   UNL     1       0.043  27.275  47.042  1.00  0.00     0.165 HD
HETATM   17  C   UNL     1       1.852  26.565  47.885  1.00  0.00     0.102 A 
ENDBRANCH   6   7
ENDBRANCH   2   5
BRANCH   1  18
HETATM   18  C   UNL     1       7.287  25.287  51.958  1.00  0.00     0.280 C 
BRANCH  18  19
HETATM   19  O   UNL     1       7.576  25.295  53.352  1.00  0.00    -0.341 OA
BRANCH  19  20
HETATM   20  C   UNL     1       7.682  24.032  53.890  1.00  0.00     0.076 A 
HETATM   21  C   UNL     1       7.885  22.899  53.087  1.00  0.00     0.044 A 
HETATM   22  C   UNL     1       8.015  21.627  53.654  1.00  0.00    -0.059 A 
HETATM   23  C   UNL     1       8.287  20.427  52.798  1.00  0.00     0.048 C 
HETATM   24  C   UNL     1       7.941  21.498  55.041  1.00  0.00     0.007 A 
HETATM   25  C   UNL     1       7.708  22.617  55.845  1.00  0.00     0.011 A 
HETATM   26  C   UNL     1       7.552  23.898  55.286  1.00  0.00    -0.021 A 
BRANCH  26  27
HETATM   27  C   UNL     1       7.321  25.110  56.178  1.00  0.00     0.013 C 
HETATM   28  C   UNL     1       5.923  25.140  56.812  1.00  0.00     0.015 C 
HETATM   29  C   UNL     1       8.400  25.186  57.261  1.00  0.00     0.015 C 
ENDBRANCH  26  27
ENDBRANCH  19  20
ENDBRANCH  18  19
ENDBRANCH   1  18
TORSDOF 6
ENDMDL
MODEL 5
REMARK VINA RESULT:      -8.6      3.370      9.443
REMARK  6 active torsions:
REMARK  status: ('A' for Active; 'I' for Inactive)
REMARK    1  A    between atoms: C_4  and  O_5 
REMARK    2  A    between atoms: O_5  and  C_6 
REMARK    3  A    between atoms: C_6  and  C_7 
REMARK       I    between atoms: C_7  and  N_8 
REMARK    4  A    between atoms: N_8  and  N_9 
REMARK    5  A    between atoms: C_10  and  C_11 
REMARK    6  A    between atoms: C_23  and  C_24 
ROOT
HETATM    1  C   UNL     1       8.761  29.597  57.715  1.00  0.00     0.261 C 
HETATM    2  N   UNL     1       7.771  28.806  57.140  1.00  0.00    -0.246 N 
HETATM    3  O   UNL     1       9.897  29.764  57.275  1.00  0.00    -0.269 OA
HETATM    4  H   UNL     1       6.813  28.966  57.448  1.00  0.00     0.192 HD
ENDROOT
BRANCH   2   5
HETATM    5  N   UNL     1       7.875  28.053  55.990  1.00  0.00    -0.184 NA
HETATM    6  C   UNL     1       7.450  26.831  55.998  1.00  0.00     0.152 C 
BRANCH   6   7
HETATM    7  C   UNL     1       7.548  26.008  54.807  1.00  0.00     0.011 A 
HETATM    8  C   UNL     1       7.655  24.585  54.661  1.00  0.00     0.005 A 
HETATM    9  C   UNL     1       7.742  24.311  53.292  1.00  0.00     0.043 A 
HETATM   10  C   UNL     1       7.704  23.498  55.560  1.00  0.00     0.033 A 
HETATM   11  C   UNL     1       7.871  23.015  52.778  1.00  0.00     0.031 A 
HETATM   12  N   UNL     1       7.678  25.514  52.631  1.00  0.00    -0.364 N 
HETATM   13  C   UNL     1       7.921  21.958  53.690  1.00  0.00     0.021 A 
HETATM   14  C   UNL     1       7.838  22.199  55.059  1.00  0.00     0.012 A 
HETATM   15 BR   UNL     1       7.917  20.742  56.264  1.00  0.00    -0.051 Br
HETATM   16  H   UNL     1       7.713  25.619  51.626  1.00  0.00     0.165 HD
HETATM   17  C   UNL     1       7.575  26.540  53.529  1.00  0.00     0.102 A 
ENDBRANCH   6   7
ENDBRANCH   2   5
BRANCH   1  18
HETATM   18  C   UNL     1       8.344  30.179  59.061  1.00  0.00     0.280 C 
BRANCH  18  19
HETATM   19  O   UNL     1       7.906  31.529  58.944  1.00  0.00    -0.341 OA
BRANCH  19  20
HETATM   20  C   UNL     1       7.254  31.986  60.068  1.00  0.00     0.076 A 
HETATM   21  C   UNL     1       7.904  32.096  61.307  1.00  0.00     0.044 A 
HETATM   22  C   UNL     1       7.232  32.585  62.433  1.00  0.00    -0.059 A 
HETATM   23  C   UNL     1       7.944  32.754  63.741  1.00  0.00     0.048 C 
HETATM   24  C   UNL     1       5.897  32.968  62.305  1.00  0.00     0.007 A 
HETATM   25  C   UNL     1       5.234  32.831  61.082  1.00  0.00     0.011 A 
HETATM   26  C   UNL     1       5.892  32.319  59.949  1.00  0.00    -0.021 A 
BRANCH  26  27
HETATM   27  C   UNL     1       5.162  32.198  58.619  1.00  0.00     0.013 C 
HETATM   28  C   UNL     1       3.857  31.395  58.712  1.00  0.00     0.015 C 
HETATM   29  C   UNL     1       4.893  33.587  58.032  1.00  0.00     0.015 C 
ENDBRANCH  26  27
ENDBRANCH  19  20
ENDBRANCH  18  19
ENDBRANCH   1  18
TORSDOF 6
ENDMDL
MODEL 6
REMARK VINA RESULT:      -8.5      3.535      9.196
REMARK  6 active torsions:
REMARK  status: ('A' for Active; 'I' for Inactive)
REMARK    1  A    between atoms: C_4  and  O_5 
REMARK    2  A    between atoms: O_5  and  C_6 
REMARK    3  A    between atoms: C_6  and  C_7 
REMARK       I    between atoms: C_7  and  N_8 
REMARK    4  A    between atoms: N_8  and  N_9 
REMARK    5  A    between atoms: C_10  and  C_11 
REMARK    6  A    between atoms: C_23  and  C_24 
ROOT
HETATM    1  C   UNL     1       9.628  29.746  57.377  1.00  0.00     0.261 C 
HETATM    2  N   UNL     1       8.768  28.665  57.545  1.00  0.00    -0.246 N 
HETATM    3  O   UNL     1      10.581  29.799  56.601  1.00  0.00    -0.269 OA
HETATM    4  H   UNL     1       7.880  28.848  58.009  1.00  0.00     0.192 HD
ENDROOT
BRANCH   2   5
HETATM    5  N   UNL     1       8.825  27.452  56.892  1.00  0.00    -0.184 NA
HETATM    6  C   UNL     1       8.157  26.452  57.368  1.00  0.00     0.152 C 
BRANCH   6   7
HETATM    7  C   UNL     1       8.197  25.158  56.710  1.00  0.00     0.011 A 
HETATM    8  C   UNL     1       7.793  24.768  55.390  1.00  0.00     0.005 A 
HETATM    9  C   UNL     1       8.027  23.394  55.271  1.00  0.00     0.043 A 
HETATM   10  C   UNL     1       7.233  25.445  54.285  1.00  0.00     0.033 A 
HETATM   11  C   UNL     1       7.736  22.666  54.111  1.00  0.00     0.031 A 
HETATM   12  N   UNL     1       8.563  22.968  56.463  1.00  0.00    -0.364 N 
HETATM   13  C   UNL     1       7.179  23.359  53.034  1.00  0.00     0.021 A 
HETATM   14  C   UNL     1       6.933  24.727  53.123  1.00  0.00     0.012 A 
HETATM   15 BR   UNL     1       6.169  25.631  51.646  1.00  0.00    -0.051 Br
HETATM   16  H   UNL     1       8.837  22.015  56.659  1.00  0.00     0.165 HD
HETATM   17  C   UNL     1       8.658  24.014  57.338  1.00  0.00     0.102 A 
ENDBRANCH   6   7
ENDBRANCH   2   5
BRANCH   1  18
HETATM   18  C   UNL     1       9.354  30.877  58.363  1.00  0.00     0.280 C 
BRANCH  18  19
HETATM   19  O   UNL     1       8.471  30.472  59.405  1.00  0.00    -0.341 OA
BRANCH  19  20
HETATM   20  C   UNL     1       7.452  31.370  59.630  1.00  0.00     0.076 A 
HETATM   21  C   UNL     1       6.525  31.705  58.631  1.00  0.00     0.044 A 
HETATM   22  C   UNL     1       5.482  32.602  58.886  1.00  0.00    -0.059 A 
HETATM   23  C   UNL     1       4.462  32.915  57.833  1.00  0.00     0.048 C 
HETATM   24  C   UNL     1       5.372  33.161  60.159  1.00  0.00     0.007 A 
HETATM   25  C   UNL     1       6.309  32.856  61.150  1.00  0.00     0.011 A 
HETATM   26  C   UNL     1       7.376  31.975  60.900  1.00  0.00    -0.021 A 
BRANCH  26  27
HETATM   27  C   UNL     1       8.375  31.636  61.997  1.00  0.00     0.013 C 
HETATM   28  C   UNL     1       9.819  32.025  61.647  1.00  0.00     0.015 C 
HETATM   29  C   UNL     1       7.953  32.285  63.318  1.00  0.00     0.015 C 
ENDBRANCH  26  27
ENDBRANCH  19  20
ENDBRANCH  18  19
ENDBRANCH   1  18
TORSDOF 6
ENDMDL
MODEL 7
REMARK VINA RESULT:      -8.4      3.106      9.344
REMARK  6 active torsions:
REMARK  status: ('A' for Active; 'I' for Inactive)
REMARK    1  A    between atoms: C_4  and  O_5 
REMARK    2  A    between atoms: O_5  and  C_6 
REMARK    3  A    between atoms: C_6  and  C_7 
REMARK       I    between atoms: C_7  and  N_8 
REMARK    4  A    between atoms: N_8  and  N_9 
REMARK    5  A    between atoms: C_10  and  C_11 
REMARK    6  A    between atoms: C_23  and  C_24 
ROOT
HETATM    1  C   UNL     1       7.555  29.308  56.783  1.00  0.00     0.261 C 
HETATM    2  N   UNL     1       6.777  28.653  55.833  1.00  0.00    -0.246 N 
HETATM    3  O   UNL     1       8.765  29.166  56.948  1.00  0.00    -0.269 OA
HETATM    4  H   UNL     1       5.863  29.054  55.627  1.00  0.00     0.192 HD
ENDROOT
BRANCH   2   5
HETATM    5  N   UNL     1       7.204  27.718  54.914  1.00  0.00    -0.184 NA
HETATM    6  C   UNL     1       6.681  26.535  54.932  1.00  0.00     0.152 C 
BRANCH   6   7
HETATM    7  C   UNL     1       7.110  25.524  53.982  1.00  0.00     0.011 A 
HETATM    8  C   UNL     1       7.508  24.162  54.185  1.00  0.00     0.005 A 
HETATM    9  C   UNL     1       7.847  23.635  52.934  1.00  0.00     0.043 A 
HETATM   10  C   UNL     1       7.632  23.323  55.314  1.00  0.00     0.033 A 
HETATM   11  C   UNL     1       8.296  22.321  52.753  1.00  0.00     0.031 A 
HETATM   12  N   UNL     1       7.651  24.631  52.007  1.00  0.00    -0.364 N 
HETATM   13  C   UNL     1       8.413  21.515  53.887  1.00  0.00     0.021 A 
HETATM   14  C   UNL     1       8.085  22.011  55.147  1.00  0.00     0.012 A 
HETATM   15 BR   UNL     1       8.264  20.890  56.661  1.00  0.00    -0.051 Br
HETATM   16  H   UNL     1       7.812  24.529  51.014  1.00  0.00     0.165 HD
HETATM   17  C   UNL     1       7.221  25.772  52.625  1.00  0.00     0.102 A 
ENDBRANCH   6   7
ENDBRANCH   2   5
BRANCH   1  18
HETATM   18  C   UNL     1       6.728  30.173  57.727  1.00  0.00     0.280 C 
BRANCH  18  19
HETATM   19  O   UNL     1       7.538  31.089  58.457  1.00  0.00    -0.341 OA
BRANCH  19  20
HETATM   20  C   UNL     1       6.814  31.890  59.312  1.00  0.00     0.076 A 
HETATM   21  C   UNL     1       5.685  32.603  58.881  1.00  0.00     0.044 A 
HETATM   22  C   UNL     1       4.948  33.393  59.771  1.00  0.00    -0.059 A 
HETATM   23  C   UNL     1       3.710  34.108  59.320  1.00  0.00     0.048 C 
HETATM   24  C   UNL     1       5.354  33.461  61.103  1.00  0.00     0.007 A 
HETATM   25  C   UNL     1       6.496  32.780  61.532  1.00  0.00     0.011 A 
HETATM   26  C   UNL     1       7.258  32.001  60.644  1.00  0.00    -0.021 A 
BRANCH  26  27
HETATM   27  C   UNL     1       8.487  31.247  61.133  1.00  0.00     0.013 C 
HETATM   28  C   UNL     1       9.800  32.006  60.897  1.00  0.00     0.015 C 
HETATM   29  C   UNL     1       8.336  30.889  62.613  1.00  0.00     0.015 C 
ENDBRANCH  26  27
ENDBRANCH  19  20
ENDBRANCH  18  19
ENDBRANCH   1  18
TORSDOF 6
ENDMDL
MODEL 8
REMARK VINA RESULT:      -8.3      3.639      9.521
REMARK  6 active torsions:
REMARK  status: ('A' for Active; 'I' for Inactive)
REMARK    1  A    between atoms: C_4  and  O_5 
REMARK    2  A    between atoms: O_5  and  C_6 
REMARK    3  A    between atoms: C_6  and  C_7 
REMARK       I    between atoms: C_7  and  N_8 
REMARK    4  A    between atoms: N_8  and  N_9 
REMARK    5  A    between atoms: C_10  and  C_11 
REMARK    6  A    between atoms: C_23  and  C_24 
ROOT
HETATM    1  C   UNL     1       5.246  31.734  58.312  1.00  0.00     0.261 C 
HETATM    2  N   UNL     1       5.293  30.347  58.218  1.00  0.00    -0.246 N 
HETATM    3  O   UNL     1       5.209  32.522  57.368  1.00  0.00    -0.269 OA
HETATM    4  H   UNL     1       5.051  29.818  59.054  1.00  0.00     0.192 HD
ENDROOT
BRANCH   2   5
HETATM    5  N   UNL     1       5.323  29.595  57.062  1.00  0.00    -0.184 NA
HETATM    6  C   UNL     1       5.126  28.319  57.138  1.00  0.00     0.152 C 
BRANCH   6   7
HETATM    7  C   UNL     1       5.155  27.496  55.943  1.00  0.00     0.011 A 
HETATM    8  C   UNL     1       5.833  26.261  55.675  1.00  0.00     0.005 A 
HETATM    9  C   UNL     1       5.542  25.901  54.355  1.00  0.00     0.043 A 
HETATM   10  C   UNL     1       6.684  25.416  56.421  1.00  0.00     0.033 A 
HETATM   11  C   UNL     1       6.050  24.747  53.746  1.00  0.00     0.031 A 
HETATM   12  N   UNL     1       4.711  26.870  53.844  1.00  0.00    -0.364 N 
HETATM   13  C   UNL     1       6.893  23.932  54.505  1.00  0.00     0.021 A 
HETATM   14  C   UNL     1       7.203  24.264  55.822  1.00  0.00     0.012 A 
HETATM   15 BR   UNL     1       8.354  23.138  56.816  1.00  0.00    -0.051 Br
HETATM   16  H   UNL     1       4.334  26.865  52.906  1.00  0.00     0.165 HD
HETATM   17  C   UNL     1       4.482  27.837  54.782  1.00  0.00     0.102 A 
ENDBRANCH   6   7
ENDBRANCH   2   5
BRANCH   1  18
HETATM   18  C   UNL     1       5.366  32.232  59.748  1.00  0.00     0.280 C 
BRANCH  18  19
HETATM   19  O   UNL     1       6.651  32.786  60.014  1.00  0.00    -0.341 OA
BRANCH  19  20
HETATM   20  C   UNL     1       6.892  32.976  61.357  1.00  0.00     0.076 A 
HETATM   21  C   UNL     1       6.148  33.889  62.120  1.00  0.00     0.044 A 
HETATM   22  C   UNL     1       6.391  34.052  63.488  1.00  0.00    -0.059 A 
HETATM   23  C   UNL     1       5.557  34.987  64.312  1.00  0.00     0.048 C 
HETATM   24  C   UNL     1       7.389  33.285  64.089  1.00  0.00     0.007 A 
HETATM   25  C   UNL     1       8.155  32.397  63.330  1.00  0.00     0.011 A 
HETATM   26  C   UNL     1       7.937  32.242  61.949  1.00  0.00    -0.021 A 
BRANCH  26  27
HETATM   27  C   UNL     1       8.765  31.253  61.140  1.00  0.00     0.013 C 
HETATM   28  C   UNL     1       9.790  31.929  60.219  1.00  0.00     0.015 C 
HETATM   29  C   UNL     1       9.460  30.256  62.071  1.00  0.00     0.015 C 
ENDBRANCH  26  27
ENDBRANCH  19  20
ENDBRANCH  18  19
ENDBRANCH   1  18
TORSDOF 6
ENDMDL
MODEL 9
REMARK VINA RESULT:      -8.3      3.602      9.544
REMARK  6 active torsions:
REMARK  status: ('A' for Active; 'I' for Inactive)
REMARK    1  A    between atoms: C_4  and  O_5 
REMARK    2  A    between atoms: O_5  and  C_6 
REMARK    3  A    between atoms: C_6  and  C_7 
REMARK       I    between atoms: C_7  and  N_8 
REMARK    4  A    between atoms: N_8  and  N_9 
REMARK    5  A    between atoms: C_10  and  C_11 
REMARK    6  A    between atoms: C_23  and  C_24 
ROOT
HETATM    1  C   UNL     1       9.227  30.141  57.916  1.00  0.00     0.261 C 
HETATM    2  N   UNL     1       8.339  29.081  57.764  1.00  0.00    -0.246 N 
HETATM    3  O   UNL     1      10.373  30.193  57.473  1.00  0.00    -0.269 OA
HETATM    4  H   UNL     1       7.354  29.273  57.940  1.00  0.00     0.192 HD
ENDROOT
BRANCH   2   5
HETATM    5  N   UNL     1       8.574  27.890  57.110  1.00  0.00    -0.184 NA
HETATM    6  C   UNL     1       7.857  26.856  57.411  1.00  0.00     0.152 C 
BRANCH   6   7
HETATM    7  C   UNL     1       8.080  25.585  56.746  1.00  0.00     0.011 A 
HETATM    8  C   UNL     1       7.752  25.155  55.418  1.00  0.00     0.005 A 
HETATM    9  C   UNL     1       8.169  23.826  55.294  1.00  0.00     0.043 A 
HETATM   10  C   UNL     1       7.123  25.760  54.309  1.00  0.00     0.033 A 
HETATM   11  C   UNL     1       7.995  23.075  54.125  1.00  0.00     0.031 A 
HETATM   12  N   UNL     1       8.739  23.465  56.492  1.00  0.00    -0.364 N 
HETATM   13  C   UNL     1       7.366  23.696  53.044  1.00  0.00     0.021 A 
HETATM   14  C   UNL     1       6.938  25.019  53.137  1.00  0.00     0.012 A 
HETATM   15 BR   UNL     1       6.083  25.824  51.653  1.00  0.00    -0.051 Br
HETATM   16  H   UNL     1       9.135  22.555  56.687  1.00  0.00     0.165 HD
HETATM   17  C   UNL     1       8.680  24.507  57.375  1.00  0.00     0.102 A 
ENDBRANCH   6   7
ENDBRANCH   2   5
BRANCH   1  18
HETATM   18  C   UNL     1       8.681  31.244  58.816  1.00  0.00     0.280 C 
BRANCH  18  19
HETATM   19  O   UNL     1       7.424  30.893  59.385  1.00  0.00    -0.341 OA
BRANCH  19  20
HETATM   20  C   UNL     1       6.997  31.781  60.347  1.00  0.00     0.076 A 
HETATM   21  C   UNL     1       7.631  31.882  61.595  1.00  0.00     0.044 A 
HETATM   22  C   UNL     1       7.197  32.807  62.550  1.00  0.00    -0.059 A 
HETATM   23  C   UNL     1       7.912  32.951  63.861  1.00  0.00     0.048 C 
HETATM   24  C   UNL     1       6.119  33.637  62.243  1.00  0.00     0.007 A 
HETATM   25  C   UNL     1       5.464  33.521  61.015  1.00  0.00     0.011 A 
HETATM   26  C   UNL     1       5.874  32.579  60.054  1.00  0.00    -0.021 A 
BRANCH  26  27
HETATM   27  C   UNL     1       5.162  32.480  58.712  1.00  0.00     0.013 C 
HETATM   28  C   UNL     1       3.981  31.500  58.720  1.00  0.00     0.015 C 
HETATM   29  C   UNL     1       4.703  33.866  58.252  1.00  0.00     0.015 C 
ENDBRANCH  26  27
ENDBRANCH  19  20
ENDBRANCH  18  19
ENDBRANCH   1  18
TORSDOF 6
ENDMDL
MODEL 10
REMARK VINA RESULT:      -8.2      5.039      8.494
REMARK  6 active torsions:
REMARK  status: ('A' for Active; 'I' for Inactive)
REMARK    1  A    between atoms: C_4  and  O_5 
REMARK    2  A    between atoms: O_5  and  C_6 
REMARK    3  A    between atoms: C_6  and  C_7 
REMARK       I    between atoms: C_7  and  N_8 
REMARK    4  A    between atoms: N_8  and  N_9 
REMARK    5  A    between atoms: C_10  and  C_11 
REMARK    6  A    between atoms: C_23  and  C_24 
ROOT
HETATM    1  C   UNL     1       4.973  27.229  51.895  1.00  0.00     0.261 C 
HETATM    2  N   UNL     1       4.376  26.583  52.973  1.00  0.00    -0.246 N 
HETATM    3  O   UNL     1       6.149  27.125  51.552  1.00  0.00    -0.269 OA
HETATM    4  H   UNL     1       3.358  26.543  52.983  1.00  0.00     0.192 HD
ENDROOT
BRANCH   2   5
HETATM    5  N   UNL     1       4.983  25.724  53.865  1.00  0.00    -0.184 NA
HETATM    6  C   UNL     1       5.992  26.146  54.555  1.00  0.00     0.152 C 
BRANCH   6   7
HETATM    7  C   UNL     1       6.659  25.268  55.500  1.00  0.00     0.011 A 
HETATM    8  C   UNL     1       7.233  23.966  55.320  1.00  0.00     0.005 A 
HETATM    9  C   UNL     1       7.730  23.554  56.561  1.00  0.00     0.043 A 
HETATM   10  C   UNL     1       7.367  23.086  54.225  1.00  0.00     0.033 A 
HETATM   11  C   UNL     1       8.353  22.316  56.762  1.00  0.00     0.031 A 
HETATM   12  N   UNL     1       7.480  24.566  57.456  1.00  0.00    -0.364 N 
HETATM   13  C   UNL     1       8.468  21.462  55.663  1.00  0.00     0.021 A 
HETATM   14  C   UNL     1       7.982  21.844  54.415  1.00  0.00     0.012 A 
HETATM   15 BR   UNL     1       8.150  20.657  52.951  1.00  0.00    -0.051 Br
HETATM   16  H   UNL     1       7.737  24.543  58.433  1.00  0.00     0.165 HD
HETATM   17  C   UNL     1       6.827  25.594  56.835  1.00  0.00     0.102 A 
ENDBRANCH   6   7
ENDBRANCH   2   5
BRANCH   1  18
HETATM   18  C   UNL     1       4.036  28.214  51.206  1.00  0.00     0.280 C 
BRANCH  18  19
HETATM   19  O   UNL     1       4.435  28.478  49.864  1.00  0.00    -0.341 OA
BRANCH  19  20
HETATM   20  C   UNL     1       3.723  27.754  48.935  1.00  0.00     0.076 A 
HETATM   21  C   UNL     1       3.740  26.351  48.918  1.00  0.00     0.044 A 
HETATM   22  C   UNL     1       2.991  25.632  47.980  1.00  0.00    -0.059 A 
HETATM   23  C   UNL     1       2.966  24.133  48.001  1.00  0.00     0.048 C 
HETATM   24  C   UNL     1       2.218  26.335  47.056  1.00  0.00     0.007 A 
HETATM   25  C   UNL     1       2.221  27.732  47.046  1.00  0.00     0.011 A 
HETATM   26  C   UNL     1       2.988  28.467  47.968  1.00  0.00    -0.021 A 
BRANCH  26  27
HETATM   27  C   UNL     1       2.963  29.989  47.958  1.00  0.00     0.013 C 
HETATM   28  C   UNL     1       3.183  30.592  46.563  1.00  0.00     0.015 C 
HETATM   29  C   UNL     1       1.652  30.502  48.560  1.00  0.00     0.015 C 
ENDBRANCH  26  27
ENDBRANCH  19  20
ENDBRANCH  18  19
ENDBRANCH   1  18
TORSDOF 6
ENDMDL
