MODEL 1
REMARK VINA RESULT:      -9.3      0.000      0.000
REMARK  3 active torsions:
REMARK  status: ('A' for Active; 'I' for Inactive)
REMARK    1  A    between atoms: C_4  and  N_5 
REMARK       I    between atoms: N_5  and  C_6 
REMARK    2  A    between atoms: C_6  and  C_7 
REMARK    3  A    between atoms: C_7  and  C_8 
ROOT
HETATM    1  C   UNL     1       5.829  28.038  54.513  1.00  0.00     0.286 C 
HETATM    2  N   UNL     1       7.201  28.747  54.430  1.00  0.00    -0.056 N 
HETATM    3  H   UNL     1       7.747  28.373  53.643  1.00  0.00     0.278 HD
HETATM    4  H   UNL     1       7.021  29.738  54.216  1.00  0.00     0.278 HD
HETATM    5  C   UNL     1       7.968  28.647  55.727  1.00  0.00     0.209 C 
HETATM    6  C   UNL     1       7.117  29.264  56.857  1.00  0.00     0.115 C 
HETATM    7  N   UNL     1       5.786  28.678  56.924  1.00  0.00    -0.353 N 
HETATM    8  C   UNL     1       5.049  28.457  55.781  1.00  0.00     0.249 C 
HETATM    9  O   UNL     1       3.830  28.596  55.780  1.00  0.00    -0.271 OA
HETATM   10  C   UNL     1       9.308  29.362  55.595  1.00  0.00     0.035 C 
HETATM   11  C   UNL     1      10.070  29.298  56.919  1.00  0.00     0.002 C 
HETATM   12  C   UNL     1       9.241  29.824  58.093  1.00  0.00     0.002 C 
HETATM   13  C   UNL     1       7.865  29.157  58.186  1.00  0.00     0.027 C 
HETATM   14  H   UNL     1       5.187  28.956  57.701  1.00  0.00     0.163 HD
ENDROOT
BRANCH   1  15
HETATM   15  C   UNL     1       6.040  26.538  54.283  1.00  0.00     0.146 C 
BRANCH  15  16
HETATM   16  C   UNL     1       6.641  26.235  52.931  1.00  0.00     0.224 C 
HETATM   17  N   UNL     1       7.600  25.281  52.786  1.00  0.00    -0.327 N 
HETATM   18  H   UNL     1       8.103  25.364  51.907  1.00  0.00     0.169 HD
HETATM   19  O   UNL     1       6.296  26.903  51.956  1.00  0.00    -0.273 OA
BRANCH  17  20
HETATM   20  C   UNL     1       7.887  24.124  53.534  1.00  0.00     0.035 A 
HETATM   21  C   UNL     1       8.026  24.114  54.925  1.00  0.00     0.036 A 
HETATM   22  C   UNL     1       8.290  22.920  55.611  1.00  0.00    -0.059 A 
HETATM   23  C   UNL     1       8.413  22.898  57.107  1.00  0.00     0.048 C 
HETATM   24  C   UNL     1       8.370  21.722  54.893  1.00  0.00     0.013 A 
HETATM   25  C   UNL     1       8.187  21.706  53.507  1.00  0.00    -0.059 A 
HETATM   26  C   UNL     1       7.937  22.911  52.837  1.00  0.00     0.036 A 
HETATM   27  C   UNL     1       8.234  20.402  52.763  1.00  0.00     0.048 C 
ENDBRANCH  17  20
ENDBRANCH  15  16
ENDBRANCH   1  15
TORSDOF 3
ENDMDL
MODEL 2
REMARK VINA RESULT:      -9.3      0.143      1.794
REMARK  3 active torsions:
REMARK  status: ('A' for Active; 'I' for Inactive)
REMARK    1  A    between atoms: C_4  and  N_5 
REMARK       I    between atoms: N_5  and  C_6 
REMARK    2  A    between atoms: C_6  and  C_7 
REMARK    3  A    between atoms: C_7  and  C_8 
ROOT
HETATM    1  C   UNL     1       5.764  28.104  54.566  1.00  0.00     0.286 C 
HETATM    2  N   UNL     1       7.136  28.812  54.481  1.00  0.00    -0.056 N 
HETATM    3  H   UNL     1       7.664  28.466  53.669  1.00  0.00     0.278 HD
HETATM    4  H   UNL     1       6.956  29.811  54.308  1.00  0.00     0.278 HD
HETATM    5  C   UNL     1       7.931  28.662  55.756  1.00  0.00     0.209 C 
HETATM    6  C   UNL     1       7.106  29.239  56.927  1.00  0.00     0.115 C 
HETATM    7  N   UNL     1       5.775  28.655  57.000  1.00  0.00    -0.353 N 
HETATM    8  C   UNL     1       5.012  28.479  55.866  1.00  0.00     0.249 C 
HETATM    9  O   UNL     1       3.795  28.621  55.897  1.00  0.00    -0.271 OA
HETATM   10  C   UNL     1       9.270  29.377  55.622  1.00  0.00     0.035 C 
HETATM   11  C   UNL     1      10.060  29.262  56.926  1.00  0.00     0.002 C 
HETATM   12  C   UNL     1       9.258  29.747  58.136  1.00  0.00     0.002 C 
HETATM   13  C   UNL     1       7.882  29.081  58.234  1.00  0.00     0.027 C 
HETATM   14  H   UNL     1       5.194  28.907  57.800  1.00  0.00     0.163 HD
ENDROOT
BRANCH   1  15
HETATM   15  C   UNL     1       5.964  26.614  54.277  1.00  0.00     0.146 C 
BRANCH  15  16
HETATM   16  C   UNL     1       6.571  26.361  52.917  1.00  0.00     0.224 C 
HETATM   17  N   UNL     1       7.497  25.382  52.733  1.00  0.00    -0.327 N 
HETATM   18  H   UNL     1       8.015  25.493  51.864  1.00  0.00     0.169 HD
HETATM   19  O   UNL     1       6.263  27.091  51.975  1.00  0.00    -0.273 OA
BRANCH  17  20
HETATM   20  C   UNL     1       7.734  24.177  53.421  1.00  0.00     0.035 A 
HETATM   21  C   UNL     1       7.862  22.936  52.790  1.00  0.00     0.036 A 
HETATM   22  C   UNL     1       8.121  21.777  53.535  1.00  0.00    -0.059 A 
HETATM   23  C   UNL     1       8.286  20.445  52.861  1.00  0.00     0.048 C 
HETATM   24  C   UNL     1       8.296  21.878  54.919  1.00  0.00     0.013 A 
HETATM   25  C   UNL     1       8.220  23.118  55.561  1.00  0.00    -0.059 A 
HETATM   26  C   UNL     1       7.946  24.264  54.802  1.00  0.00     0.036 A 
HETATM   27  C   UNL     1       8.455  23.207  57.041  1.00  0.00     0.048 C 
ENDBRANCH  17  20
ENDBRANCH  15  16
ENDBRANCH   1  15
TORSDOF 3
ENDMDL
MODEL 3
REMARK VINA RESULT:      -9.2      2.262      7.035
REMARK  3 active torsions:
REMARK  status: ('A' for Active; 'I' for Inactive)
REMARK    1  A    between atoms: C_4  and  N_5 
REMARK       I    between atoms: N_5  and  C_6 
REMARK    2  A    between atoms: C_6  and  C_7 
REMARK    3  A    between atoms: C_7  and  C_8 
ROOT
HETATM    1  C   UNL     1       8.019  25.201  56.278  1.00  0.00     0.286 C 
HETATM    2  N   UNL     1       8.290  24.575  54.890  1.00  0.00    -0.056 N 
HETATM    3  H   UNL     1       7.854  25.143  54.153  1.00  0.00     0.278 HD
HETATM    4  H   UNL     1       9.306  24.617  54.728  1.00  0.00     0.278 HD
HETATM    5  C   UNL     1       7.832  23.138  54.818  1.00  0.00     0.209 C 
HETATM    6  C   UNL     1       8.555  22.330  55.917  1.00  0.00     0.115 C 
HETATM    7  N   UNL     1       8.389  22.926  57.235  1.00  0.00    -0.353 N 
HETATM    8  C   UNL     1       8.518  24.286  57.421  1.00  0.00     0.249 C 
HETATM    9  O   UNL     1       9.014  24.737  58.448  1.00  0.00    -0.271 OA
HETATM   10  C   UNL     1       8.125  22.567  53.435  1.00  0.00     0.035 C 
HETATM   11  C   UNL     1       7.699  21.100  53.372  1.00  0.00     0.002 C 
HETATM   12  C   UNL     1       8.324  20.265  54.492  1.00  0.00     0.002 C 
HETATM   13  C   UNL     1       8.093  20.873  55.878  1.00  0.00     0.027 C 
HETATM   14  H   UNL     1       8.752  22.408  58.035  1.00  0.00     0.163 HD
ENDROOT
BRANCH   1  15
HETATM   15  C   UNL     1       6.557  25.655  56.331  1.00  0.00     0.146 C 
BRANCH  15  16
HETATM   16  C   UNL     1       6.208  26.625  55.227  1.00  0.00     0.224 C 
HETATM   17  N   UNL     1       6.359  27.966  55.398  1.00  0.00    -0.327 N 
HETATM   18  H   UNL     1       5.844  28.508  54.708  1.00  0.00     0.169 HD
HETATM   19  O   UNL     1       5.724  26.197  54.179  1.00  0.00    -0.273 OA
BRANCH  17  20
HETATM   20  C   UNL     1       7.222  28.712  56.223  1.00  0.00     0.035 A 
HETATM   21  C   UNL     1       8.614  28.703  56.098  1.00  0.00     0.036 A 
HETATM   22  C   UNL     1       9.414  29.490  56.938  1.00  0.00    -0.059 A 
HETATM   23  C   UNL     1      10.909  29.505  56.791  1.00  0.00     0.048 C 
HETATM   24  C   UNL     1       8.804  30.323  57.881  1.00  0.00     0.013 A 
HETATM   25  C   UNL     1       7.411  30.381  57.988  1.00  0.00    -0.059 A 
HETATM   26  C   UNL     1       6.627  29.577  57.148  1.00  0.00     0.036 A 
HETATM   27  C   UNL     1       6.777  31.315  58.978  1.00  0.00     0.048 C 
ENDBRANCH  17  20
ENDBRANCH  15  16
ENDBRANCH   1  15
TORSDOF 3
ENDMDL
MODEL 4
REMARK VINA RESULT:      -8.9      2.007      3.362
REMARK  3 active torsions:
REMARK  status: ('A' for Active; 'I' for Inactive)
REMARK    1  A    between atoms: C_4  and  N_5 
REMARK       I    between atoms: N_5  and  C_6 
REMARK    2  A    between atoms: C_6  and  C_7 
REMARK    3  A    between atoms: C_7  and  C_8 
ROOT
HETATM    1  C   UNL     1       5.510  25.981  56.626  1.00  0.00     0.286 C 
HETATM    2  N   UNL     1       4.386  27.040  56.715  1.00  0.00    -0.056 N 
HETATM    3  H   UNL     1       3.571  26.740  56.165  1.00  0.00     0.278 HD
HETATM    4  H   UNL     1       4.077  27.077  57.697  1.00  0.00     0.278 HD
HETATM    5  C   UNL     1       4.863  28.407  56.289  1.00  0.00     0.209 C 
HETATM    6  C   UNL     1       6.054  28.819  57.180  1.00  0.00     0.115 C 
HETATM    7  N   UNL     1       7.107  27.814  57.187  1.00  0.00    -0.353 N 
HETATM    8  C   UNL     1       6.809  26.474  57.306  1.00  0.00     0.249 C 
HETATM    9  O   UNL     1       7.546  25.717  57.929  1.00  0.00    -0.271 OA
HETATM   10  C   UNL     1       3.722  29.413  56.398  1.00  0.00     0.035 C 
HETATM   11  C   UNL     1       4.212  30.807  56.005  1.00  0.00     0.002 C 
HETATM   12  C   UNL     1       5.446  31.236  56.804  1.00  0.00     0.002 C 
HETATM   13  C   UNL     1       6.568  30.195  56.755  1.00  0.00     0.027 C 
HETATM   14  H   UNL     1       7.974  28.044  57.672  1.00  0.00     0.163 HD
ENDROOT
BRANCH   1  15
HETATM   15  C   UNL     1       5.615  25.502  55.175  1.00  0.00     0.146 C 
BRANCH  15  16
HETATM   16  C   UNL     1       6.942  25.848  54.542  1.00  0.00     0.224 C 
HETATM   17  N   UNL     1       7.992  24.985  54.596  1.00  0.00    -0.327 N 
HETATM   18  H   UNL     1       8.879  25.437  54.384  1.00  0.00     0.169 HD
HETATM   19  O   UNL     1       7.090  26.954  54.021  1.00  0.00    -0.273 OA
BRANCH  17  20
HETATM   20  C   UNL     1       8.045  23.583  54.710  1.00  0.00     0.035 A 
HETATM   21  C   UNL     1       8.082  22.717  53.613  1.00  0.00     0.036 A 
HETATM   22  C   UNL     1       8.159  21.330  53.798  1.00  0.00    -0.059 A 
HETATM   23  C   UNL     1       8.226  20.396  52.623  1.00  0.00     0.048 C 
HETATM   24  C   UNL     1       8.242  20.816  55.096  1.00  0.00     0.013 A 
HETATM   25  C   UNL     1       8.255  21.670  56.203  1.00  0.00    -0.059 A 
HETATM   26  C   UNL     1       8.165  23.053  55.999  1.00  0.00     0.036 A 
HETATM   27  C   UNL     1       8.390  21.097  57.585  1.00  0.00     0.048 C 
ENDBRANCH  17  20
ENDBRANCH  15  16
ENDBRANCH   1  15
TORSDOF 3
ENDMDL
MODEL 5
REMARK VINA RESULT:      -8.8      2.463      4.223
REMARK  3 active torsions:
REMARK  status: ('A' for Active; 'I' for Inactive)
REMARK    1  A    between atoms: C_4  and  N_5 
REMARK       I    between atoms: N_5  and  C_6 
REMARK    2  A    between atoms: C_6  and  C_7 
REMARK    3  A    between atoms: C_7  and  C_8 
ROOT
HETATM    1  C   UNL     1       5.697  27.103  56.481  1.00  0.00     0.286 C 
HETATM    2  N   UNL     1       5.073  26.347  55.285  1.00  0.00    -0.056 N 
HETATM    3  H   UNL     1       5.464  25.398  55.222  1.00  0.00     0.278 HD
HETATM    4  H   UNL     1       4.069  26.235  55.483  1.00  0.00     0.278 HD
HETATM    5  C   UNL     1       5.245  27.099  53.987  1.00  0.00     0.209 C 
HETATM    6  C   UNL     1       4.598  28.493  54.131  1.00  0.00     0.115 C 
HETATM    7  N   UNL     1       5.102  29.215  55.291  1.00  0.00    -0.353 N 
HETATM    8  C   UNL     1       5.254  28.586  56.507  1.00  0.00     0.249 C 
HETATM    9  O   UNL     1       5.040  29.183  57.557  1.00  0.00    -0.271 OA
HETATM   10  C   UNL     1       4.612  26.315  52.844  1.00  0.00     0.035 C 
HETATM   11  C   UNL     1       4.748  27.094  51.534  1.00  0.00     0.002 C 
HETATM   12  C   UNL     1       4.195  28.516  51.643  1.00  0.00     0.002 C 
HETATM   13  C   UNL     1       4.776  29.283  52.834  1.00  0.00     0.027 C 
HETATM   14  H   UNL     1       4.801  30.182  55.411  1.00  0.00     0.163 HD
ENDROOT
BRANCH   1  15
HETATM   15  C   UNL     1       7.202  26.820  56.505  1.00  0.00     0.146 C 
BRANCH  15  16
HETATM   16  C   UNL     1       7.563  25.670  57.415  1.00  0.00     0.224 C 
HETATM   17  N   UNL     1       7.505  24.383  56.977  1.00  0.00    -0.327 N 
HETATM   18  H   UNL     1       7.503  23.711  57.740  1.00  0.00     0.169 HD
HETATM   19  O   UNL     1       7.859  25.900  58.588  1.00  0.00    -0.273 OA
BRANCH  17  20
HETATM   20  C   UNL     1       7.628  23.828  55.690  1.00  0.00     0.035 A 
HETATM   21  C   UNL     1       7.684  24.589  54.518  1.00  0.00     0.036 A 
HETATM   22  C   UNL     1       7.831  23.972  53.268  1.00  0.00    -0.059 A 
HETATM   23  C   UNL     1       7.919  24.786  52.009  1.00  0.00     0.048 C 
HETATM   24  C   UNL     1       7.967  22.581  53.204  1.00  0.00     0.013 A 
HETATM   25  C   UNL     1       7.961  21.808  54.368  1.00  0.00    -0.059 A 
HETATM   26  C   UNL     1       7.800  22.441  55.608  1.00  0.00     0.036 A 
HETATM   27  C   UNL     1       8.152  20.321  54.278  1.00  0.00     0.048 C 
ENDBRANCH  17  20
ENDBRANCH  15  16
ENDBRANCH   1  15
TORSDOF 3
ENDMDL
MODEL 6
REMARK VINA RESULT:      -8.8      2.275      3.999
REMARK  3 active torsions:
REMARK  status: ('A' for Active; 'I' for Inactive)
REMARK    1  A    between atoms: C_4  and  N_5 
REMARK       I    between atoms: N_5  and  C_6 
REMARK    2  A    between atoms: C_6  and  C_7 
REMARK    3  A    between atoms: C_7  and  C_8 
ROOT
HETATM    1  C   UNL     1       7.132  27.764  56.202  1.00  0.00     0.286 C 
HETATM    2  N   UNL     1       6.466  28.760  57.180  1.00  0.00    -0.056 N 
HETATM    3  H   UNL     1       6.411  28.349  58.121  1.00  0.00     0.278 HD
HETATM    4  H   UNL     1       7.087  29.578  57.255  1.00  0.00     0.278 HD
HETATM    5  C   UNL     1       5.108  29.206  56.696  1.00  0.00     0.209 C 
HETATM    6  C   UNL     1       5.264  29.853  55.302  1.00  0.00     0.115 C 
HETATM    7  N   UNL     1       5.956  28.979  54.366  1.00  0.00    -0.353 N 
HETATM    8  C   UNL     1       7.083  28.282  54.745  1.00  0.00     0.249 C 
HETATM    9  O   UNL     1       8.001  28.093  53.955  1.00  0.00    -0.271 OA
HETATM   10  C   UNL     1       4.497  30.186  57.690  1.00  0.00     0.035 C 
HETATM   11  C   UNL     1       3.138  30.672  57.182  1.00  0.00     0.002 C 
HETATM   12  C   UNL     1       3.220  31.251  55.768  1.00  0.00     0.002 C 
HETATM   13  C   UNL     1       3.897  30.297  54.781  1.00  0.00     0.027 C 
HETATM   14  H   UNL     1       6.019  29.284  53.395  1.00  0.00     0.163 HD
ENDROOT
BRANCH   1  15
HETATM   15  C   UNL     1       6.567  26.366  56.469  1.00  0.00     0.146 C 
BRANCH  15  16
HETATM   16  C   UNL     1       7.515  25.495  57.258  1.00  0.00     0.224 C 
HETATM   17  N   UNL     1       7.852  24.250  56.824  1.00  0.00    -0.327 N 
HETATM   18  H   UNL     1       8.262  23.679  57.559  1.00  0.00     0.169 HD
HETATM   19  O   UNL     1       7.943  25.898  58.340  1.00  0.00    -0.273 OA
BRANCH  17  20
HETATM   20  C   UNL     1       7.900  23.692  55.533  1.00  0.00     0.035 A 
HETATM   21  C   UNL     1       7.938  22.317  55.285  1.00  0.00     0.036 A 
HETATM   22  C   UNL     1       7.961  21.826  53.971  1.00  0.00    -0.059 A 
HETATM   23  C   UNL     1       7.975  20.349  53.697  1.00  0.00     0.048 C 
HETATM   24  C   UNL     1       7.900  22.727  52.903  1.00  0.00     0.013 A 
HETATM   25  C   UNL     1       7.813  24.103  53.133  1.00  0.00    -0.059 A 
HETATM   26  C   UNL     1       7.805  24.576  54.453  1.00  0.00     0.036 A 
HETATM   27  C   UNL     1       7.704  25.049  51.971  1.00  0.00     0.048 C 
ENDBRANCH  17  20
ENDBRANCH  15  16
ENDBRANCH   1  15
TORSDOF 3
ENDMDL
MODEL 7
REMARK VINA RESULT:      -8.8      2.153      3.047
REMARK  3 active torsions:
REMARK  status: ('A' for Active; 'I' for Inactive)
REMARK    1  A    between atoms: C_4  and  N_5 
REMARK       I    between atoms: N_5  and  C_6 
REMARK    2  A    between atoms: C_6  and  C_7 
REMARK    3  A    between atoms: C_7  and  C_8 
ROOT
HETATM    1  C   UNL     1       6.822  27.438  55.809  1.00  0.00     0.286 C 
HETATM    2  N   UNL     1       7.839  28.249  56.645  1.00  0.00    -0.056 N 
HETATM    3  H   UNL     1       8.481  27.614  57.136  1.00  0.00     0.278 HD
HETATM    4  H   UNL     1       8.414  28.792  55.985  1.00  0.00     0.278 HD
HETATM    5  C   UNL     1       7.158  29.192  57.607  1.00  0.00     0.209 C 
HETATM    6  C   UNL     1       6.246  30.146  56.805  1.00  0.00     0.115 C 
HETATM    7  N   UNL     1       5.319  29.426  55.945  1.00  0.00    -0.353 N 
HETATM    8  C   UNL     1       5.740  28.353  55.188  1.00  0.00     0.249 C 
HETATM    9  O   UNL     1       5.274  28.148  54.073  1.00  0.00    -0.271 OA
HETATM   10  C   UNL     1       8.201  29.968  58.402  1.00  0.00     0.035 C 
HETATM   11  C   UNL     1       7.514  30.954  59.348  1.00  0.00     0.002 C 
HETATM   12  C   UNL     1       6.535  31.874  58.617  1.00  0.00     0.002 C 
HETATM   13  C   UNL     1       5.528  31.101  57.761  1.00  0.00     0.027 C 
HETATM   14  H   UNL     1       4.614  29.972  55.450  1.00  0.00     0.163 HD
ENDROOT
BRANCH   1  15
HETATM   15  C   UNL     1       6.339  26.250  56.646  1.00  0.00     0.146 C 
BRANCH  15  16
HETATM   16  C   UNL     1       7.476  25.481  57.277  1.00  0.00     0.224 C 
HETATM   17  N   UNL     1       7.899  24.298  56.754  1.00  0.00    -0.327 N 
HETATM   18  H   UNL     1       8.464  23.762  57.408  1.00  0.00     0.169 HD
HETATM   19  O   UNL     1       7.988  25.905  58.313  1.00  0.00    -0.273 OA
BRANCH  17  20
HETATM   20  C   UNL     1       7.847  23.783  55.445  1.00  0.00     0.035 A 
HETATM   21  C   UNL     1       7.733  24.579  54.302  1.00  0.00     0.036 A 
HETATM   22  C   UNL     1       7.711  24.002  53.025  1.00  0.00    -0.059 A 
HETATM   23  C   UNL     1       7.615  24.854  51.792  1.00  0.00     0.048 C 
HETATM   24  C   UNL     1       7.848  22.616  52.898  1.00  0.00     0.013 A 
HETATM   25  C   UNL     1       8.011  21.808  54.028  1.00  0.00    -0.059 A 
HETATM   26  C   UNL     1       8.018  22.402  55.298  1.00  0.00     0.036 A 
HETATM   27  C   UNL     1       8.201  20.327  53.865  1.00  0.00     0.048 C 
ENDBRANCH  17  20
ENDBRANCH  15  16
ENDBRANCH   1  15
TORSDOF 3
ENDMDL
MODEL 8
REMARK VINA RESULT:      -8.6      1.860      5.784
REMARK  3 active torsions:
REMARK  status: ('A' for Active; 'I' for Inactive)
REMARK    1  A    between atoms: C_4  and  N_5 
REMARK       I    between atoms: N_5  and  C_6 
REMARK    2  A    between atoms: C_6  and  C_7 
REMARK    3  A    between atoms: C_7  and  C_8 
ROOT
HETATM    1  C   UNL     1       4.645  27.460  52.655  1.00  0.00     0.286 C 
HETATM    2  N   UNL     1       4.843  26.297  53.654  1.00  0.00    -0.056 N 
HETATM    3  H   UNL     1       4.680  26.624  54.616  1.00  0.00     0.278 HD
HETATM    4  H   UNL     1       4.114  25.596  53.457  1.00  0.00     0.278 HD
HETATM    5  C   UNL     1       6.203  25.656  53.515  1.00  0.00     0.209 C 
HETATM    6  C   UNL     1       6.367  25.147  52.067  1.00  0.00     0.115 C 
HETATM    7  N   UNL     1       6.115  26.193  51.086  1.00  0.00    -0.353 N 
HETATM    8  C   UNL     1       5.042  27.046  51.217  1.00  0.00     0.249 C 
HETATM    9  O   UNL     1       4.432  27.449  50.232  1.00  0.00    -0.271 OA
HETATM   10  C   UNL     1       6.345  24.516  54.518  1.00  0.00     0.035 C 
HETATM   11  C   UNL     1       7.706  23.838  54.351  1.00  0.00     0.002 C 
HETATM   12  C   UNL     1       7.957  23.384  52.912  1.00  0.00     0.002 C 
HETATM   13  C   UNL     1       7.746  24.509  51.895  1.00  0.00     0.027 C 
HETATM   14  H   UNL     1       6.294  25.972  50.107  1.00  0.00     0.163 HD
ENDROOT
BRANCH   1  15
HETATM   15  C   UNL     1       5.307  28.716  53.230  1.00  0.00     0.146 C 
BRANCH  15  16
HETATM   16  C   UNL     1       4.601  29.234  54.462  1.00  0.00     0.224 C 
HETATM   17  N   UNL     1       4.988  28.847  55.707  1.00  0.00    -0.327 N 
HETATM   18  H   UNL     1       4.281  29.040  56.412  1.00  0.00     0.169 HD
HETATM   19  O   UNL     1       3.624  29.971  54.330  1.00  0.00    -0.273 OA
BRANCH  17  20
HETATM   20  C   UNL     1       6.228  28.408  56.207  1.00  0.00     0.035 A 
HETATM   21  C   UNL     1       6.421  27.168  56.823  1.00  0.00     0.036 A 
HETATM   22  C   UNL     1       7.691  26.783  57.277  1.00  0.00    -0.059 A 
HETATM   23  C   UNL     1       7.910  25.442  57.916  1.00  0.00     0.048 C 
HETATM   24  C   UNL     1       8.779  27.637  57.070  1.00  0.00     0.013 A 
HETATM   25  C   UNL     1       8.614  28.860  56.413  1.00  0.00    -0.059 A 
HETATM   26  C   UNL     1       7.335  29.234  55.978  1.00  0.00     0.036 A 
HETATM   27  C   UNL     1       9.805  29.740  56.163  1.00  0.00     0.048 C 
ENDBRANCH  17  20
ENDBRANCH  15  16
ENDBRANCH   1  15
TORSDOF 3
ENDMDL
MODEL 9
REMARK VINA RESULT:      -8.5      1.645      6.949
REMARK  3 active torsions:
REMARK  status: ('A' for Active; 'I' for Inactive)
REMARK    1  A    between atoms: C_4  and  N_5 
REMARK       I    between atoms: N_5  and  C_6 
REMARK    2  A    between atoms: C_6  and  C_7 
REMARK    3  A    between atoms: C_7  and  C_8 
ROOT
HETATM    1  C   UNL     1       5.287  27.756  54.294  1.00  0.00     0.286 C 
HETATM    2  N   UNL     1       5.265  26.270  54.720  1.00  0.00    -0.056 N 
HETATM    3  H   UNL     1       5.129  26.194  55.736  1.00  0.00     0.278 HD
HETATM    4  H   UNL     1       4.438  25.838  54.282  1.00  0.00     0.278 HD
HETATM    5  C   UNL     1       6.506  25.535  54.275  1.00  0.00     0.209 C 
HETATM    6  C   UNL     1       6.628  25.647  52.740  1.00  0.00     0.115 C 
HETATM    7  N   UNL     1       6.578  27.029  52.286  1.00  0.00    -0.353 N 
HETATM    8  C   UNL     1       5.653  27.913  52.799  1.00  0.00     0.249 C 
HETATM    9  O   UNL     1       5.146  28.776  52.091  1.00  0.00    -0.271 OA
HETATM   10  C   UNL     1       6.433  24.077  54.715  1.00  0.00     0.035 C 
HETATM   11  C   UNL     1       7.671  23.320  54.231  1.00  0.00     0.002 C 
HETATM   12  C   UNL     1       7.887  23.464  52.723  1.00  0.00     0.002 C 
HETATM   13  C   UNL     1       7.890  24.926  52.267  1.00  0.00     0.027 C 
HETATM   14  H   UNL     1       6.747  27.206  51.296  1.00  0.00     0.163 HD
ENDROOT
BRANCH   1  15
HETATM   15  C   UNL     1       6.126  28.541  55.307  1.00  0.00     0.146 C 
BRANCH  15  16
HETATM   16  C   UNL     1       5.445  28.674  56.649  1.00  0.00     0.224 C 
HETATM   17  N   UNL     1       6.164  28.893  57.783  1.00  0.00    -0.327 N 
HETATM   18  H   UNL     1       5.633  28.691  58.627  1.00  0.00     0.169 HD
HETATM   19  O   UNL     1       4.226  28.522  56.723  1.00  0.00    -0.273 OA
BRANCH  17  20
HETATM   20  C   UNL     1       7.414  29.506  57.994  1.00  0.00     0.035 A 
HETATM   21  C   UNL     1       8.573  29.163  57.291  1.00  0.00     0.036 A 
HETATM   22  C   UNL     1       9.782  29.831  57.534  1.00  0.00    -0.059 A 
HETATM   23  C   UNL     1      11.024  29.486  56.764  1.00  0.00     0.048 C 
HETATM   24  C   UNL     1       9.811  30.879  58.460  1.00  0.00     0.013 A 
HETATM   25  C   UNL     1       8.650  31.267  59.137  1.00  0.00    -0.059 A 
HETATM   26  C   UNL     1       7.454  30.579  58.891  1.00  0.00     0.036 A 
HETATM   27  C   UNL     1       8.696  32.423  60.093  1.00  0.00     0.048 C 
ENDBRANCH  17  20
ENDBRANCH  15  16
ENDBRANCH   1  15
TORSDOF 3
ENDMDL
MODEL 10
REMARK VINA RESULT:      -8.4      2.058      2.762
REMARK  3 active torsions:
REMARK  status: ('A' for Active; 'I' for Inactive)
REMARK    1  A    between atoms: C_4  and  N_5 
REMARK       I    between atoms: N_5  and  C_6 
REMARK    2  A    between atoms: C_6  and  C_7 
REMARK    3  A    between atoms: C_7  and  C_8 
ROOT
HETATM    1  C   UNL     1       5.958  28.095  56.386  1.00  0.00     0.286 C 
HETATM    2  N   UNL     1       7.285  28.403  55.654  1.00  0.00    -0.056 N 
HETATM    3  H   UNL     1       7.555  27.608  55.060  1.00  0.00     0.278 HD
HETATM    4  H   UNL     1       7.109  29.195  55.020  1.00  0.00     0.278 HD
HETATM    5  C   UNL     1       8.390  28.769  56.615  1.00  0.00     0.209 C 
HETATM    6  C   UNL     1       7.942  29.993  57.444  1.00  0.00     0.115 C 
HETATM    7  N   UNL     1       6.657  29.777  58.092  1.00  0.00    -0.353 N 
HETATM    8  C   UNL     1       5.607  29.199  57.412  1.00  0.00     0.249 C 
HETATM    9  O   UNL     1       4.451  29.555  57.616  1.00  0.00    -0.271 OA
HETATM   10  C   UNL     1       9.672  29.066  55.846  1.00  0.00     0.035 C 
HETATM   11  C   UNL     1      10.782  29.477  56.814  1.00  0.00     0.002 C 
HETATM   12  C   UNL     1      10.363  30.638  57.719  1.00  0.00     0.002 C 
HETATM   13  C   UNL     1       9.038  30.373  58.440  1.00  0.00     0.027 C 
HETATM   14  H   UNL     1       6.328  30.495  58.737  1.00  0.00     0.163 HD
ENDROOT
BRANCH   1  15
HETATM   15  C   UNL     1       6.005  26.652  56.896  1.00  0.00     0.146 C 
BRANCH  15  16
HETATM   16  C   UNL     1       7.379  26.249  57.377  1.00  0.00     0.224 C 
HETATM   17  N   UNL     1       7.988  25.128  56.903  1.00  0.00    -0.327 N 
HETATM   18  H   UNL     1       8.761  24.827  57.491  1.00  0.00     0.169 HD
HETATM   19  O   UNL     1       7.929  26.915  58.254  1.00  0.00    -0.273 OA
BRANCH  17  20
HETATM   20  C   UNL     1       7.857  24.438  55.684  1.00  0.00     0.035 A 
HETATM   21  C   UNL     1       7.793  25.070  54.439  1.00  0.00     0.036 A 
HETATM   22  C   UNL     1       7.687  24.320  53.259  1.00  0.00    -0.059 A 
HETATM   23  C   UNL     1       7.643  24.992  51.916  1.00  0.00     0.048 C 
HETATM   24  C   UNL     1       7.690  22.923  53.333  1.00  0.00     0.013 A 
HETATM   25  C   UNL     1       7.803  22.274  54.567  1.00  0.00    -0.059 A 
HETATM   26  C   UNL     1       7.894  23.040  55.736  1.00  0.00     0.036 A 
HETATM   27  C   UNL     1       7.849  20.773  54.618  1.00  0.00     0.048 C 
ENDBRANCH  17  20
ENDBRANCH  15  16
ENDBRANCH   1  15
TORSDOF 3
ENDMDL
