MODEL 1
REMARK VINA RESULT:      -9.3      0.000      0.000
REMARK  6 active torsions:
REMARK  status: ('A' for Active; 'I' for Inactive)
REMARK    1  A    between atoms: N_2  and  C_4 
REMARK    2  A    between atoms: C_4  and  C_5 
REMARK    3  A    between atoms: C_5  and  C_6 
REMARK    4  A    between atoms: C_6  and  N_7 
REMARK    5  A    between atoms: C_17  and  C_18 
REMARK    6  A    between atoms: C_26  and  O_27 
ROOT
HETATM    1  N   UNL     1       4.986  26.607  50.895  1.00  0.00    -0.327 N 
HETATM    2  C   UNL     1       5.057  25.951  52.058  1.00  0.00     0.113 C 
HETATM    3  N   UNL     1       4.462  24.797  52.297  1.00  0.00    -0.385 N 
HETATM    4  H   UNL     1       4.548  24.322  53.189  1.00  0.00     0.157 HD
HETATM    5  H   UNL     1       3.823  24.339  51.664  1.00  0.00     0.157 HD
HETATM    6  C   UNL     1       5.904  26.566  53.133  1.00  0.00     0.052 C 
HETATM    7  C   UNL     1       6.450  27.775  52.901  1.00  0.00     0.182 C 
HETATM    8  O   UNL     1       7.257  28.427  53.817  1.00  0.00    -0.291 OA
HETATM    9  C   UNL     1       7.352  27.955  55.100  1.00  0.00     0.087 A 
HETATM   10  C   UNL     1       6.815  26.724  55.482  1.00  0.00    -0.011 A 
HETATM   11  C   UNL     1       6.135  25.852  54.452  1.00  0.00     0.095 C 
HETATM   12  C   UNL     1       8.013  28.771  56.020  1.00  0.00     0.074 A 
HETATM   13  C   UNL     1       8.122  28.354  57.340  1.00  0.00     0.068 A 
HETATM   14  C   UNL     1       7.583  27.140  57.748  1.00  0.00     0.037 A 
HETATM   15  C   UNL     1       6.930  26.324  56.823  1.00  0.00     0.014 A 
HETATM   16  N   UNL     1       6.240  28.472  51.746  1.00  0.00    -0.219 NA
HETATM   17  C   UNL     1       5.530  27.939  50.825  1.00  0.00     0.214 C 
ENDROOT
BRANCH   1  18
HETATM   18  C   UNL     1       4.267  26.121  49.693  1.00  0.00     0.133 C 
BRANCH  18  19
HETATM   19  C   UNL     1       4.621  26.907  48.417  1.00  0.00     0.048 C 
BRANCH  19  20
HETATM   20  C   UNL     1       3.434  27.645  47.793  1.00  0.00     0.235 C 
BRANCH  20  21
HETATM   21  N   UNL     1       2.194  27.521  48.660  1.00  0.00    -0.079 N 
HETATM   22  C   UNL     1       0.941  27.141  47.900  1.00  0.00     0.269 C 
HETATM   23  H   UNL     1       2.340  26.784  49.365  1.00  0.00     0.278 HD
HETATM   24  C   UNL     1       1.941  28.785  49.461  1.00  0.00     0.269 C 
ENDBRANCH  20  21
ENDBRANCH  19  20
ENDBRANCH  18  19
ENDBRANCH   1  18
BRANCH  11  25
HETATM   25  C   UNL     1       6.882  24.531  54.255  1.00  0.00    -0.045 A 
HETATM   26  C   UNL     1       6.819  23.528  55.239  1.00  0.00     0.010 A 
HETATM   27  C   UNL     1       7.489  22.315  55.063  1.00  0.00     0.024 A 
HETATM   28  C   UNL     1       8.245  22.101  53.912  1.00  0.00     0.034 A 
HETATM   29 CL   UNL     1       9.052  20.602  53.684  1.00  0.00    -0.084 Cl
HETATM   30  C   UNL     1       8.349  23.096  52.944  1.00  0.00     0.024 A 
HETATM   31  C   UNL     1       7.675  24.307  53.114  1.00  0.00     0.010 A 
ENDBRANCH  11  25
BRANCH  13  32
HETATM   32  O   UNL     1       8.752  29.110  58.281  1.00  0.00    -0.361 OA
HETATM   33  H   UNL     1       9.291  28.542  58.857  1.00  0.00     0.217 HD
ENDBRANCH  13  32
TORSDOF 6
ENDMDL
MODEL 2
REMARK VINA RESULT:      -8.9      3.793      6.895
REMARK  6 active torsions:
REMARK  status: ('A' for Active; 'I' for Inactive)
REMARK    1  A    between atoms: N_2  and  C_4 
REMARK    2  A    between atoms: C_4  and  C_5 
REMARK    3  A    between atoms: C_5  and  C_6 
REMARK    4  A    between atoms: C_6  and  N_7 
REMARK    5  A    between atoms: C_17  and  C_18 
REMARK    6  A    between atoms: C_26  and  O_27 
ROOT
HETATM    1  N   UNL     1       6.546  24.454  55.113  1.00  0.00    -0.327 N 
HETATM    2  C   UNL     1       6.388  25.509  55.919  1.00  0.00     0.113 C 
HETATM    3  N   UNL     1       6.794  25.552  57.174  1.00  0.00    -0.385 N 
HETATM    4  H   UNL     1       6.667  26.375  57.753  1.00  0.00     0.157 HD
HETATM    5  H   UNL     1       7.180  24.768  57.679  1.00  0.00     0.157 HD
HETATM    6  C   UNL     1       5.739  26.725  55.326  1.00  0.00     0.052 C 
HETATM    7  C   UNL     1       5.269  26.646  54.066  1.00  0.00     0.182 C 
HETATM    8  O   UNL     1       4.663  27.709  53.418  1.00  0.00    -0.291 OA
HETATM    9  C   UNL     1       4.321  28.833  54.124  1.00  0.00     0.087 A 
HETATM   10  C   UNL     1       4.727  29.035  55.445  1.00  0.00    -0.011 A 
HETATM   11  C   UNL     1       5.605  28.009  56.123  1.00  0.00     0.095 C 
HETATM   12  C   UNL     1       3.534  29.774  53.458  1.00  0.00     0.074 A 
HETATM   13  C   UNL     1       3.139  30.923  54.130  1.00  0.00     0.068 A 
HETATM   14  C   UNL     1       3.518  31.140  55.449  1.00  0.00     0.037 A 
HETATM   15  C   UNL     1       4.310  30.200  56.108  1.00  0.00     0.014 A 
HETATM   16  N   UNL     1       5.331  25.502  53.324  1.00  0.00    -0.219 NA
HETATM   17  C   UNL     1       5.899  24.471  53.826  1.00  0.00     0.214 C 
ENDROOT
BRANCH   1  18
HETATM   18  C   UNL     1       7.233  23.196  55.492  1.00  0.00     0.133 C 
BRANCH  18  19
HETATM   19  C   UNL     1       8.755  23.244  55.261  1.00  0.00     0.048 C 
BRANCH  19  20
HETATM   20  C   UNL     1       9.262  22.218  54.246  1.00  0.00     0.235 C 
BRANCH  20  21
HETATM   21  N   UNL     1       8.358  20.999  54.199  1.00  0.00    -0.079 N 
HETATM   22  C   UNL     1       8.708  19.927  55.209  1.00  0.00     0.269 C 
HETATM   23  H   UNL     1       7.389  21.283  54.403  1.00  0.00     0.278 HD
HETATM   24  C   UNL     1       8.304  20.393  52.810  1.00  0.00     0.269 C 
ENDBRANCH  20  21
ENDBRANCH  19  20
ENDBRANCH  18  19
ENDBRANCH   1  18
BRANCH  11  25
HETATM   25  C   UNL     1       6.973  28.593  56.483  1.00  0.00    -0.045 A 
HETATM   26  C   UNL     1       7.950  28.775  55.488  1.00  0.00     0.010 A 
HETATM   27  C   UNL     1       9.197  29.317  55.806  1.00  0.00     0.024 A 
HETATM   28  C   UNL     1       9.487  29.664  57.124  1.00  0.00     0.034 A 
HETATM   29 CL   UNL     1      11.014  30.350  57.512  1.00  0.00    -0.084 Cl
HETATM   30  C   UNL     1       8.547  29.457  58.129  1.00  0.00     0.024 A 
HETATM   31  C   UNL     1       7.296  28.921  57.813  1.00  0.00     0.010 A 
ENDBRANCH  11  25
BRANCH  13  32
HETATM   32  O   UNL     1       2.369  31.874  53.533  1.00  0.00    -0.361 OA
HETATM   33  H   UNL     1       2.612  31.959  52.596  1.00  0.00     0.217 HD
ENDBRANCH  13  32
TORSDOF 6
ENDMDL
MODEL 3
REMARK VINA RESULT:      -8.7      3.146      4.692
REMARK  6 active torsions:
REMARK  status: ('A' for Active; 'I' for Inactive)
REMARK    1  A    between atoms: N_2  and  C_4 
REMARK    2  A    between atoms: C_4  and  C_5 
REMARK    3  A    between atoms: C_5  and  C_6 
REMARK    4  A    between atoms: C_6  and  N_7 
REMARK    5  A    between atoms: C_17  and  C_18 
REMARK    6  A    between atoms: C_26  and  O_27 
ROOT
HETATM    1  N   UNL     1       5.329  27.317  51.354  1.00  0.00    -0.327 N 
HETATM    2  C   UNL     1       6.026  27.692  52.431  1.00  0.00     0.113 C 
HETATM    3  N   UNL     1       6.441  28.925  52.655  1.00  0.00    -0.385 N 
HETATM    4  H   UNL     1       6.959  29.175  53.490  1.00  0.00     0.157 HD
HETATM    5  H   UNL     1       6.355  29.686  51.998  1.00  0.00     0.157 HD
HETATM    6  C   UNL     1       6.311  26.635  53.457  1.00  0.00     0.052 C 
HETATM    7  C   UNL     1       5.942  25.368  53.186  1.00  0.00     0.182 C 
HETATM    8  O   UNL     1       6.145  24.318  54.066  1.00  0.00    -0.291 OA
HETATM    9  C   UNL     1       6.938  24.496  55.169  1.00  0.00     0.087 A 
HETATM   10  C   UNL     1       7.406  25.754  55.555  1.00  0.00    -0.011 A 
HETATM   11  C   UNL     1       7.005  26.977  54.763  1.00  0.00     0.095 C 
HETATM   12  C   UNL     1       7.265  23.350  55.896  1.00  0.00     0.074 A 
HETATM   13  C   UNL     1       8.083  23.466  57.012  1.00  0.00     0.068 A 
HETATM   14  C   UNL     1       8.574  24.705  57.407  1.00  0.00     0.037 A 
HETATM   15  C   UNL     1       8.238  25.848  56.682  1.00  0.00     0.014 A 
HETATM   16  N   UNL     1       5.350  25.005  52.011  1.00  0.00    -0.219 NA
HETATM   17  C   UNL     1       5.095  25.911  51.144  1.00  0.00     0.214 C 
ENDROOT
BRANCH   1  18
HETATM   18  C   UNL     1       4.884  28.230  50.275  1.00  0.00     0.133 C 
BRANCH  18  19
HETATM   19  C   UNL     1       4.281  27.491  49.065  1.00  0.00     0.048 C 
BRANCH  19  20
HETATM   20  C   UNL     1       2.855  27.926  48.719  1.00  0.00     0.235 C 
BRANCH  20  21
HETATM   21  N   UNL     1       1.977  26.727  48.405  1.00  0.00    -0.079 N 
HETATM   22  C   UNL     1       2.721  25.555  47.800  1.00  0.00     0.269 C 
HETATM   23  H   UNL     1       1.547  26.379  49.274  1.00  0.00     0.278 HD
HETATM   24  C   UNL     1       0.810  27.105  47.513  1.00  0.00     0.269 C 
ENDBRANCH  20  21
ENDBRANCH  19  20
ENDBRANCH  18  19
ENDBRANCH   1  18
BRANCH  11  25
HETATM   25  C   UNL     1       6.170  27.942  55.608  1.00  0.00    -0.045 A 
HETATM   26  C   UNL     1       4.789  27.731  55.767  1.00  0.00     0.010 A 
HETATM   27  C   UNL     1       4.021  28.601  56.545  1.00  0.00     0.024 A 
HETATM   28  C   UNL     1       4.622  29.701  57.154  1.00  0.00     0.034 A 
HETATM   29 CL   UNL     1       3.683  30.759  58.128  1.00  0.00    -0.084 Cl
HETATM   30  C   UNL     1       5.981  29.947  56.978  1.00  0.00     0.024 A 
HETATM   31  C   UNL     1       6.752  29.075  56.206  1.00  0.00     0.010 A 
ENDBRANCH  11  25
BRANCH  13  32
HETATM   32  O   UNL     1       8.439  22.383  57.756  1.00  0.00    -0.361 OA
HETATM   33  H   UNL     1       8.973  21.773  57.221  1.00  0.00     0.217 HD
ENDBRANCH  13  32
TORSDOF 6
ENDMDL
MODEL 4
REMARK VINA RESULT:      -8.7      3.886      7.229
REMARK  6 active torsions:
REMARK  status: ('A' for Active; 'I' for Inactive)
REMARK    1  A    between atoms: N_2  and  C_4 
REMARK    2  A    between atoms: C_4  and  C_5 
REMARK    3  A    between atoms: C_5  and  C_6 
REMARK    4  A    between atoms: C_6  and  N_7 
REMARK    5  A    between atoms: C_17  and  C_18 
REMARK    6  A    between atoms: C_26  and  O_27 
ROOT
HETATM    1  N   UNL     1       6.335  28.165  57.165  1.00  0.00    -0.327 N 
HETATM    2  C   UNL     1       5.826  27.130  56.489  1.00  0.00     0.113 C 
HETATM    3  N   UNL     1       4.610  27.103  55.977  1.00  0.00    -0.385 N 
HETATM    4  H   UNL     1       4.261  26.304  55.459  1.00  0.00     0.157 HD
HETATM    5  H   UNL     1       3.911  27.817  56.120  1.00  0.00     0.157 HD
HETATM    6  C   UNL     1       6.727  25.949  56.277  1.00  0.00     0.052 C 
HETATM    7  C   UNL     1       7.941  25.960  56.861  1.00  0.00     0.182 C 
HETATM    8  O   UNL     1       8.855  24.930  56.722  1.00  0.00    -0.291 OA
HETATM    9  C   UNL     1       8.466  23.745  56.154  1.00  0.00     0.087 A 
HETATM   10  C   UNL     1       7.227  23.589  55.531  1.00  0.00    -0.011 A 
HETATM   11  C   UNL     1       6.284  24.766  55.436  1.00  0.00     0.095 C 
HETATM   12  C   UNL     1       9.373  22.686  56.233  1.00  0.00     0.074 A 
HETATM   13  C   UNL     1       9.025  21.455  55.694  1.00  0.00     0.068 A 
HETATM   14  C   UNL     1       7.792  21.271  55.081  1.00  0.00     0.037 A 
HETATM   15  C   UNL     1       6.892  22.334  54.999  1.00  0.00     0.014 A 
HETATM   16  N   UNL     1       8.369  26.984  57.657  1.00  0.00    -0.219 NA
HETATM   17  C   UNL     1       7.605  27.996  57.823  1.00  0.00     0.214 C 
ENDROOT
BRANCH   1  18
HETATM   18  C   UNL     1       5.630  29.447  57.405  1.00  0.00     0.133 C 
BRANCH  18  19
HETATM   19  C   UNL     1       6.584  30.613  57.725  1.00  0.00     0.048 C 
BRANCH  19  20
HETATM   20  C   UNL     1       6.004  31.641  58.697  1.00  0.00     0.235 C 
BRANCH  20  21
HETATM   21  N   UNL     1       6.593  31.476  60.087  1.00  0.00    -0.079 N 
HETATM   22  C   UNL     1       6.502  32.715  60.952  1.00  0.00     0.269 C 
HETATM   23  H   UNL     1       6.085  30.734  60.589  1.00  0.00     0.278 HD
HETATM   24  C   UNL     1       8.032  30.997  60.032  1.00  0.00     0.269 C 
ENDBRANCH  20  21
ENDBRANCH  19  20
ENDBRANCH  18  19
ENDBRANCH   1  18
BRANCH  11  25
HETATM   25  C   UNL     1       6.038  25.170  53.981  1.00  0.00    -0.045 A 
HETATM   26  C   UNL     1       4.851  24.787  53.330  1.00  0.00     0.010 A 
HETATM   27  C   UNL     1       4.614  25.161  52.005  1.00  0.00     0.024 A 
HETATM   28  C   UNL     1       5.567  25.903  51.312  1.00  0.00     0.034 A 
HETATM   29 CL   UNL     1       5.267  26.381  49.689  1.00  0.00    -0.084 Cl
HETATM   30  C   UNL     1       6.764  26.260  51.927  1.00  0.00     0.024 A 
HETATM   31  C   UNL     1       7.001  25.894  53.254  1.00  0.00     0.010 A 
ENDBRANCH  11  25
BRANCH  13  32
HETATM   32  O   UNL     1       9.867  20.386  55.744  1.00  0.00    -0.361 OA
HETATM   33  H   UNL     1       9.843  19.985  56.629  1.00  0.00     0.217 HD
ENDBRANCH  13  32
TORSDOF 6
ENDMDL
MODEL 5
REMARK VINA RESULT:      -8.6      4.615      8.178
REMARK  6 active torsions:
REMARK  status: ('A' for Active; 'I' for Inactive)
REMARK    1  A    between atoms: N_2  and  C_4 
REMARK    2  A    between atoms: C_4  and  C_5 
REMARK    3  A    between atoms: C_5  and  C_6 
REMARK    4  A    between atoms: C_6  and  N_7 
REMARK    5  A    between atoms: C_17  and  C_18 
REMARK    6  A    between atoms: C_26  and  O_27 
ROOT
HETATM    1  N   UNL     1       6.492  30.524  58.139  1.00  0.00    -0.327 N 
HETATM    2  C   UNL     1       5.810  29.579  57.484  1.00  0.00     0.113 C 
HETATM    3  N   UNL     1       4.571  29.723  57.050  1.00  0.00    -0.385 N 
HETATM    4  H   UNL     1       4.088  28.988  56.546  1.00  0.00     0.157 HD
HETATM    5  H   UNL     1       3.984  30.520  57.246  1.00  0.00     0.157 HD
HETATM    6  C   UNL     1       6.531  28.294  57.201  1.00  0.00     0.052 C 
HETATM    7  C   UNL     1       7.769  28.133  57.707  1.00  0.00     0.182 C 
HETATM    8  O   UNL     1       8.528  26.994  57.498  1.00  0.00    -0.291 OA
HETATM    9  C   UNL     1       7.951  25.883  56.941  1.00  0.00     0.087 A 
HETATM   10  C   UNL     1       6.666  25.905  56.396  1.00  0.00    -0.011 A 
HETATM   11  C   UNL     1       5.883  27.197  56.376  1.00  0.00     0.095 C 
HETATM   12  C   UNL     1       8.712  24.712  56.950  1.00  0.00     0.074 A 
HETATM   13  C   UNL     1       8.171  23.549  56.418  1.00  0.00     0.068 A 
HETATM   14  C   UNL     1       6.888  23.542  55.883  1.00  0.00     0.037 A 
HETATM   15  C   UNL     1       6.134  24.716  55.871  1.00  0.00     0.014 A 
HETATM   16  N   UNL     1       8.377  29.074  58.486  1.00  0.00    -0.219 NA
HETATM   17  C   UNL     1       7.766  30.175  58.713  1.00  0.00     0.214 C 
ENDROOT
BRANCH   1  18
HETATM   18  C   UNL     1       5.980  31.882  58.440  1.00  0.00     0.133 C 
BRANCH  18  19
HETATM   19  C   UNL     1       6.483  32.435  59.786  1.00  0.00     0.048 C 
BRANCH  19  20
HETATM   20  C   UNL     1       5.410  32.490  60.875  1.00  0.00     0.235 C 
BRANCH  20  21
HETATM   21  N   UNL     1       5.837  31.708  62.105  1.00  0.00    -0.079 N 
HETATM   22  C   UNL     1       5.419  32.339  63.417  1.00  0.00     0.269 C 
HETATM   23  H   UNL     1       5.406  30.773  62.083  1.00  0.00     0.278 HD
HETATM   24  C   UNL     1       7.332  31.451  62.116  1.00  0.00     0.269 C 
ENDBRANCH  20  21
ENDBRANCH  19  20
ENDBRANCH  18  19
ENDBRANCH   1  18
BRANCH  11  25
HETATM   25  C   UNL     1       5.604  27.661  54.944  1.00  0.00    -0.045 A 
HETATM   26  C   UNL     1       6.670  27.992  54.087  1.00  0.00     0.010 A 
HETATM   27  C   UNL     1       6.425  28.405  52.775  1.00  0.00     0.024 A 
HETATM   28  C   UNL     1       5.114  28.512  52.314  1.00  0.00     0.034 A 
HETATM   29 CL   UNL     1       4.813  29.000  50.695  1.00  0.00    -0.084 Cl
HETATM   30  C   UNL     1       4.046  28.224  53.159  1.00  0.00     0.024 A 
HETATM   31  C   UNL     1       4.288  27.804  54.469  1.00  0.00     0.010 A 
ENDBRANCH  11  25
BRANCH  13  32
HETATM   32  O   UNL     1       8.865  22.378  56.402  1.00  0.00    -0.361 OA
HETATM   33  H   UNL     1       9.820  22.557  56.409  1.00  0.00     0.217 HD
ENDBRANCH  13  32
TORSDOF 6
ENDMDL
MODEL 6
REMARK VINA RESULT:      -8.5      3.408      7.458
REMARK  6 active torsions:
REMARK  status: ('A' for Active; 'I' for Inactive)
REMARK    1  A    between atoms: N_2  and  C_4 
REMARK    2  A    between atoms: C_4  and  C_5 
REMARK    3  A    between atoms: C_5  and  C_6 
REMARK    4  A    between atoms: C_6  and  N_7 
REMARK    5  A    between atoms: C_17  and  C_18 
REMARK    6  A    between atoms: C_26  and  O_27 
ROOT
HETATM    1  N   UNL     1       6.730  28.889  56.947  1.00  0.00    -0.327 N 
HETATM    2  C   UNL     1       7.091  28.500  55.719  1.00  0.00     0.113 C 
HETATM    3  N   UNL     1       8.306  28.100  55.394  1.00  0.00    -0.385 N 
HETATM    4  H   UNL     1       8.540  27.801  54.453  1.00  0.00     0.157 HD
HETATM    5  H   UNL     1       9.105  28.134  56.009  1.00  0.00     0.157 HD
HETATM    6  C   UNL     1       6.019  28.488  54.669  1.00  0.00     0.052 C 
HETATM    7  C   UNL     1       4.801  28.961  54.997  1.00  0.00     0.182 C 
HETATM    8  O   UNL     1       3.738  28.986  54.110  1.00  0.00    -0.291 OA
HETATM    9  C   UNL     1       3.951  28.727  52.781  1.00  0.00     0.087 A 
HETATM   10  C   UNL     1       5.172  28.249  52.303  1.00  0.00    -0.011 A 
HETATM   11  C   UNL     1       6.297  27.967  53.271  1.00  0.00     0.095 C 
HETATM   12  C   UNL     1       2.881  28.970  51.917  1.00  0.00     0.074 A 
HETATM   13  C   UNL     1       3.046  28.746  50.557  1.00  0.00     0.068 A 
HETATM   14  C   UNL     1       4.256  28.284  50.054  1.00  0.00     0.037 A 
HETATM   15  C   UNL     1       5.320  28.036  50.923  1.00  0.00     0.014 A 
HETATM   16  N   UNL     1       4.514  29.475  56.228  1.00  0.00    -0.219 NA
HETATM   17  C   UNL     1       5.425  29.470  57.126  1.00  0.00     0.214 C 
ENDROOT
BRANCH   1  18
HETATM   18  C   UNL     1       7.625  28.891  58.129  1.00  0.00     0.133 C 
BRANCH  18  19
HETATM   19  C   UNL     1       8.286  30.258  58.385  1.00  0.00     0.048 C 
BRANCH  19  20
HETATM   20  C   UNL     1       8.770  30.454  59.824  1.00  0.00     0.235 C 
BRANCH  20  21
HETATM   21  N   UNL     1       7.631  30.884  60.732  1.00  0.00    -0.079 N 
HETATM   22  C   UNL     1       6.899  32.124  60.265  1.00  0.00     0.269 C 
HETATM   23  H   UNL     1       6.927  30.132  60.778  1.00  0.00     0.278 HD
HETATM   24  C   UNL     1       8.095  31.074  62.163  1.00  0.00     0.269 C 
ENDBRANCH  20  21
ENDBRANCH  19  20
ENDBRANCH  18  19
ENDBRANCH   1  18
BRANCH  11  25
HETATM   25  C   UNL     1       6.663  26.481  53.287  1.00  0.00    -0.045 A 
HETATM   26  C   UNL     1       5.972  25.590  54.128  1.00  0.00     0.010 A 
HETATM   27  C   UNL     1       6.292  24.231  54.141  1.00  0.00     0.024 A 
HETATM   28  C   UNL     1       7.318  23.752  53.330  1.00  0.00     0.034 A 
HETATM   29 CL   UNL     1       7.699  22.076  53.330  1.00  0.00    -0.084 Cl
HETATM   30  C   UNL     1       8.038  24.624  52.518  1.00  0.00     0.024 A 
HETATM   31  C   UNL     1       7.716  25.983  52.498  1.00  0.00     0.010 A 
ENDBRANCH  11  25
BRANCH  13  32
HETATM   32  O   UNL     1       2.040  28.969  49.667  1.00  0.00    -0.361 OA
HETATM   33  H   UNL     1       1.735  29.889  49.733  1.00  0.00     0.217 HD
ENDBRANCH  13  32
TORSDOF 6
ENDMDL
MODEL 7
REMARK VINA RESULT:      -8.2     10.922     15.223
REMARK  6 active torsions:
REMARK  status: ('A' for Active; 'I' for Inactive)
REMARK    1  A    between atoms: N_2  and  C_4 
REMARK    2  A    between atoms: C_4  and  C_5 
REMARK    3  A    between atoms: C_5  and  C_6 
REMARK    4  A    between atoms: C_6  and  N_7 
REMARK    5  A    between atoms: C_17  and  C_18 
REMARK    6  A    between atoms: C_26  and  O_27 
ROOT
HETATM    1  N   UNL     1       5.382  34.071  65.908  1.00  0.00    -0.327 N 
HETATM    2  C   UNL     1       4.756  33.843  64.748  1.00  0.00     0.113 C 
HETATM    3  N   UNL     1       3.450  33.936  64.579  1.00  0.00    -0.385 N 
HETATM    4  H   UNL     1       3.011  33.767  63.680  1.00  0.00     0.157 HD
HETATM    5  H   UNL     1       2.785  34.098  65.321  1.00  0.00     0.157 HD
HETATM    6  C   UNL     1       5.616  33.498  63.569  1.00  0.00     0.052 C 
HETATM    7  C   UNL     1       6.939  33.341  63.769  1.00  0.00     0.182 C 
HETATM    8  O   UNL     1       7.826  33.034  62.751  1.00  0.00    -0.291 OA
HETATM    9  C   UNL     1       7.350  32.661  61.521  1.00  0.00     0.087 A 
HETATM   10  C   UNL     1       5.998  32.756  61.186  1.00  0.00    -0.011 A 
HETATM   11  C   UNL     1       5.017  33.322  62.186  1.00  0.00     0.095 C 
HETATM   12  C   UNL     1       8.288  32.170  60.611  1.00  0.00     0.074 A 
HETATM   13  C   UNL     1       7.860  31.756  59.356  1.00  0.00     0.068 A 
HETATM   14  C   UNL     1       6.518  31.827  59.004  1.00  0.00     0.037 A 
HETATM   15  C   UNL     1       5.586  32.324  59.915  1.00  0.00     0.014 A 
HETATM   16  N   UNL     1       7.519  33.452  65.000  1.00  0.00    -0.219 NA
HETATM   17  C   UNL     1       6.785  33.761  66.002  1.00  0.00     0.214 C 
ENDROOT
BRANCH   1  18
HETATM   18  C   UNL     1       4.713  34.500  67.159  1.00  0.00     0.133 C 
BRANCH  18  19
HETATM   19  C   UNL     1       5.688  35.091  68.195  1.00  0.00     0.048 C 
BRANCH  19  20
HETATM   20  C   UNL     1       5.750  34.306  69.507  1.00  0.00     0.235 C 
BRANCH  20  21
HETATM   21  N   UNL     1       7.164  33.829  69.794  1.00  0.00    -0.079 N 
HETATM   22  C   UNL     1       7.331  33.164  71.144  1.00  0.00     0.269 C 
HETATM   23  H   UNL     1       7.440  33.130  69.090  1.00  0.00     0.278 HD
HETATM   24  C   UNL     1       8.174  34.952  69.650  1.00  0.00     0.269 C 
ENDBRANCH  20  21
ENDBRANCH  19  20
ENDBRANCH  18  19
ENDBRANCH   1  18
BRANCH  11  25
HETATM   25  C   UNL     1       4.384  34.619  61.677  1.00  0.00    -0.045 A 
HETATM   26  C   UNL     1       3.092  34.606  61.121  1.00  0.00     0.010 A 
HETATM   27  C   UNL     1       2.503  35.787  60.663  1.00  0.00     0.024 A 
HETATM   28  C   UNL     1       3.206  36.987  60.738  1.00  0.00     0.034 A 
HETATM   29 CL   UNL     1       2.474  38.443  60.194  1.00  0.00    -0.084 Cl
HETATM   30  C   UNL     1       4.499  37.014  61.251  1.00  0.00     0.024 A 
HETATM   31  C   UNL     1       5.089  35.836  61.715  1.00  0.00     0.010 A 
ENDBRANCH  11  25
BRANCH  13  32
HETATM   32  O   UNL     1       8.728  31.266  58.429  1.00  0.00    -0.361 OA
HETATM   33  H   UNL     1       8.919  30.331  58.614  1.00  0.00     0.217 HD
ENDBRANCH  13  32
TORSDOF 6
ENDMDL
MODEL 8
REMARK VINA RESULT:      -8.1      4.146      8.879
REMARK  6 active torsions:
REMARK  status: ('A' for Active; 'I' for Inactive)
REMARK    1  A    between atoms: N_2  and  C_4 
REMARK    2  A    between atoms: C_4  and  C_5 
REMARK    3  A    between atoms: C_5  and  C_6 
REMARK    4  A    between atoms: C_6  and  N_7 
REMARK    5  A    between atoms: C_17  and  C_18 
REMARK    6  A    between atoms: C_26  and  O_27 
ROOT
HETATM    1  N   UNL     1       6.009  28.118  53.748  1.00  0.00    -0.327 N 
HETATM    2  C   UNL     1       5.108  28.746  52.986  1.00  0.00     0.113 C 
HETATM    3  N   UNL     1       4.500  29.868  53.326  1.00  0.00    -0.385 N 
HETATM    4  H   UNL     1       3.829  30.323  52.716  1.00  0.00     0.157 HD
HETATM    5  H   UNL     1       4.583  30.315  54.227  1.00  0.00     0.157 HD
HETATM    6  C   UNL     1       4.812  28.140  51.646  1.00  0.00     0.052 C 
HETATM    7  C   UNL     1       5.387  26.961  51.339  1.00  0.00     0.182 C 
HETATM    8  O   UNL     1       5.193  26.320  50.127  1.00  0.00    -0.291 OA
HETATM    9  C   UNL     1       4.221  26.762  49.268  1.00  0.00     0.087 A 
HETATM   10  C   UNL     1       3.533  27.960  49.476  1.00  0.00    -0.011 A 
HETATM   11  C   UNL     1       3.883  28.828  50.662  1.00  0.00     0.095 C 
HETATM   12  C   UNL     1       3.942  25.951  48.167  1.00  0.00     0.074 A 
HETATM   13  C   UNL     1       2.952  26.338  47.274  1.00  0.00     0.068 A 
HETATM   14  C   UNL     1       2.243  27.518  47.467  1.00  0.00     0.037 A 
HETATM   15  C   UNL     1       2.530  28.329  48.565  1.00  0.00     0.014 A 
HETATM   16  N   UNL     1       6.198  26.287  52.205  1.00  0.00    -0.219 NA
HETATM   17  C   UNL     1       6.461  26.813  53.341  1.00  0.00     0.214 C 
ENDROOT
BRANCH   1  18
HETATM   18  C   UNL     1       6.489  28.605  55.064  1.00  0.00     0.133 C 
BRANCH  18  19
HETATM   19  C   UNL     1       7.915  28.130  55.401  1.00  0.00     0.048 C 
BRANCH  19  20
HETATM   20  C   UNL     1       8.901  29.269  55.669  1.00  0.00     0.235 C 
BRANCH  20  21
HETATM   21  N   UNL     1       9.531  29.136  57.045  1.00  0.00    -0.079 N 
HETATM   22  C   UNL     1       8.723  29.765  58.160  1.00  0.00     0.269 C 
HETATM   23  H   UNL     1       9.627  28.139  57.284  1.00  0.00     0.278 HD
HETATM   24  C   UNL     1      10.946  29.683  57.069  1.00  0.00     0.269 C 
ENDBRANCH  20  21
ENDBRANCH  19  20
ENDBRANCH  18  19
ENDBRANCH   1  18
BRANCH  11  25
HETATM   25  C   UNL     1       4.438  30.184  50.218  1.00  0.00    -0.045 A 
HETATM   26  C   UNL     1       5.756  30.287  49.738  1.00  0.00     0.010 A 
HETATM   27  C   UNL     1       6.266  31.519  49.321  1.00  0.00     0.024 A 
HETATM   28  C   UNL     1       5.472  32.661  49.399  1.00  0.00     0.034 A 
HETATM   29 CL   UNL     1       6.092  34.173  48.867  1.00  0.00    -0.084 Cl
HETATM   30  C   UNL     1       4.178  32.586  49.906  1.00  0.00     0.024 A 
HETATM   31  C   UNL     1       3.663  31.354  50.317  1.00  0.00     0.010 A 
ENDBRANCH  11  25
BRANCH  13  32
HETATM   32  O   UNL     1       2.635  25.586  46.185  1.00  0.00    -0.361 OA
HETATM   33  H   UNL     1       3.329  24.926  46.023  1.00  0.00     0.217 HD
ENDBRANCH  13  32
TORSDOF 6
ENDMDL
MODEL 9
REMARK VINA RESULT:      -8.0      4.038      8.534
REMARK  6 active torsions:
REMARK  status: ('A' for Active; 'I' for Inactive)
REMARK    1  A    between atoms: N_2  and  C_4 
REMARK    2  A    between atoms: C_4  and  C_5 
REMARK    3  A    between atoms: C_5  and  C_6 
REMARK    4  A    between atoms: C_6  and  N_7 
REMARK    5  A    between atoms: C_17  and  C_18 
REMARK    6  A    between atoms: C_26  and  O_27 
ROOT
HETATM    1  N   UNL     1       6.094  27.756  53.800  1.00  0.00    -0.327 N 
HETATM    2  C   UNL     1       5.165  28.414  53.099  1.00  0.00     0.113 C 
HETATM    3  N   UNL     1       4.548  29.502  53.523  1.00  0.00    -0.385 N 
HETATM    4  H   UNL     1       3.856  29.982  52.958  1.00  0.00     0.157 HD
HETATM    5  H   UNL     1       4.645  29.893  54.448  1.00  0.00     0.157 HD
HETATM    6  C   UNL     1       4.848  27.889  51.730  1.00  0.00     0.052 C 
HETATM    7  C   UNL     1       5.435  26.742  51.337  1.00  0.00     0.182 C 
HETATM    8  O   UNL     1       5.223  26.174  50.092  1.00  0.00    -0.291 OA
HETATM    9  C   UNL     1       4.225  26.653  49.284  1.00  0.00     0.087 A 
HETATM   10  C   UNL     1       3.523  27.822  49.583  1.00  0.00    -0.011 A 
HETATM   11  C   UNL     1       3.887  28.621  50.813  1.00  0.00     0.095 C 
HETATM   12  C   UNL     1       3.934  25.907  48.140  1.00  0.00     0.074 A 
HETATM   13  C   UNL     1       2.917  26.333  47.296  1.00  0.00     0.068 A 
HETATM   14  C   UNL     1       2.194  27.485  47.579  1.00  0.00     0.037 A 
HETATM   15  C   UNL     1       2.493  28.230  48.719  1.00  0.00     0.014 A 
HETATM   16  N   UNL     1       6.277  26.028  52.140  1.00  0.00    -0.219 NA
HETATM   17  C   UNL     1       6.557  26.487  53.301  1.00  0.00     0.214 C 
ENDROOT
BRANCH   1  18
HETATM   18  C   UNL     1       6.597  28.167  55.133  1.00  0.00     0.133 C 
BRANCH  18  19
HETATM   19  C   UNL     1       7.473  27.094  55.807  1.00  0.00     0.048 C 
BRANCH  19  20
HETATM   20  C   UNL     1       7.079  26.790  57.254  1.00  0.00     0.235 C 
BRANCH  20  21
HETATM   21  N   UNL     1       6.553  25.372  57.393  1.00  0.00    -0.079 N 
HETATM   22  C   UNL     1       7.262  24.359  56.519  1.00  0.00     0.269 C 
HETATM   23  H   UNL     1       6.678  25.054  58.365  1.00  0.00     0.278 HD
HETATM   24  C   UNL     1       5.058  25.302  57.146  1.00  0.00     0.269 C 
ENDBRANCH  20  21
ENDBRANCH  19  20
ENDBRANCH  18  19
ENDBRANCH   1  18
BRANCH  11  25
HETATM   25  C   UNL     1       4.409  30.011  50.443  1.00  0.00    -0.045 A 
HETATM   26  C   UNL     1       3.595  31.144  50.626  1.00  0.00     0.010 A 
HETATM   27  C   UNL     1       4.068  32.418  50.301  1.00  0.00     0.024 A 
HETATM   28  C   UNL     1       5.348  32.570  49.773  1.00  0.00     0.034 A 
HETATM   29 CL   UNL     1       5.937  34.139  49.393  1.00  0.00    -0.084 Cl
HETATM   30  C   UNL     1       6.153  31.457  49.551  1.00  0.00     0.024 A 
HETATM   31  C   UNL     1       5.687  30.182  49.880  1.00  0.00     0.010 A 
ENDBRANCH  11  25
BRANCH  13  32
HETATM   32  O   UNL     1       2.587  25.644  46.169  1.00  0.00    -0.361 OA
HETATM   33  H   UNL     1       3.018  26.044  45.396  1.00  0.00     0.217 HD
ENDBRANCH  13  32
TORSDOF 6
ENDMDL
MODEL 10
REMARK VINA RESULT:      -7.8      4.162      8.719
REMARK  6 active torsions:
REMARK  status: ('A' for Active; 'I' for Inactive)
REMARK    1  A    between atoms: N_2  and  C_4 
REMARK    2  A    between atoms: C_4  and  C_5 
REMARK    3  A    between atoms: C_5  and  C_6 
REMARK    4  A    between atoms: C_6  and  N_7 
REMARK    5  A    between atoms: C_17  and  C_18 
REMARK    6  A    between atoms: C_26  and  O_27 
ROOT
HETATM    1  N   UNL     1       6.164  28.034  53.681  1.00  0.00    -0.327 N 
HETATM    2  C   UNL     1       5.234  28.667  52.958  1.00  0.00     0.113 C 
HETATM    3  N   UNL     1       4.629  29.778  53.336  1.00  0.00    -0.385 N 
HETATM    4  H   UNL     1       3.936  30.237  52.756  1.00  0.00     0.157 HD
HETATM    5  H   UNL     1       4.738  30.211  54.241  1.00  0.00     0.157 HD
HETATM    6  C   UNL     1       4.899  28.080  51.619  1.00  0.00     0.052 C 
HETATM    7  C   UNL     1       5.473  26.911  51.274  1.00  0.00     0.182 C 
HETATM    8  O   UNL     1       5.245  26.287  50.059  1.00  0.00    -0.291 OA
HETATM    9  C   UNL     1       4.242  26.736  49.239  1.00  0.00     0.087 A 
HETATM   10  C   UNL     1       3.552  27.924  49.489  1.00  0.00    -0.011 A 
HETATM   11  C   UNL     1       3.934  28.776  50.677  1.00  0.00     0.095 C 
HETATM   12  C   UNL     1       3.934  25.940  48.135  1.00  0.00     0.074 A 
HETATM   13  C   UNL     1       2.913  26.334  47.280  1.00  0.00     0.068 A 
HETATM   14  C   UNL     1       2.202  27.504  47.516  1.00  0.00     0.037 A 
HETATM   15  C   UNL     1       2.518  28.300  48.617  1.00  0.00     0.014 A 
HETATM   16  N   UNL     1       6.317  26.229  52.102  1.00  0.00    -0.219 NA
HETATM   17  C   UNL     1       6.612  26.739  53.238  1.00  0.00     0.214 C 
ENDROOT
BRANCH   1  18
HETATM   18  C   UNL     1       6.683  28.502  54.988  1.00  0.00     0.133 C 
BRANCH  18  19
HETATM   19  C   UNL     1       5.883  27.959  56.187  1.00  0.00     0.048 C 
BRANCH  19  20
HETATM   20  C   UNL     1       5.547  29.018  57.240  1.00  0.00     0.235 C 
BRANCH  20  21
HETATM   21  N   UNL     1       6.744  29.906  57.527  1.00  0.00    -0.079 N 
HETATM   22  C   UNL     1       7.830  29.240  58.344  1.00  0.00     0.269 C 
HETATM   23  H   UNL     1       7.183  30.188  56.638  1.00  0.00     0.278 HD
HETATM   24  C   UNL     1       6.331  31.207  58.190  1.00  0.00     0.269 C 
ENDBRANCH  20  21
ENDBRANCH  19  20
ENDBRANCH  18  19
ENDBRANCH   1  18
BRANCH  11  25
HETATM   25  C   UNL     1       4.464  30.143  50.238  1.00  0.00    -0.045 A 
HETATM   26  C   UNL     1       3.639  31.280  50.315  1.00  0.00     0.010 A 
HETATM   27  C   UNL     1       4.117  32.534  49.926  1.00  0.00     0.024 A 
HETATM   28  C   UNL     1       5.416  32.660  49.438  1.00  0.00     0.034 A 
HETATM   29 CL   UNL     1       6.012  34.205  48.980  1.00  0.00    -0.084 Cl
HETATM   30  C   UNL     1       6.235  31.541  49.320  1.00  0.00     0.024 A 
HETATM   31  C   UNL     1       5.762  30.287  49.714  1.00  0.00     0.010 A 
ENDBRANCH  11  25
BRANCH  13  32
HETATM   32  O   UNL     1       2.566  25.596  46.190  1.00  0.00    -0.361 OA
HETATM   33  H   UNL     1       2.731  24.654  46.359  1.00  0.00     0.217 HD
ENDBRANCH  13  32
TORSDOF 6
ENDMDL
