MODEL 1
REMARK VINA RESULT:      -9.4      0.000      0.000
REMARK  6 active torsions:
REMARK  status: ('A' for Active; 'I' for Inactive)
REMARK    1  A    between atoms: C_2  and  N_3 
REMARK    2  A    between atoms: N_3  and  C_5 
REMARK    3  A    between atoms: N_3  and  C_28 
REMARK    4  A    between atoms: C_8  and  C_9 
REMARK    5  A    between atoms: N_10  and  C_11 
REMARK    6  A    between atoms: C_11  and  C_12 
ROOT
HETATM    1  C   UNL     1       6.717  27.794  54.399  1.00  0.00     0.222 C 
HETATM    2  N   UNL     1       5.877  28.351  55.438  1.00  0.00    -0.316 N 
HETATM    3  C   UNL     1       6.415  28.790  56.636  1.00  0.00     0.258 C 
HETATM    4  O   UNL     1       5.751  28.957  57.655  1.00  0.00    -0.267 OA
HETATM    5  C   UNL     1       7.866  29.078  56.644  1.00  0.00     0.058 A 
HETATM    6  C   UNL     1       8.563  28.979  55.436  1.00  0.00     0.045 A 
HETATM    7  N   UNL     1       7.908  28.615  54.260  1.00  0.00    -0.364 N 
HETATM    8  C   UNL     1       8.500  29.514  57.814  1.00  0.00     0.019 A 
HETATM    9  C   UNL     1       9.844  29.882  57.772  1.00  0.00     0.001 A 
HETATM   10  C   UNL     1      10.539  29.829  56.566  1.00  0.00     0.002 A 
HETATM   11  C   UNL     1       9.898  29.393  55.403  1.00  0.00     0.030 A 
HETATM   12  H   UNL     1       8.525  28.350  53.504  1.00  0.00     0.162 HD
ENDROOT
BRANCH   1  13
HETATM   13  C   UNL     1       7.085  26.312  54.591  1.00  0.00    -0.016 A 
HETATM   14  C   UNL     1       6.877  25.626  55.802  1.00  0.00     0.013 A 
HETATM   15  C   UNL     1       7.152  24.258  55.923  1.00  0.00     0.038 A 
HETATM   16  C   UNL     1       7.666  23.550  54.839  1.00  0.00     0.134 A 
HETATM   17  C   UNL     1       7.899  24.213  53.632  1.00  0.00     0.038 A 
HETATM   18  C   UNL     1       7.598  25.575  53.508  1.00  0.00     0.013 A 
BRANCH  16  19
HETATM   19  N   UNL     1       7.925  22.093  54.904  1.00  0.00    -0.042 N 
HETATM   20  H   UNL     1       7.019  21.655  54.692  1.00  0.00     0.286 HD
BRANCH  19  21
HETATM   21  C   UNL     1       8.264  21.606  56.294  1.00  0.00     0.237 C 
HETATM   22  C   UNL     1       9.149  20.371  56.235  1.00  0.00     0.035 C 
ENDBRANCH  19  21
BRANCH  19  23
HETATM   23  C   UNL     1       8.818  21.605  53.788  1.00  0.00     0.237 C 
HETATM   24  C   UNL     1       8.165  20.605  52.850  1.00  0.00     0.035 C 
ENDBRANCH  19  23
ENDBRANCH  16  19
ENDBRANCH   1  13
BRANCH   2  25
HETATM   25  C   UNL     1       4.431  28.227  55.305  1.00  0.00     0.193 C 
BRANCH  25  26
HETATM   26  C   UNL     1       3.976  28.916  54.072  1.00  0.00     0.070 A 
HETATM   27  O   UNL     1       3.417  28.133  53.103  1.00  0.00    -0.325 OA
HETATM   28  C   UNL     1       3.075  28.957  52.079  1.00  0.00     0.142 A 
HETATM   29  C   UNL     1       3.416  30.257  52.371  1.00  0.00     0.027 A 
HETATM   30  C   UNL     1       4.001  30.233  53.659  1.00  0.00     0.036 A 
ENDBRANCH  25  26
ENDBRANCH   2  25
TORSDOF 6
ENDMDL
MODEL 2
REMARK VINA RESULT:      -9.2      1.390      1.657
REMARK  6 active torsions:
REMARK  status: ('A' for Active; 'I' for Inactive)
REMARK    1  A    between atoms: C_2  and  N_3 
REMARK    2  A    between atoms: N_3  and  C_5 
REMARK    3  A    between atoms: N_3  and  C_28 
REMARK    4  A    between atoms: C_8  and  C_9 
REMARK    5  A    between atoms: N_10  and  C_11 
REMARK    6  A    between atoms: C_11  and  C_12 
ROOT
HETATM    1  C   UNL     1       7.062  27.714  53.733  1.00  0.00     0.222 C 
HETATM    2  N   UNL     1       5.812  28.226  54.255  1.00  0.00    -0.316 N 
HETATM    3  C   UNL     1       5.697  28.618  55.579  1.00  0.00     0.258 C 
HETATM    4  O   UNL     1       4.620  28.742  56.155  1.00  0.00    -0.267 OA
HETATM    5  C   UNL     1       6.957  28.911  56.295  1.00  0.00     0.058 A 
HETATM    6  C   UNL     1       8.152  28.863  55.571  1.00  0.00     0.045 A 
HETATM    7  N   UNL     1       8.153  28.544  54.213  1.00  0.00    -0.364 N 
HETATM    8  C   UNL     1       6.939  29.301  57.640  1.00  0.00     0.019 A 
HETATM    9  C   UNL     1       8.128  29.675  58.264  1.00  0.00     0.001 A 
HETATM   10  C   UNL     1       9.319  29.674  57.542  1.00  0.00     0.002 A 
HETATM   11  C   UNL     1       9.328  29.283  56.200  1.00  0.00     0.030 A 
HETATM   12  H   UNL     1       9.064  28.311  53.841  1.00  0.00     0.162 HD
ENDROOT
BRANCH   1  13
HETATM   13  C   UNL     1       7.325  26.226  54.029  1.00  0.00    -0.016 A 
HETATM   14  C   UNL     1       7.042  25.635  55.275  1.00  0.00     0.013 A 
HETATM   15  C   UNL     1       7.222  24.264  55.489  1.00  0.00     0.038 A 
HETATM   16  C   UNL     1       7.713  23.454  54.468  1.00  0.00     0.134 A 
HETATM   17  C   UNL     1       8.018  24.021  53.227  1.00  0.00     0.038 A 
HETATM   18  C   UNL     1       7.813  25.388  53.010  1.00  0.00     0.013 A 
BRANCH  16  19
HETATM   19  N   UNL     1       7.871  21.991  54.631  1.00  0.00    -0.042 N 
HETATM   20  H   UNL     1       6.980  21.592  54.312  1.00  0.00     0.286 HD
BRANCH  19  21
HETATM   21  C   UNL     1       7.983  21.559  56.075  1.00  0.00     0.237 C 
HETATM   22  C   UNL     1       9.002  20.440  56.230  1.00  0.00     0.035 C 
ENDBRANCH  19  21
BRANCH  19  23
HETATM   23  C   UNL     1       8.881  21.399  53.677  1.00  0.00     0.237 C 
HETATM   24  C   UNL     1       8.306  20.393  52.696  1.00  0.00     0.035 C 
ENDBRANCH  19  23
ENDBRANCH  16  19
ENDBRANCH   1  13
BRANCH   2  25
HETATM   25  C   UNL     1       4.613  28.102  53.437  1.00  0.00     0.193 C 
BRANCH  25  26
HETATM   26  C   UNL     1       4.955  28.299  52.006  1.00  0.00     0.070 A 
HETATM   27  O   UNL     1       5.265  29.571  51.620  1.00  0.00    -0.325 OA
HETATM   28  C   UNL     1       5.543  29.523  50.292  1.00  0.00     0.142 A 
HETATM   29  C   UNL     1       5.406  28.239  49.816  1.00  0.00     0.027 A 
HETATM   30  C   UNL     1       5.025  27.446  50.924  1.00  0.00     0.036 A 
ENDBRANCH  25  26
ENDBRANCH   2  25
TORSDOF 6
ENDMDL
MODEL 3
REMARK VINA RESULT:      -8.2      2.569      6.386
REMARK  6 active torsions:
REMARK  status: ('A' for Active; 'I' for Inactive)
REMARK    1  A    between atoms: C_2  and  N_3 
REMARK    2  A    between atoms: N_3  and  C_5 
REMARK    3  A    between atoms: N_3  and  C_28 
REMARK    4  A    between atoms: C_8  and  C_9 
REMARK    5  A    between atoms: N_10  and  C_11 
REMARK    6  A    between atoms: C_11  and  C_12 
ROOT
HETATM    1  C   UNL     1       6.078  26.574  54.533  1.00  0.00     0.222 C 
HETATM    2  N   UNL     1       6.607  26.444  53.193  1.00  0.00    -0.316 N 
HETATM    3  C   UNL     1       7.566  25.491  52.891  1.00  0.00     0.258 C 
HETATM    4  O   UNL     1       8.278  25.542  51.892  1.00  0.00    -0.267 OA
HETATM    5  C   UNL     1       7.698  24.361  53.836  1.00  0.00     0.058 A 
HETATM    6  C   UNL     1       6.794  24.286  54.901  1.00  0.00     0.045 A 
HETATM    7  N   UNL     1       5.802  25.252  55.067  1.00  0.00    -0.364 N 
HETATM    8  C   UNL     1       8.650  23.358  53.620  1.00  0.00     0.019 A 
HETATM    9  C   UNL     1       8.684  22.248  54.463  1.00  0.00     0.001 A 
HETATM   10  C   UNL     1       7.762  22.139  55.502  1.00  0.00     0.002 A 
HETATM   11  C   UNL     1       6.814  23.146  55.710  1.00  0.00     0.030 A 
HETATM   12  H   UNL     1       5.357  25.240  55.975  1.00  0.00     0.162 HD
ENDROOT
BRANCH   1  13
HETATM   13  C   UNL     1       6.958  27.389  55.499  1.00  0.00    -0.016 A 
HETATM   14  C   UNL     1       7.840  28.395  55.062  1.00  0.00     0.013 A 
HETATM   15  C   UNL     1       8.571  29.170  55.970  1.00  0.00     0.038 A 
HETATM   16  C   UNL     1       8.456  28.938  57.339  1.00  0.00     0.134 A 
HETATM   17  C   UNL     1       7.602  27.931  57.796  1.00  0.00     0.038 A 
HETATM   18  C   UNL     1       6.853  27.177  56.886  1.00  0.00     0.013 A 
BRANCH  16  19
HETATM   19  N   UNL     1       9.171  29.764  58.339  1.00  0.00    -0.042 N 
HETATM   20  H   UNL     1       9.732  29.095  58.881  1.00  0.00     0.286 HD
BRANCH  19  21
HETATM   21  C   UNL     1       8.252  30.398  59.357  1.00  0.00     0.237 C 
HETATM   22  C   UNL     1       8.998  30.700  60.648  1.00  0.00     0.035 C 
ENDBRANCH  19  21
BRANCH  19  23
HETATM   23  C   UNL     1      10.209  30.670  57.719  1.00  0.00     0.237 C 
HETATM   24  C   UNL     1      11.530  29.991  57.404  1.00  0.00     0.035 C 
ENDBRANCH  19  23
ENDBRANCH  16  19
ENDBRANCH   1  13
BRANCH   2  25
HETATM   25  C   UNL     1       6.295  27.480  52.217  1.00  0.00     0.193 C 
BRANCH  25  26
HETATM   26  C   UNL     1       5.502  26.902  51.103  1.00  0.00     0.070 A 
HETATM   27  O   UNL     1       5.349  27.681  49.992  1.00  0.00    -0.325 OA
HETATM   28  C   UNL     1       4.603  26.967  49.110  1.00  0.00     0.142 A 
HETATM   29  C   UNL     1       4.264  25.745  49.643  1.00  0.00     0.027 A 
HETATM   30  C   UNL     1       4.844  25.702  50.933  1.00  0.00     0.036 A 
ENDBRANCH  25  26
ENDBRANCH   2  25
TORSDOF 6
ENDMDL
MODEL 4
REMARK VINA RESULT:      -8.2      2.780      5.807
REMARK  6 active torsions:
REMARK  status: ('A' for Active; 'I' for Inactive)
REMARK    1  A    between atoms: C_2  and  N_3 
REMARK    2  A    between atoms: N_3  and  C_5 
REMARK    3  A    between atoms: N_3  and  C_28 
REMARK    4  A    between atoms: C_8  and  C_9 
REMARK    5  A    between atoms: N_10  and  C_11 
REMARK    6  A    between atoms: C_11  and  C_12 
ROOT
HETATM    1  C   UNL     1       5.372  25.673  56.001  1.00  0.00     0.222 C 
HETATM    2  N   UNL     1       6.648  25.415  56.635  1.00  0.00    -0.316 N 
HETATM    3  C   UNL     1       7.474  26.453  57.032  1.00  0.00     0.258 C 
HETATM    4  O   UNL     1       8.671  26.315  57.262  1.00  0.00    -0.267 OA
HETATM    5  C   UNL     1       6.839  27.780  57.192  1.00  0.00     0.058 A 
HETATM    6  C   UNL     1       5.454  27.870  57.025  1.00  0.00     0.045 A 
HETATM    7  N   UNL     1       4.695  26.743  56.713  1.00  0.00    -0.364 N 
HETATM    8  C   UNL     1       7.597  28.892  57.577  1.00  0.00     0.019 A 
HETATM    9  C   UNL     1       6.961  30.107  57.826  1.00  0.00     0.001 A 
HETATM   10  C   UNL     1       5.576  30.200  57.706  1.00  0.00     0.002 A 
HETATM   11  C   UNL     1       4.827  29.085  57.321  1.00  0.00     0.030 A 
HETATM   12  H   UNL     1       3.758  26.946  56.391  1.00  0.00     0.162 HD
ENDROOT
BRANCH   1  13
HETATM   13  C   UNL     1       5.450  25.974  54.493  1.00  0.00    -0.016 A 
HETATM   14  C   UNL     1       4.905  25.119  53.516  1.00  0.00     0.013 A 
HETATM   15  C   UNL     1       4.926  25.457  52.157  1.00  0.00     0.038 A 
HETATM   16  C   UNL     1       5.514  26.649  51.742  1.00  0.00     0.134 A 
HETATM   17  C   UNL     1       6.078  27.505  52.691  1.00  0.00     0.038 A 
HETATM   18  C   UNL     1       6.033  27.176  54.051  1.00  0.00     0.013 A 
BRANCH  16  19
HETATM   19  N   UNL     1       5.515  27.073  50.323  1.00  0.00    -0.042 N 
HETATM   20  H   UNL     1       6.424  26.767  49.956  1.00  0.00     0.286 HD
BRANCH  19  21
HETATM   21  C   UNL     1       5.522  28.574  50.146  1.00  0.00     0.237 C 
HETATM   22  C   UNL     1       4.111  29.137  50.223  1.00  0.00     0.035 C 
ENDBRANCH  19  21
BRANCH  19  23
HETATM   23  C   UNL     1       4.523  26.306  49.480  1.00  0.00     0.237 C 
HETATM   24  C   UNL     1       4.722  26.453  47.983  1.00  0.00     0.035 C 
ENDBRANCH  19  23
ENDBRANCH  16  19
ENDBRANCH   1  13
BRANCH   2  25
HETATM   25  C   UNL     1       7.161  24.051  56.636  1.00  0.00     0.193 C 
BRANCH  25  26
HETATM   26  C   UNL     1       7.555  23.658  55.260  1.00  0.00     0.070 A 
HETATM   27  O   UNL     1       7.148  22.427  54.834  1.00  0.00    -0.325 OA
HETATM   28  C   UNL     1       7.610  22.276  53.566  1.00  0.00     0.142 A 
HETATM   29  C   UNL     1       8.318  23.389  53.174  1.00  0.00     0.027 A 
HETATM   30  C   UNL     1       8.285  24.284  54.270  1.00  0.00     0.036 A 
ENDBRANCH  25  26
ENDBRANCH   2  25
TORSDOF 6
ENDMDL
MODEL 5
REMARK VINA RESULT:      -8.0      2.780      6.620
REMARK  6 active torsions:
REMARK  status: ('A' for Active; 'I' for Inactive)
REMARK    1  A    between atoms: C_2  and  N_3 
REMARK    2  A    between atoms: N_3  and  C_5 
REMARK    3  A    between atoms: N_3  and  C_28 
REMARK    4  A    between atoms: C_8  and  C_9 
REMARK    5  A    between atoms: N_10  and  C_11 
REMARK    6  A    between atoms: C_11  and  C_12 
ROOT
HETATM    1  C   UNL     1       7.067  27.416  53.347  1.00  0.00     0.222 C 
HETATM    2  N   UNL     1       6.589  27.332  54.711  1.00  0.00    -0.316 N 
HETATM    3  C   UNL     1       6.301  26.109  55.295  1.00  0.00     0.258 C 
HETATM    4  O   UNL     1       5.600  25.986  56.295  1.00  0.00    -0.267 OA
HETATM    5  C   UNL     1       6.901  24.915  54.661  1.00  0.00     0.058 A 
HETATM    6  C   UNL     1       7.780  25.110  53.591  1.00  0.00     0.045 A 
HETATM    7  N   UNL     1       8.077  26.393  53.133  1.00  0.00    -0.364 N 
HETATM    8  C   UNL     1       6.654  23.636  55.173  1.00  0.00     0.019 A 
HETATM    9  C   UNL     1       7.315  22.536  54.628  1.00  0.00     0.001 A 
HETATM   10  C   UNL     1       8.226  22.721  53.590  1.00  0.00     0.002 A 
HETATM   11  C   UNL     1       8.466  24.002  53.084  1.00  0.00     0.030 A 
HETATM   12  H   UNL     1       8.528  26.420  52.229  1.00  0.00     0.162 HD
ENDROOT
BRANCH   1  13
HETATM   13  C   UNL     1       5.968  27.344  52.272  1.00  0.00    -0.016 A 
HETATM   14  C   UNL     1       5.029  28.373  52.071  1.00  0.00     0.013 A 
HETATM   15  C   UNL     1       4.089  28.311  51.036  1.00  0.00     0.038 A 
HETATM   16  C   UNL     1       4.051  27.204  50.191  1.00  0.00     0.134 A 
HETATM   17  C   UNL     1       4.961  26.161  50.381  1.00  0.00     0.038 A 
HETATM   18  C   UNL     1       5.916  26.239  51.402  1.00  0.00     0.013 A 
BRANCH  16  19
HETATM   19  N   UNL     1       3.109  27.118  49.051  1.00  0.00    -0.042 N 
HETATM   20  H   UNL     1       2.362  26.490  49.374  1.00  0.00     0.286 HD
BRANCH  19  21
HETATM   21  C   UNL     1       3.692  26.421  47.844  1.00  0.00     0.237 C 
HETATM   22  C   UNL     1       2.960  25.117  47.562  1.00  0.00     0.035 C 
ENDBRANCH  19  21
BRANCH  19  23
HETATM   23  C   UNL     1       2.384  28.416  48.788  1.00  0.00     0.237 C 
HETATM   24  C   UNL     1       2.873  29.175  47.568  1.00  0.00     0.035 C 
ENDBRANCH  19  23
ENDBRANCH  16  19
ENDBRANCH   1  13
BRANCH   2  25
HETATM   25  C   UNL     1       6.188  28.560  55.385  1.00  0.00     0.193 C 
BRANCH  25  26
HETATM   26  C   UNL     1       7.237  28.971  56.352  1.00  0.00     0.070 A 
HETATM   27  O   UNL     1       6.852  29.097  57.655  1.00  0.00    -0.325 OA
HETATM   28  C   UNL     1       7.953  29.474  58.356  1.00  0.00     0.142 A 
HETATM   29  C   UNL     1       9.037  29.603  57.519  1.00  0.00     0.027 A 
HETATM   30  C   UNL     1       8.575  29.279  56.222  1.00  0.00     0.036 A 
ENDBRANCH  25  26
ENDBRANCH   2  25
TORSDOF 6
ENDMDL
MODEL 6
REMARK VINA RESULT:      -7.9      3.212      7.089
REMARK  6 active torsions:
REMARK  status: ('A' for Active; 'I' for Inactive)
REMARK    1  A    between atoms: C_2  and  N_3 
REMARK    2  A    between atoms: N_3  and  C_5 
REMARK    3  A    between atoms: N_3  and  C_28 
REMARK    4  A    between atoms: C_8  and  C_9 
REMARK    5  A    between atoms: N_10  and  C_11 
REMARK    6  A    between atoms: C_11  and  C_12 
ROOT
HETATM    1  C   UNL     1       5.562  26.149  53.267  1.00  0.00     0.222 C 
HETATM    2  N   UNL     1       6.954  26.480  53.488  1.00  0.00    -0.316 N 
HETATM    3  C   UNL     1       7.319  27.673  54.091  1.00  0.00     0.258 C 
HETATM    4  O   UNL     1       8.445  28.154  54.010  1.00  0.00    -0.267 OA
HETATM    5  C   UNL     1       6.275  28.363  54.879  1.00  0.00     0.058 A 
HETATM    6  C   UNL     1       5.040  27.727  55.034  1.00  0.00     0.045 A 
HETATM    7  N   UNL     1       4.800  26.479  54.459  1.00  0.00    -0.364 N 
HETATM    8  C   UNL     1       6.549  29.581  55.513  1.00  0.00     0.019 A 
HETATM    9  C   UNL     1       5.585  30.160  56.337  1.00  0.00     0.001 A 
HETATM   10  C   UNL     1       4.366  29.515  56.536  1.00  0.00     0.002 A 
HETATM   11  C   UNL     1       4.101  28.300  55.898  1.00  0.00     0.030 A 
HETATM   12  H   UNL     1       3.825  26.214  54.431  1.00  0.00     0.162 HD
ENDROOT
BRANCH   1  13
HETATM   13  C   UNL     1       4.936  26.788  52.014  1.00  0.00    -0.016 A 
HETATM   14  C   UNL     1       4.234  28.007  52.050  1.00  0.00     0.013 A 
HETATM   15  C   UNL     1       3.742  28.601  50.882  1.00  0.00     0.038 A 
HETATM   16  C   UNL     1       3.920  27.974  49.651  1.00  0.00     0.134 A 
HETATM   17  C   UNL     1       4.597  26.754  49.591  1.00  0.00     0.038 A 
HETATM   18  C   UNL     1       5.110  26.177  50.759  1.00  0.00     0.013 A 
BRANCH  16  19
HETATM   19  N   UNL     1       3.462  28.588  48.383  1.00  0.00    -0.042 N 
HETATM   20  H   UNL     1       2.745  29.269  48.663  1.00  0.00     0.286 HD
BRANCH  19  21
HETATM   21  C   UNL     1       2.732  27.621  47.480  1.00  0.00     0.237 C 
HETATM   22  C   UNL     1       1.320  27.366  47.985  1.00  0.00     0.035 C 
ENDBRANCH  19  21
BRANCH  19  23
HETATM   23  C   UNL     1       4.520  29.445  47.729  1.00  0.00     0.237 C 
HETATM   24  C   UNL     1       3.992  30.407  46.680  1.00  0.00     0.035 C 
ENDBRANCH  19  23
ENDBRANCH  16  19
ENDBRANCH   1  13
BRANCH   2  25
HETATM   25  C   UNL     1       7.974  25.656  52.855  1.00  0.00     0.193 C 
BRANCH  25  26
HETATM   26  C   UNL     1       7.922  24.277  53.404  1.00  0.00     0.070 A 
HETATM   27  O   UNL     1       8.089  24.149  54.752  1.00  0.00    -0.325 OA
HETATM   28  C   UNL     1       8.004  22.823  55.035  1.00  0.00     0.142 A 
HETATM   29  C   UNL     1       7.796  22.097  53.885  1.00  0.00     0.027 A 
HETATM   30  C   UNL     1       7.744  23.036  52.828  1.00  0.00     0.036 A 
ENDBRANCH  25  26
ENDBRANCH   2  25
TORSDOF 6
ENDMDL
MODEL 7
REMARK VINA RESULT:      -7.9      1.961      6.239
REMARK  6 active torsions:
REMARK  status: ('A' for Active; 'I' for Inactive)
REMARK    1  A    between atoms: C_2  and  N_3 
REMARK    2  A    between atoms: N_3  and  C_5 
REMARK    3  A    between atoms: N_3  and  C_28 
REMARK    4  A    between atoms: C_8  and  C_9 
REMARK    5  A    between atoms: N_10  and  C_11 
REMARK    6  A    between atoms: C_11  and  C_12 
ROOT
HETATM    1  C   UNL     1       5.744  25.143  55.481  1.00  0.00     0.222 C 
HETATM    2  N   UNL     1       5.484  24.976  54.067  1.00  0.00    -0.316 N 
HETATM    3  C   UNL     1       6.398  24.343  53.241  1.00  0.00     0.258 C 
HETATM    4  O   UNL     1       6.397  24.457  52.019  1.00  0.00    -0.267 OA
HETATM    5  C   UNL     1       7.400  23.479  53.902  1.00  0.00     0.058 A 
HETATM    6  C   UNL     1       7.298  23.291  55.283  1.00  0.00     0.045 A 
HETATM    7  N   UNL     1       6.282  23.904  56.016  1.00  0.00    -0.364 N 
HETATM    8  C   UNL     1       8.372  22.809  53.149  1.00  0.00     0.019 A 
HETATM    9  C   UNL     1       9.239  21.918  53.779  1.00  0.00     0.001 A 
HETATM   10  C   UNL     1       9.119  21.688  55.148  1.00  0.00     0.002 A 
HETATM   11  C   UNL     1       8.146  22.361  55.892  1.00  0.00     0.030 A 
HETATM   12  H   UNL     1       6.426  23.896  57.017  1.00  0.00     0.162 HD
ENDROOT
BRANCH   1  13
HETATM   13  C   UNL     1       6.648  26.338  55.835  1.00  0.00    -0.016 A 
HETATM   14  C   UNL     1       7.451  26.994  54.883  1.00  0.00     0.013 A 
HETATM   15  C   UNL     1       8.205  28.125  55.220  1.00  0.00     0.038 A 
HETATM   16  C   UNL     1       8.192  28.611  56.525  1.00  0.00     0.134 A 
HETATM   17  C   UNL     1       7.417  27.966  57.492  1.00  0.00     0.038 A 
HETATM   18  C   UNL     1       6.645  26.851  57.145  1.00  0.00     0.013 A 
BRANCH  16  19
HETATM   19  N   UNL     1       8.932  29.833  56.916  1.00  0.00    -0.042 N 
HETATM   20  H   UNL     1       8.388  30.609  56.519  1.00  0.00     0.286 HD
BRANCH  19  21
HETATM   21  C   UNL     1      10.288  29.948  56.258  1.00  0.00     0.237 C 
HETATM   22  C   UNL     1      11.401  29.868  57.291  1.00  0.00     0.035 C 
ENDBRANCH  19  21
BRANCH  19  23
HETATM   23  C   UNL     1       8.886  30.098  58.402  1.00  0.00     0.237 C 
HETATM   24  C   UNL     1       8.103  31.337  58.797  1.00  0.00     0.035 C 
ENDBRANCH  19  23
ENDBRANCH  16  19
ENDBRANCH   1  13
BRANCH   2  25
HETATM   25  C   UNL     1       4.359  25.689  53.477  1.00  0.00     0.193 C 
BRANCH  25  26
HETATM   26  C   UNL     1       4.764  27.077  53.137  1.00  0.00     0.070 A 
HETATM   27  O   UNL     1       4.325  28.064  53.972  1.00  0.00    -0.325 OA
HETATM   28  C   UNL     1       4.806  29.236  53.483  1.00  0.00     0.142 A 
HETATM   29  C   UNL     1       5.539  29.018  52.339  1.00  0.00     0.027 A 
HETATM   30  C   UNL     1       5.511  27.621  52.113  1.00  0.00     0.036 A 
ENDBRANCH  25  26
ENDBRANCH   2  25
TORSDOF 6
ENDMDL
MODEL 8
REMARK VINA RESULT:      -7.8      2.546      5.665
REMARK  6 active torsions:
REMARK  status: ('A' for Active; 'I' for Inactive)
REMARK    1  A    between atoms: C_2  and  N_3 
REMARK    2  A    between atoms: N_3  and  C_5 
REMARK    3  A    between atoms: N_3  and  C_28 
REMARK    4  A    between atoms: C_8  and  C_9 
REMARK    5  A    between atoms: N_10  and  C_11 
REMARK    6  A    between atoms: C_11  and  C_12 
ROOT
HETATM    1  C   UNL     1       5.069  27.557  56.507  1.00  0.00     0.222 C 
HETATM    2  N   UNL     1       6.135  26.746  57.057  1.00  0.00    -0.316 N 
HETATM    3  C   UNL     1       7.323  27.318  57.483  1.00  0.00     0.258 C 
HETATM    4  O   UNL     1       8.360  26.681  57.643  1.00  0.00    -0.267 OA
HETATM    5  C   UNL     1       7.294  28.769  57.767  1.00  0.00     0.058 A 
HETATM    6  C   UNL     1       6.067  29.433  57.677  1.00  0.00     0.045 A 
HETATM    7  N   UNL     1       4.906  28.746  57.326  1.00  0.00    -0.364 N 
HETATM    8  C   UNL     1       8.450  29.436  58.191  1.00  0.00     0.019 A 
HETATM    9  C   UNL     1       8.377  30.779  58.556  1.00  0.00     0.001 A 
HETATM   10  C   UNL     1       7.151  31.442  58.512  1.00  0.00     0.002 A 
HETATM   11  C   UNL     1       6.002  30.768  58.088  1.00  0.00     0.030 A 
HETATM   12  H   UNL     1       4.131  29.342  57.066  1.00  0.00     0.162 HD
ENDROOT
BRANCH   1  13
HETATM   13  C   UNL     1       5.238  27.926  55.022  1.00  0.00    -0.016 A 
HETATM   14  C   UNL     1       6.491  27.951  54.381  1.00  0.00     0.013 A 
HETATM   15  C   UNL     1       6.604  28.217  53.010  1.00  0.00     0.038 A 
HETATM   16  C   UNL     1       5.466  28.488  52.254  1.00  0.00     0.134 A 
HETATM   17  C   UNL     1       4.213  28.487  52.872  1.00  0.00     0.038 A 
HETATM   18  C   UNL     1       4.102  28.195  54.237  1.00  0.00     0.013 A 
BRANCH  16  19
HETATM   19  N   UNL     1       5.531  28.724  50.794  1.00  0.00    -0.042 N 
HETATM   20  H   UNL     1       6.491  28.473  50.528  1.00  0.00     0.286 HD
BRANCH  19  21
HETATM   21  C   UNL     1       5.405  30.182  50.417  1.00  0.00     0.237 C 
HETATM   22  C   UNL     1       4.149  30.424  49.593  1.00  0.00     0.035 C 
ENDBRANCH  19  21
BRANCH  19  23
HETATM   23  C   UNL     1       4.685  27.754  50.003  1.00  0.00     0.237 C 
HETATM   24  C   UNL     1       4.995  26.291  50.263  1.00  0.00     0.035 C 
ENDBRANCH  19  23
ENDBRANCH  16  19
ENDBRANCH   1  13
BRANCH   2  25
HETATM   25  C   UNL     1       6.040  25.297  56.937  1.00  0.00     0.193 C 
BRANCH  25  26
HETATM   26  C   UNL     1       6.524  24.868  55.601  1.00  0.00     0.070 A 
HETATM   27  O   UNL     1       5.579  24.708  54.630  1.00  0.00    -0.325 OA
HETATM   28  C   UNL     1       6.232  24.319  53.504  1.00  0.00     0.142 A 
HETATM   29  C   UNL     1       7.584  24.217  53.742  1.00  0.00     0.027 A 
HETATM   30  C   UNL     1       7.774  24.570  55.099  1.00  0.00     0.036 A 
ENDBRANCH  25  26
ENDBRANCH   2  25
TORSDOF 6
ENDMDL
MODEL 9
REMARK VINA RESULT:      -7.8      7.714     11.046
REMARK  6 active torsions:
REMARK  status: ('A' for Active; 'I' for Inactive)
REMARK    1  A    between atoms: C_2  and  N_3 
REMARK    2  A    between atoms: N_3  and  C_5 
REMARK    3  A    between atoms: N_3  and  C_28 
REMARK    4  A    between atoms: C_8  and  C_9 
REMARK    5  A    between atoms: N_10  and  C_11 
REMARK    6  A    between atoms: C_11  and  C_12 
ROOT
HETATM    1  C   UNL     1       5.597  32.676  63.413  1.00  0.00     0.222 C 
HETATM    2  N   UNL     1       5.986  33.954  63.970  1.00  0.00    -0.316 N 
HETATM    3  C   UNL     1       5.635  35.142  63.350  1.00  0.00     0.258 C 
HETATM    4  O   UNL     1       6.193  36.212  63.573  1.00  0.00    -0.267 OA
HETATM    5  C   UNL     1       4.513  35.080  62.388  1.00  0.00     0.058 A 
HETATM    6  C   UNL     1       3.835  33.866  62.245  1.00  0.00     0.045 A 
HETATM    7  N   UNL     1       4.210  32.745  62.985  1.00  0.00    -0.364 N 
HETATM    8  C   UNL     1       4.097  36.228  61.703  1.00  0.00     0.019 A 
HETATM    9  C   UNL     1       2.971  36.171  60.883  1.00  0.00     0.001 A 
HETATM   10  C   UNL     1       2.260  34.978  60.765  1.00  0.00     0.002 A 
HETATM   11  C   UNL     1       2.683  33.837  61.453  1.00  0.00     0.030 A 
HETATM   12  H   UNL     1       3.821  31.874  62.650  1.00  0.00     0.162 HD
ENDROOT
BRANCH   1  13
HETATM   13  C   UNL     1       6.502  32.164  62.278  1.00  0.00    -0.016 A 
HETATM   14  C   UNL     1       7.716  31.492  62.515  1.00  0.00     0.013 A 
HETATM   15  C   UNL     1       8.480  30.972  61.464  1.00  0.00     0.038 A 
HETATM   16  C   UNL     1       8.058  31.134  60.146  1.00  0.00     0.134 A 
HETATM   17  C   UNL     1       6.866  31.813  59.884  1.00  0.00     0.038 A 
HETATM   18  C   UNL     1       6.092  32.309  60.940  1.00  0.00     0.013 A 
BRANCH  16  19
HETATM   19  N   UNL     1       8.806  30.557  59.005  1.00  0.00    -0.042 N 
HETATM   20  H   UNL     1       9.267  29.722  59.387  1.00  0.00     0.286 HD
BRANCH  19  21
HETATM   21  C   UNL     1       9.944  31.432  58.532  1.00  0.00     0.237 C 
HETATM   22  C   UNL     1      10.766  30.724  57.466  1.00  0.00     0.035 C 
ENDBRANCH  19  21
BRANCH  19  23
HETATM   23  C   UNL     1       7.902  29.998  57.932  1.00  0.00     0.237 C 
HETATM   24  C   UNL     1       7.777  28.486  57.939  1.00  0.00     0.035 C 
ENDBRANCH  19  23
ENDBRANCH  16  19
ENDBRANCH   1  13
BRANCH   2  25
HETATM   25  C   UNL     1       6.952  33.974  65.060  1.00  0.00     0.193 C 
BRANCH  25  26
HETATM   26  C   UNL     1       6.244  34.079  66.361  1.00  0.00     0.070 A 
HETATM   27  O   UNL     1       7.019  34.292  67.464  1.00  0.00    -0.325 OA
HETATM   28  C   UNL     1       6.178  34.357  68.529  1.00  0.00     0.142 A 
HETATM   29  C   UNL     1       4.875  34.178  68.127  1.00  0.00     0.027 A 
HETATM   30  C   UNL     1       4.916  33.997  66.724  1.00  0.00     0.036 A 
ENDBRANCH  25  26
ENDBRANCH   2  25
TORSDOF 6
ENDMDL
MODEL 10
REMARK VINA RESULT:      -7.6      2.045      6.222
REMARK  6 active torsions:
REMARK  status: ('A' for Active; 'I' for Inactive)
REMARK    1  A    between atoms: C_2  and  N_3 
REMARK    2  A    between atoms: N_3  and  C_5 
REMARK    3  A    between atoms: N_3  and  C_28 
REMARK    4  A    between atoms: C_8  and  C_9 
REMARK    5  A    between atoms: N_10  and  C_11 
REMARK    6  A    between atoms: C_11  and  C_12 
ROOT
HETATM    1  C   UNL     1       5.280  26.952  55.476  1.00  0.00     0.222 C 
HETATM    2  N   UNL     1       4.890  27.262  54.117  1.00  0.00    -0.316 N 
HETATM    3  C   UNL     1       5.632  26.808  53.038  1.00  0.00     0.258 C 
HETATM    4  O   UNL     1       5.555  27.292  51.913  1.00  0.00    -0.267 OA
HETATM    5  C   UNL     1       6.538  25.666  53.291  1.00  0.00     0.058 A 
HETATM    6  C   UNL     1       6.513  25.075  54.558  1.00  0.00     0.045 A 
HETATM    7  N   UNL     1       5.661  25.552  55.554  1.00  0.00    -0.364 N 
HETATM    8  C   UNL     1       7.336  25.148  52.265  1.00  0.00     0.019 A 
HETATM    9  C   UNL     1       8.101  24.006  52.497  1.00  0.00     0.001 A 
HETATM   10  C   UNL     1       8.052  23.381  53.742  1.00  0.00     0.002 A 
HETATM   11  C   UNL     1       7.253  23.906  54.761  1.00  0.00     0.030 A 
HETATM   12  H   UNL     1       5.878  25.219  56.484  1.00  0.00     0.162 HD
ENDROOT
BRANCH   1  13
HETATM   13  C   UNL     1       6.380  27.859  56.056  1.00  0.00    -0.016 A 
HETATM   14  C   UNL     1       7.439  28.366  55.279  1.00  0.00     0.013 A 
HETATM   15  C   UNL     1       8.382  29.249  55.817  1.00  0.00     0.038 A 
HETATM   16  C   UNL     1       8.301  29.628  57.155  1.00  0.00     0.134 A 
HETATM   17  C   UNL     1       7.270  29.124  57.952  1.00  0.00     0.038 A 
HETATM   18  C   UNL     1       6.315  28.261  57.403  1.00  0.00     0.013 A 
BRANCH  16  19
HETATM   19  N   UNL     1       9.245  30.599  57.755  1.00  0.00    -0.042 N 
HETATM   20  H   UNL     1       8.778  31.510  57.667  1.00  0.00     0.286 HD
BRANCH  19  21
HETATM   21  C   UNL     1      10.526  30.753  56.968  1.00  0.00     0.237 C 
HETATM   22  C   UNL     1      11.533  29.681  57.354  1.00  0.00     0.035 C 
ENDBRANCH  19  21
BRANCH  19  23
HETATM   23  C   UNL     1       9.395  30.426  59.249  1.00  0.00     0.237 C 
HETATM   24  C   UNL     1       9.461  31.727  60.029  1.00  0.00     0.035 C 
ENDBRANCH  19  23
ENDBRANCH  16  19
ENDBRANCH   1  13
BRANCH   2  25
HETATM   25  C   UNL     1       3.846  28.255  53.901  1.00  0.00     0.193 C 
BRANCH  25  26
HETATM   26  C   UNL     1       4.094  29.442  54.757  1.00  0.00     0.070 A 
HETATM   27  O   UNL     1       3.430  29.488  55.948  1.00  0.00    -0.325 OA
HETATM   28  C   UNL     1       3.800  30.641  56.562  1.00  0.00     0.142 A 
HETATM   29  C   UNL     1       4.684  31.344  55.777  1.00  0.00     0.027 A 
HETATM   30  C   UNL     1       4.875  30.570  54.607  1.00  0.00     0.036 A 
ENDBRANCH  25  26
ENDBRANCH   2  25
TORSDOF 6
ENDMDL
