MODEL 1
REMARK VINA RESULT:      -8.9      0.000      0.000
REMARK  6 active torsions:
REMARK  status: ('A' for Active; 'I' for Inactive)
REMARK    1  A    between atoms: C_4  and  C_5 
REMARK    2  A    between atoms: C_7  and  N_8 
REMARK       I    between atoms: N_8  and  C_9 
REMARK    3  A    between atoms: C_9  and  C_10 
REMARK    4  A    between atoms: C_10  and  N_11 
REMARK    5  A    between atoms: N_11  and  C_14 
REMARK    6  A    between atoms: C_20  and  C_21 
REMARK       I    between atoms: C_21  and  N_22 
ROOT
HETATM    1  C   UNL     1       7.255  23.849  54.415  1.00  0.00     0.018 A 
HETATM    2  S   UNL     1       7.698  24.836  55.739  1.00  0.00    -0.071 SA
HETATM    3  C   UNL     1       6.774  26.141  55.186  1.00  0.00     0.093 A 
HETATM    4  C   UNL     1       6.108  25.866  53.998  1.00  0.00     0.067 A 
HETATM    5  C   UNL     1       6.393  24.523  53.569  1.00  0.00     0.039 A 
ENDROOT
BRANCH   3   6
HETATM    6  N   UNL     1       6.712  27.344  55.879  1.00  0.00    -0.319 N 
HETATM    7  C   UNL     1       5.732  27.751  56.753  1.00  0.00     0.248 C 
HETATM    8  O   UNL     1       4.717  27.154  57.110  1.00  0.00    -0.271 OA
HETATM    9  H   UNL     1       7.522  27.945  55.705  1.00  0.00     0.169 HD
BRANCH   7  10
HETATM   10  C   UNL     1       5.985  29.130  57.361  1.00  0.00     0.335 C 
BRANCH  10  11
HETATM   11  N   UNL     1       7.293  29.102  58.123  1.00  0.00    -0.063 N 
HETATM   12  H   UNL     1       7.052  29.372  59.094  1.00  0.00     0.278 HD
HETATM   13  H   UNL     1       7.583  28.118  58.229  1.00  0.00     0.278 HD
BRANCH  11  14
HETATM   14  C   UNL     1       8.388  29.944  57.601  1.00  0.00     0.186 C 
HETATM   15  C   UNL     1       8.967  30.806  58.710  1.00  0.00     0.033 C 
HETATM   16  C   UNL     1      10.313  31.229  58.138  1.00  0.00     0.002 C 
HETATM   17  C   UNL     1      10.779  30.052  57.280  1.00  0.00     0.002 C 
HETATM   18  C   UNL     1       9.578  29.112  57.147  1.00  0.00     0.033 C 
ENDBRANCH  11  14
ENDBRANCH  10  11
ENDBRANCH   7  10
ENDBRANCH   3   6
BRANCH   4  19
HETATM   19  C   UNL     1       5.262  26.865  53.346  1.00  0.00     0.252 C 
HETATM   20  N   UNL     1       3.950  26.550  53.173  1.00  0.00    -0.366 N 
HETATM   21  H   UNL     1       3.537  25.669  53.438  1.00  0.00     0.159 HD
HETATM   22  H   UNL     1       3.356  27.225  52.708  1.00  0.00     0.159 HD
HETATM   23  O   UNL     1       5.711  27.944  52.960  1.00  0.00    -0.268 OA
ENDBRANCH   4  19
BRANCH   1  24
HETATM   24  C   UNL     1       7.755  22.473  54.308  1.00  0.00    -0.019 A 
HETATM   25  C   UNL     1       7.984  21.716  55.467  1.00  0.00     0.013 A 
HETATM   26  C   UNL     1       8.448  20.401  55.382  1.00  0.00     0.001 A 
HETATM   27  C   UNL     1       8.683  19.822  54.137  1.00  0.00     0.000 A 
HETATM   28  C   UNL     1       8.456  20.558  52.977  1.00  0.00     0.001 A 
HETATM   29  C   UNL     1       7.994  21.875  53.061  1.00  0.00     0.013 A 
ENDBRANCH   1  24
TORSDOF 6
ENDMDL
MODEL 2
REMARK VINA RESULT:      -8.9      2.114      2.688
REMARK  6 active torsions:
REMARK  status: ('A' for Active; 'I' for Inactive)
REMARK    1  A    between atoms: C_4  and  C_5 
REMARK    2  A    between atoms: C_7  and  N_8 
REMARK       I    between atoms: N_8  and  C_9 
REMARK    3  A    between atoms: C_9  and  C_10 
REMARK    4  A    between atoms: C_10  and  N_11 
REMARK    5  A    between atoms: N_11  and  C_14 
REMARK    6  A    between atoms: C_20  and  C_21 
REMARK       I    between atoms: C_21  and  N_22 
ROOT
HETATM    1  C   UNL     1       7.423  24.685  55.064  1.00  0.00     0.018 A 
HETATM    2  S   UNL     1       7.758  25.229  56.650  1.00  0.00    -0.071 SA
HETATM    3  C   UNL     1       7.265  26.811  56.303  1.00  0.00     0.093 A 
HETATM    4  C   UNL     1       6.833  26.966  54.993  1.00  0.00     0.067 A 
HETATM    5  C   UNL     1       6.924  25.716  54.288  1.00  0.00     0.039 A 
ENDROOT
BRANCH   3   6
HETATM    6  N   UNL     1       7.300  27.818  57.261  1.00  0.00    -0.319 N 
HETATM    7  C   UNL     1       8.371  28.611  57.595  1.00  0.00     0.248 C 
HETATM    8  O   UNL     1       9.511  28.608  57.132  1.00  0.00    -0.271 OA
HETATM    9  H   UNL     1       6.396  27.961  57.719  1.00  0.00     0.169 HD
BRANCH   7  10
HETATM   10  C   UNL     1       8.058  29.640  58.681  1.00  0.00     0.335 C 
BRANCH  10  11
HETATM   11  N   UNL     1       9.311  30.432  58.988  1.00  0.00    -0.063 N 
HETATM   12  H   UNL     1      10.017  29.730  59.277  1.00  0.00     0.278 HD
HETATM   13  H   UNL     1       9.696  30.783  58.098  1.00  0.00     0.278 HD
BRANCH  11  14
HETATM   14  C   UNL     1       9.194  31.503  59.997  1.00  0.00     0.186 C 
HETATM   15  C   UNL     1       7.777  32.052  60.023  1.00  0.00     0.033 C 
HETATM   16  C   UNL     1       7.719  32.768  61.365  1.00  0.00     0.002 C 
HETATM   17  C   UNL     1       8.620  31.957  62.298  1.00  0.00     0.002 C 
HETATM   18  C   UNL     1       9.390  30.977  61.411  1.00  0.00     0.033 C 
ENDBRANCH  11  14
ENDBRANCH  10  11
ENDBRANCH   7  10
ENDBRANCH   3   6
BRANCH   4  19
HETATM   19  C   UNL     1       6.373  28.259  54.487  1.00  0.00     0.252 C 
HETATM   20  N   UNL     1       6.644  28.549  53.185  1.00  0.00    -0.366 N 
HETATM   21  H   UNL     1       7.161  27.946  52.564  1.00  0.00     0.159 HD
HETATM   22  H   UNL     1       6.346  29.447  52.826  1.00  0.00     0.159 HD
HETATM   23  O   UNL     1       5.773  29.061  55.203  1.00  0.00    -0.268 OA
ENDBRANCH   4  19
BRANCH   1  24
HETATM   24  C   UNL     1       7.643  23.282  54.693  1.00  0.00    -0.019 A 
HETATM   25  C   UNL     1       7.658  22.288  55.684  1.00  0.00     0.013 A 
HETATM   26  C   UNL     1       7.852  20.946  55.346  1.00  0.00     0.001 A 
HETATM   27  C   UNL     1       8.028  20.579  54.014  1.00  0.00     0.000 A 
HETATM   28  C   UNL     1       8.010  21.553  53.019  1.00  0.00     0.001 A 
HETATM   29  C   UNL     1       7.817  22.896  53.355  1.00  0.00     0.013 A 
ENDBRANCH   1  24
TORSDOF 6
ENDMDL
MODEL 3
REMARK VINA RESULT:      -8.8      3.013      5.986
REMARK  6 active torsions:
REMARK  status: ('A' for Active; 'I' for Inactive)
REMARK    1  A    between atoms: C_4  and  C_5 
REMARK    2  A    between atoms: C_7  and  N_8 
REMARK       I    between atoms: N_8  and  C_9 
REMARK    3  A    between atoms: C_9  and  C_10 
REMARK    4  A    between atoms: C_10  and  N_11 
REMARK    5  A    between atoms: N_11  and  C_14 
REMARK    6  A    between atoms: C_20  and  C_21 
REMARK       I    between atoms: C_21  and  N_22 
ROOT
HETATM    1  C   UNL     1       6.797  23.773  54.388  1.00  0.00     0.018 A 
HETATM    2  S   UNL     1       6.175  24.472  52.956  1.00  0.00    -0.071 SA
HETATM    3  C   UNL     1       5.596  25.836  53.773  1.00  0.00     0.093 A 
HETATM    4  C   UNL     1       5.860  25.802  55.136  1.00  0.00     0.067 A 
HETATM    5  C   UNL     1       6.567  24.597  55.474  1.00  0.00     0.039 A 
ENDROOT
BRANCH   3   6
HETATM    6  N   UNL     1       4.936  26.864  53.110  1.00  0.00    -0.319 N 
HETATM    7  C   UNL     1       5.488  28.012  52.594  1.00  0.00     0.248 C 
HETATM    8  O   UNL     1       6.663  28.377  52.603  1.00  0.00    -0.271 OA
HETATM    9  H   UNL     1       3.934  26.684  52.996  1.00  0.00     0.169 HD
BRANCH   7  10
HETATM   10  C   UNL     1       4.475  28.926  51.905  1.00  0.00     0.335 C 
BRANCH  10  11
HETATM   11  N   UNL     1       3.549  28.084  51.054  1.00  0.00    -0.063 N 
HETATM   12  H   UNL     1       3.496  27.165  51.531  1.00  0.00     0.278 HD
HETATM   13  H   UNL     1       2.591  28.449  51.164  1.00  0.00     0.278 HD
BRANCH  11  14
HETATM   14  C   UNL     1       3.914  27.918  49.634  1.00  0.00     0.186 C 
HETATM   15  C   UNL     1       4.503  26.536  49.397  1.00  0.00     0.033 C 
HETATM   16  C   UNL     1       4.385  26.375  47.888  1.00  0.00     0.002 C 
HETATM   17  C   UNL     1       3.113  27.129  47.496  1.00  0.00     0.002 C 
HETATM   18  C   UNL     1       2.693  27.936  48.726  1.00  0.00     0.033 C 
ENDBRANCH  11  14
ENDBRANCH  10  11
ENDBRANCH   7  10
ENDBRANCH   3   6
BRANCH   4  19
HETATM   19  C   UNL     1       5.435  26.883  56.025  1.00  0.00     0.252 C 
HETATM   20  N   UNL     1       4.459  26.596  56.929  1.00  0.00    -0.366 N 
HETATM   21  H   UNL     1       3.997  25.702  57.003  1.00  0.00     0.159 HD
HETATM   22  H   UNL     1       4.143  27.339  57.540  1.00  0.00     0.159 HD
HETATM   23  O   UNL     1       5.927  28.009  55.960  1.00  0.00    -0.268 OA
ENDBRANCH   4  19
BRANCH   1  24
HETATM   24  C   UNL     1       7.493  22.480  54.347  1.00  0.00    -0.019 A 
HETATM   25  C   UNL     1       7.760  21.790  55.539  1.00  0.00     0.013 A 
HETATM   26  C   UNL     1       8.409  20.552  55.518  1.00  0.00     0.001 A 
HETATM   27  C   UNL     1       8.794  19.987  54.305  1.00  0.00     0.000 A 
HETATM   28  C   UNL     1       8.532  20.657  53.113  1.00  0.00     0.001 A 
HETATM   29  C   UNL     1       7.884  21.896  53.133  1.00  0.00     0.013 A 
ENDBRANCH   1  24
TORSDOF 6
ENDMDL
MODEL 4
REMARK VINA RESULT:      -8.5      2.971      6.067
REMARK  6 active torsions:
REMARK  status: ('A' for Active; 'I' for Inactive)
REMARK    1  A    between atoms: C_4  and  C_5 
REMARK    2  A    between atoms: C_7  and  N_8 
REMARK       I    between atoms: N_8  and  C_9 
REMARK    3  A    between atoms: C_9  and  C_10 
REMARK    4  A    between atoms: C_10  and  N_11 
REMARK    5  A    between atoms: N_11  and  C_14 
REMARK    6  A    between atoms: C_20  and  C_21 
REMARK       I    between atoms: C_21  and  N_22 
ROOT
HETATM    1  C   UNL     1       7.131  24.367  53.856  1.00  0.00     0.018 A 
HETATM    2  S   UNL     1       6.168  24.796  52.510  1.00  0.00    -0.071 SA
HETATM    3  C   UNL     1       6.227  26.445  52.885  1.00  0.00     0.093 A 
HETATM    4  C   UNL     1       6.974  26.713  54.025  1.00  0.00     0.067 A 
HETATM    5  C   UNL     1       7.500  25.492  54.572  1.00  0.00     0.039 A 
ENDROOT
BRANCH   3   6
HETATM    6  N   UNL     1       5.585  27.400  52.105  1.00  0.00    -0.319 N 
HETATM    7  C   UNL     1       4.350  27.961  52.326  1.00  0.00     0.248 C 
HETATM    8  O   UNL     1       3.556  27.751  53.243  1.00  0.00    -0.271 OA
HETATM    9  H   UNL     1       6.148  27.703  51.306  1.00  0.00     0.169 HD
BRANCH   7  10
HETATM   10  C   UNL     1       3.951  29.001  51.279  1.00  0.00     0.335 C 
BRANCH  10  11
HETATM   11  N   UNL     1       2.944  28.387  50.330  1.00  0.00    -0.063 N 
HETATM   12  H   UNL     1       2.595  27.538  50.811  1.00  0.00     0.278 HD
HETATM   13  H   UNL     1       2.110  28.993  50.311  1.00  0.00     0.278 HD
BRANCH  11  14
HETATM   14  C   UNL     1       3.419  28.063  48.971  1.00  0.00     0.186 C 
HETATM   15  C   UNL     1       4.714  28.802  48.672  1.00  0.00     0.033 C 
HETATM   16  C   UNL     1       5.276  28.027  47.489  1.00  0.00     0.002 C 
HETATM   17  C   UNL     1       4.843  26.577  47.708  1.00  0.00     0.002 C 
HETATM   18  C   UNL     1       3.815  26.600  48.841  1.00  0.00     0.033 C 
ENDBRANCH  11  14
ENDBRANCH  10  11
ENDBRANCH   7  10
ENDBRANCH   3   6
BRANCH   4  19
HETATM   19  C   UNL     1       7.142  28.077  54.527  1.00  0.00     0.252 C 
HETATM   20  N   UNL     1       8.354  28.665  54.335  1.00  0.00    -0.366 N 
HETATM   21  H   UNL     1       9.143  28.212  53.898  1.00  0.00     0.159 HD
HETATM   22  H   UNL     1       8.490  29.602  54.691  1.00  0.00     0.159 HD
HETATM   23  O   UNL     1       6.234  28.672  55.107  1.00  0.00    -0.268 OA
ENDBRANCH   4  19
BRANCH   1  24
HETATM   24  C   UNL     1       7.486  22.964  54.105  1.00  0.00    -0.019 A 
HETATM   25  C   UNL     1       7.829  22.126  53.033  1.00  0.00     0.013 A 
HETATM   26  C   UNL     1       8.183  20.792  53.255  1.00  0.00     0.001 A 
HETATM   27  C   UNL     1       8.202  20.281  54.550  1.00  0.00     0.000 A 
HETATM   28  C   UNL     1       7.869  21.101  55.624  1.00  0.00     0.001 A 
HETATM   29  C   UNL     1       7.514  22.435  55.404  1.00  0.00     0.013 A 
ENDBRANCH   1  24
TORSDOF 6
ENDMDL
MODEL 5
REMARK VINA RESULT:      -8.4      3.918      6.262
REMARK  6 active torsions:
REMARK  status: ('A' for Active; 'I' for Inactive)
REMARK    1  A    between atoms: C_4  and  C_5 
REMARK    2  A    between atoms: C_7  and  N_8 
REMARK       I    between atoms: N_8  and  C_9 
REMARK    3  A    between atoms: C_9  and  C_10 
REMARK    4  A    between atoms: C_10  and  N_11 
REMARK    5  A    between atoms: N_11  and  C_14 
REMARK    6  A    between atoms: C_20  and  C_21 
REMARK       I    between atoms: C_21  and  N_22 
ROOT
HETATM    1  C   UNL     1       7.903  28.112  56.277  1.00  0.00     0.018 A 
HETATM    2  S   UNL     1       7.092  28.692  57.666  1.00  0.00    -0.071 SA
HETATM    3  C   UNL     1       8.385  29.692  58.107  1.00  0.00     0.093 A 
HETATM    4  C   UNL     1       9.451  29.619  57.221  1.00  0.00     0.067 A 
HETATM    5  C   UNL     1       9.150  28.700  56.156  1.00  0.00     0.039 A 
ENDROOT
BRANCH   3   6
HETATM    6  N   UNL     1       8.340  30.492  59.243  1.00  0.00    -0.319 N 
HETATM    7  C   UNL     1       7.656  31.674  59.402  1.00  0.00     0.248 C 
HETATM    8  O   UNL     1       6.945  32.272  58.595  1.00  0.00    -0.271 OA
HETATM    9  H   UNL     1       8.871  30.100  60.025  1.00  0.00     0.169 HD
BRANCH   7  10
HETATM   10  C   UNL     1       7.806  32.287  60.794  1.00  0.00     0.335 C 
BRANCH  10  11
HETATM   11  N   UNL     1       6.866  31.583  61.749  1.00  0.00    -0.063 N 
HETATM   12  H   UNL     1       6.005  31.399  61.203  1.00  0.00     0.278 HD
HETATM   13  H   UNL     1       7.231  30.634  61.919  1.00  0.00     0.278 HD
BRANCH  11  14
HETATM   14  C   UNL     1       6.548  32.282  63.009  1.00  0.00     0.186 C 
HETATM   15  C   UNL     1       7.823  32.608  63.771  1.00  0.00     0.033 C 
HETATM   16  C   UNL     1       7.366  33.682  64.747  1.00  0.00     0.002 C 
HETATM   17  C   UNL     1       6.274  34.462  64.012  1.00  0.00     0.002 C 
HETATM   18  C   UNL     1       5.931  33.651  62.761  1.00  0.00     0.033 C 
ENDBRANCH  11  14
ENDBRANCH  10  11
ENDBRANCH   7  10
ENDBRANCH   3   6
BRANCH   4  19
HETATM   19  C   UNL     1      10.671  30.399  57.425  1.00  0.00     0.252 C 
HETATM   20  N   UNL     1      11.857  29.767  57.206  1.00  0.00    -0.366 N 
HETATM   21  H   UNL     1      11.944  28.797  56.942  1.00  0.00     0.159 HD
HETATM   22  H   UNL     1      12.710  30.289  57.359  1.00  0.00     0.159 HD
HETATM   23  O   UNL     1      10.638  31.575  57.787  1.00  0.00    -0.268 OA
ENDBRANCH   4  19
BRANCH   1  24
HETATM   24  C   UNL     1       7.255  27.144  55.382  1.00  0.00    -0.019 A 
HETATM   25  C   UNL     1       7.573  27.130  54.015  1.00  0.00     0.013 A 
HETATM   26  C   UNL     1       6.976  26.206  53.153  1.00  0.00     0.001 A 
HETATM   27  C   UNL     1       6.058  25.283  53.647  1.00  0.00     0.000 A 
HETATM   28  C   UNL     1       5.735  25.281  55.001  1.00  0.00     0.001 A 
HETATM   29  C   UNL     1       6.331  26.205  55.865  1.00  0.00     0.013 A 
ENDBRANCH   1  24
TORSDOF 6
ENDMDL
MODEL 6
REMARK VINA RESULT:      -8.1      2.988      8.899
REMARK  6 active torsions:
REMARK  status: ('A' for Active; 'I' for Inactive)
REMARK    1  A    between atoms: C_4  and  C_5 
REMARK    2  A    between atoms: C_7  and  N_8 
REMARK       I    between atoms: N_8  and  C_9 
REMARK    3  A    between atoms: C_9  and  C_10 
REMARK    4  A    between atoms: C_10  and  N_11 
REMARK    5  A    between atoms: N_11  and  C_14 
REMARK    6  A    between atoms: C_20  and  C_21 
REMARK       I    between atoms: C_21  and  N_22 
ROOT
HETATM    1  C   UNL     1       8.099  31.150  59.315  1.00  0.00     0.018 A 
HETATM    2  S   UNL     1       6.837  30.461  58.390  1.00  0.00    -0.071 SA
HETATM    3  C   UNL     1       7.900  29.907  57.195  1.00  0.00     0.093 A 
HETATM    4  C   UNL     1       9.225  30.220  57.464  1.00  0.00     0.067 A 
HETATM    5  C   UNL     1       9.324  30.937  58.707  1.00  0.00     0.039 A 
ENDROOT
BRANCH   3   6
HETATM    6  N   UNL     1       7.452  29.210  56.079  1.00  0.00    -0.319 N 
HETATM    7  C   UNL     1       6.620  28.116  56.060  1.00  0.00     0.248 C 
HETATM    8  O   UNL     1       6.098  27.524  57.004  1.00  0.00    -0.271 OA
HETATM    9  H   UNL     1       7.786  29.613  55.199  1.00  0.00     0.169 HD
BRANCH   7  10
HETATM   10  C   UNL     1       6.308  27.606  54.654  1.00  0.00     0.335 C 
BRANCH  10  11
HETATM   11  N   UNL     1       5.966  26.133  54.726  1.00  0.00    -0.063 N 
HETATM   12  H   UNL     1       6.446  25.780  55.573  1.00  0.00     0.278 HD
HETATM   13  H   UNL     1       4.970  26.047  54.980  1.00  0.00     0.278 HD
BRANCH  11  14
HETATM   14  C   UNL     1       6.306  25.310  53.549  1.00  0.00     0.186 C 
HETATM   15  C   UNL     1       7.519  25.884  52.834  1.00  0.00     0.033 C 
HETATM   16  C   UNL     1       7.990  24.715  51.981  1.00  0.00     0.002 C 
HETATM   17  C   UNL     1       7.661  23.461  52.792  1.00  0.00     0.002 C 
HETATM   18  C   UNL     1       6.762  23.914  53.944  1.00  0.00     0.033 C 
ENDBRANCH  11  14
ENDBRANCH  10  11
ENDBRANCH   7  10
ENDBRANCH   3   6
BRANCH   4  19
HETATM   19  C   UNL     1      10.303  29.840  56.552  1.00  0.00     0.252 C 
HETATM   20  N   UNL     1      11.517  29.565  57.102  1.00  0.00    -0.366 N 
HETATM   21  H   UNL     1      11.723  29.636  58.088  1.00  0.00     0.159 HD
HETATM   22  H   UNL     1      12.276  29.316  56.481  1.00  0.00     0.159 HD
HETATM   23  O   UNL     1      10.130  29.775  55.334  1.00  0.00    -0.268 OA
ENDBRANCH   4  19
BRANCH   1  24
HETATM   24  C   UNL     1       7.812  31.826  60.586  1.00  0.00    -0.019 A 
HETATM   25  C   UNL     1       8.677  31.664  61.679  1.00  0.00     0.013 A 
HETATM   26  C   UNL     1       8.425  32.311  62.892  1.00  0.00     0.001 A 
HETATM   27  C   UNL     1       7.309  33.132  63.026  1.00  0.00     0.000 A 
HETATM   28  C   UNL     1       6.443  33.308  61.950  1.00  0.00     0.001 A 
HETATM   29  C   UNL     1       6.694  32.660  60.736  1.00  0.00     0.013 A 
ENDBRANCH   1  24
TORSDOF 6
ENDMDL
MODEL 7
REMARK VINA RESULT:      -8.0      2.528      8.248
REMARK  6 active torsions:
REMARK  status: ('A' for Active; 'I' for Inactive)
REMARK    1  A    between atoms: C_4  and  C_5 
REMARK    2  A    between atoms: C_7  and  N_8 
REMARK       I    between atoms: N_8  and  C_9 
REMARK    3  A    between atoms: C_9  and  C_10 
REMARK    4  A    between atoms: C_10  and  N_11 
REMARK    5  A    between atoms: N_11  and  C_14 
REMARK    6  A    between atoms: C_20  and  C_21 
REMARK       I    between atoms: C_21  and  N_22 
ROOT
HETATM    1  C   UNL     1       7.166  30.575  58.476  1.00  0.00     0.018 A 
HETATM    2  S   UNL     1       7.815  29.151  57.788  1.00  0.00    -0.071 SA
HETATM    3  C   UNL     1       6.772  29.216  56.457  1.00  0.00     0.093 A 
HETATM    4  C   UNL     1       5.916  30.310  56.495  1.00  0.00     0.067 A 
HETATM    5  C   UNL     1       6.166  31.095  57.674  1.00  0.00     0.039 A 
ENDROOT
BRANCH   3   6
HETATM    6  N   UNL     1       6.804  28.258  55.450  1.00  0.00    -0.319 N 
HETATM    7  C   UNL     1       7.764  28.103  54.480  1.00  0.00     0.248 C 
HETATM    8  O   UNL     1       8.787  28.761  54.291  1.00  0.00    -0.271 OA
HETATM    9  H   UNL     1       6.016  27.606  55.499  1.00  0.00     0.169 HD
BRANCH   7  10
HETATM   10  C   UNL     1       7.501  26.929  53.538  1.00  0.00     0.335 C 
BRANCH  10  11
HETATM   11  N   UNL     1       7.047  25.735  54.350  1.00  0.00    -0.063 N 
HETATM   12  H   UNL     1       7.067  26.050  55.337  1.00  0.00     0.278 HD
HETATM   13  H   UNL     1       6.039  25.596  54.181  1.00  0.00     0.278 HD
BRANCH  11  14
HETATM   14  C   UNL     1       7.811  24.484  54.183  1.00  0.00     0.186 C 
HETATM   15  C   UNL     1       7.234  23.390  55.068  1.00  0.00     0.033 C 
HETATM   16  C   UNL     1       7.806  22.122  54.449  1.00  0.00     0.002 C 
HETATM   17  C   UNL     1       7.905  22.410  52.950  1.00  0.00     0.002 C 
HETATM   18  C   UNL     1       7.665  23.911  52.781  1.00  0.00     0.033 C 
ENDBRANCH  11  14
ENDBRANCH  10  11
ENDBRANCH   7  10
ENDBRANCH   3   6
BRANCH   4  19
HETATM   19  C   UNL     1       4.928  30.546  55.443  1.00  0.00     0.252 C 
HETATM   20  N   UNL     1       4.946  31.763  54.835  1.00  0.00    -0.366 N 
HETATM   21  H   UNL     1       5.573  32.513  55.083  1.00  0.00     0.159 HD
HETATM   22  H   UNL     1       4.257  31.946  54.117  1.00  0.00     0.159 HD
HETATM   23  O   UNL     1       4.106  29.688  55.120  1.00  0.00    -0.268 OA
ENDBRANCH   4  19
BRANCH   1  24
HETATM   24  C   UNL     1       7.697  31.105  59.738  1.00  0.00    -0.019 A 
HETATM   25  C   UNL     1       8.848  30.540  60.308  1.00  0.00     0.013 A 
HETATM   26  C   UNL     1       9.374  31.041  61.502  1.00  0.00     0.001 A 
HETATM   27  C   UNL     1       8.760  32.117  62.138  1.00  0.00     0.000 A 
HETATM   28  C   UNL     1       7.620  32.692  61.583  1.00  0.00     0.001 A 
HETATM   29  C   UNL     1       7.092  32.191  60.390  1.00  0.00     0.013 A 
ENDBRANCH   1  24
TORSDOF 6
ENDMDL
MODEL 8
REMARK VINA RESULT:      -8.0      1.931      8.010
REMARK  6 active torsions:
REMARK  status: ('A' for Active; 'I' for Inactive)
REMARK    1  A    between atoms: C_4  and  C_5 
REMARK    2  A    between atoms: C_7  and  N_8 
REMARK       I    between atoms: N_8  and  C_9 
REMARK    3  A    between atoms: C_9  and  C_10 
REMARK    4  A    between atoms: C_10  and  N_11 
REMARK    5  A    between atoms: N_11  and  C_14 
REMARK    6  A    between atoms: C_20  and  C_21 
REMARK       I    between atoms: C_21  and  N_22 
ROOT
HETATM    1  C   UNL     1       7.271  29.864  57.445  1.00  0.00     0.018 A 
HETATM    2  S   UNL     1       7.887  28.277  57.281  1.00  0.00    -0.071 SA
HETATM    3  C   UNL     1       6.855  27.919  55.989  1.00  0.00     0.093 A 
HETATM    4  C   UNL     1       6.028  28.981  55.647  1.00  0.00     0.067 A 
HETATM    5  C   UNL     1       6.291  30.108  56.500  1.00  0.00     0.039 A 
ENDROOT
BRANCH   3   6
HETATM    6  N   UNL     1       6.868  26.679  55.360  1.00  0.00    -0.319 N 
HETATM    7  C   UNL     1       6.388  25.490  55.855  1.00  0.00     0.248 C 
HETATM    8  O   UNL     1       5.852  25.262  56.938  1.00  0.00    -0.271 OA
HETATM    9  H   UNL     1       7.264  26.717  54.417  1.00  0.00     0.169 HD
BRANCH   7  10
HETATM   10  C   UNL     1       6.542  24.316  54.888  1.00  0.00     0.335 C 
BRANCH  10  11
HETATM   11  N   UNL     1       8.007  24.141  54.551  1.00  0.00    -0.063 N 
HETATM   12  H   UNL     1       8.173  24.744  53.724  1.00  0.00     0.278 HD
HETATM   13  H   UNL     1       8.564  24.608  55.283  1.00  0.00     0.278 HD
BRANCH  11  14
HETATM   14  C   UNL     1       8.475  22.764  54.299  1.00  0.00     0.186 C 
HETATM   15  C   UNL     1       7.859  21.804  55.304  1.00  0.00     0.033 C 
HETATM   16  C   UNL     1       8.061  20.449  54.640  1.00  0.00     0.002 C 
HETATM   17  C   UNL     1       7.955  20.712  53.137  1.00  0.00     0.002 C 
HETATM   18  C   UNL     1       7.983  22.232  52.962  1.00  0.00     0.033 C 
ENDBRANCH  11  14
ENDBRANCH  10  11
ENDBRANCH   7  10
ENDBRANCH   3   6
BRANCH   4  19
HETATM   19  C   UNL     1       5.055  28.875  54.561  1.00  0.00     0.252 C 
HETATM   20  N   UNL     1       5.065  29.856  53.618  1.00  0.00    -0.366 N 
HETATM   21  H   UNL     1       5.678  30.657  53.638  1.00  0.00     0.159 HD
HETATM   22  H   UNL     1       4.386  29.804  52.870  1.00  0.00     0.159 HD
HETATM   23  O   UNL     1       4.250  27.945  54.499  1.00  0.00    -0.268 OA
ENDBRANCH   4  19
BRANCH   1  24
HETATM   24  C   UNL     1       7.808  30.772  58.466  1.00  0.00    -0.019 A 
HETATM   25  C   UNL     1       6.934  31.487  59.300  1.00  0.00     0.013 A 
HETATM   26  C   UNL     1       7.428  32.345  60.285  1.00  0.00     0.001 A 
HETATM   27  C   UNL     1       8.802  32.496  60.454  1.00  0.00     0.000 A 
HETATM   28  C   UNL     1       9.683  31.790  59.639  1.00  0.00     0.001 A 
HETATM   29  C   UNL     1       9.189  30.933  58.652  1.00  0.00     0.013 A 
ENDBRANCH   1  24
TORSDOF 6
ENDMDL
MODEL 9
REMARK VINA RESULT:      -8.0      2.795      4.002
REMARK  6 active torsions:
REMARK  status: ('A' for Active; 'I' for Inactive)
REMARK    1  A    between atoms: C_4  and  C_5 
REMARK    2  A    between atoms: C_7  and  N_8 
REMARK       I    between atoms: N_8  and  C_9 
REMARK    3  A    between atoms: C_9  and  C_10 
REMARK    4  A    between atoms: C_10  and  N_11 
REMARK    5  A    between atoms: N_11  and  C_14 
REMARK    6  A    between atoms: C_20  and  C_21 
REMARK       I    between atoms: C_21  and  N_22 
ROOT
HETATM    1  C   UNL     1       6.908  23.737  54.553  1.00  0.00     0.018 A 
HETATM    2  S   UNL     1       6.310  24.541  53.168  1.00  0.00    -0.071 SA
HETATM    3  C   UNL     1       5.784  25.876  54.065  1.00  0.00     0.093 A 
HETATM    4  C   UNL     1       6.049  25.753  55.423  1.00  0.00     0.067 A 
HETATM    5  C   UNL     1       6.712  24.504  55.687  1.00  0.00     0.039 A 
ENDROOT
BRANCH   3   6
HETATM    6  N   UNL     1       5.160  26.964  53.466  1.00  0.00    -0.319 N 
HETATM    7  C   UNL     1       5.757  28.111  52.997  1.00  0.00     0.248 C 
HETATM    8  O   UNL     1       6.947  28.421  53.002  1.00  0.00    -0.271 OA
HETATM    9  H   UNL     1       4.150  26.835  53.363  1.00  0.00     0.169 HD
BRANCH   7  10
HETATM   10  C   UNL     1       4.775  29.102  52.373  1.00  0.00     0.335 C 
BRANCH  10  11
HETATM   11  N   UNL     1       4.740  30.360  53.215  1.00  0.00    -0.063 N 
HETATM   12  H   UNL     1       5.732  30.588  53.410  1.00  0.00     0.278 HD
HETATM   13  H   UNL     1       4.445  31.142  52.612  1.00  0.00     0.278 HD
BRANCH  11  14
HETATM   14  C   UNL     1       3.959  30.304  54.466  1.00  0.00     0.186 C 
HETATM   15  C   UNL     1       4.863  30.537  55.666  1.00  0.00     0.033 C 
HETATM   16  C   UNL     1       3.875  30.901  56.765  1.00  0.00     0.002 C 
HETATM   17  C   UNL     1       2.739  31.645  56.061  1.00  0.00     0.002 C 
HETATM   18  C   UNL     1       2.954  31.443  54.560  1.00  0.00     0.033 C 
ENDBRANCH  11  14
ENDBRANCH  10  11
ENDBRANCH   7  10
ENDBRANCH   3   6
BRANCH   4  19
HETATM   19  C   UNL     1       5.666  26.794  56.375  1.00  0.00     0.252 C 
HETATM   20  N   UNL     1       4.372  26.807  56.796  1.00  0.00    -0.366 N 
HETATM   21  H   UNL     1       3.663  26.166  56.473  1.00  0.00     0.159 HD
HETATM   22  H   UNL     1       4.089  27.532  57.442  1.00  0.00     0.159 HD
HETATM   23  O   UNL     1       6.472  27.633  56.778  1.00  0.00    -0.268 OA
ENDBRANCH   4  19
BRANCH   1  24
HETATM   24  C   UNL     1       7.555  22.424  54.435  1.00  0.00    -0.019 A 
HETATM   25  C   UNL     1       7.811  21.661  55.585  1.00  0.00     0.013 A 
HETATM   26  C   UNL     1       8.414  20.404  55.488  1.00  0.00     0.001 A 
HETATM   27  C   UNL     1       8.764  19.891  54.242  1.00  0.00     0.000 A 
HETATM   28  C   UNL     1       8.512  20.634  53.091  1.00  0.00     0.001 A 
HETATM   29  C   UNL     1       7.910  21.892  53.186  1.00  0.00     0.013 A 
ENDBRANCH   1  24
TORSDOF 6
ENDMDL
MODEL 10
REMARK VINA RESULT:      -7.8      2.493      7.833
REMARK  6 active torsions:
REMARK  status: ('A' for Active; 'I' for Inactive)
REMARK    1  A    between atoms: C_4  and  C_5 
REMARK    2  A    between atoms: C_7  and  N_8 
REMARK       I    between atoms: N_8  and  C_9 
REMARK    3  A    between atoms: C_9  and  C_10 
REMARK    4  A    between atoms: C_10  and  N_11 
REMARK    5  A    between atoms: N_11  and  C_14 
REMARK    6  A    between atoms: C_20  and  C_21 
REMARK       I    between atoms: C_21  and  N_22 
ROOT
HETATM    1  C   UNL     1       7.573  29.338  57.935  1.00  0.00     0.018 A 
HETATM    2  S   UNL     1       6.873  29.647  56.406  1.00  0.00    -0.071 SA
HETATM    3  C   UNL     1       6.706  28.000  56.055  1.00  0.00     0.093 A 
HETATM    4  C   UNL     1       7.167  27.180  57.077  1.00  0.00     0.067 A 
HETATM    5  C   UNL     1       7.660  27.977  58.167  1.00  0.00     0.039 A 
ENDROOT
BRANCH   3   6
HETATM    6  N   UNL     1       6.156  27.555  54.858  1.00  0.00    -0.319 N 
HETATM    7  C   UNL     1       4.863  27.727  54.422  1.00  0.00     0.248 C 
HETATM    8  O   UNL     1       3.928  28.301  54.979  1.00  0.00    -0.271 OA
HETATM    9  H   UNL     1       6.836  27.077  54.261  1.00  0.00     0.169 HD
BRANCH   7  10
HETATM   10  C   UNL     1       4.596  27.128  53.041  1.00  0.00     0.335 C 
BRANCH  10  11
HETATM   11  N   UNL     1       4.435  25.629  53.176  1.00  0.00    -0.063 N 
HETATM   12  H   UNL     1       4.311  25.455  54.189  1.00  0.00     0.278 HD
HETATM   13  H   UNL     1       3.515  25.369  52.790  1.00  0.00     0.278 HD
BRANCH  11  14
HETATM   14  C   UNL     1       5.518  24.789  52.628  1.00  0.00     0.186 C 
HETATM   15  C   UNL     1       6.547  25.652  51.915  1.00  0.00     0.033 C 
HETATM   16  C   UNL     1       7.757  24.732  51.835  1.00  0.00     0.002 C 
HETATM   17  C   UNL     1       7.702  23.875  53.100  1.00  0.00     0.002 C 
HETATM   18  C   UNL     1       6.327  24.116  53.726  1.00  0.00     0.033 C 
ENDBRANCH  11  14
ENDBRANCH  10  11
ENDBRANCH   7  10
ENDBRANCH   3   6
BRANCH   4  19
HETATM   19  C   UNL     1       7.121  25.723  56.969  1.00  0.00     0.252 C 
HETATM   20  N   UNL     1       8.311  25.069  56.874  1.00  0.00    -0.366 N 
HETATM   21  H   UNL     1       9.210  25.526  56.845  1.00  0.00     0.159 HD
HETATM   22  H   UNL     1       8.294  24.061  56.782  1.00  0.00     0.159 HD
HETATM   23  O   UNL     1       6.056  25.105  56.955  1.00  0.00    -0.268 OA
ENDBRANCH   4  19
BRANCH   1  24
HETATM   24  C   UNL     1       7.963  30.446  58.816  1.00  0.00    -0.019 A 
HETATM   25  C   UNL     1       7.005  31.384  59.230  1.00  0.00     0.013 A 
HETATM   26  C   UNL     1       7.357  32.436  60.080  1.00  0.00     0.001 A 
HETATM   27  C   UNL     1       8.669  32.561  60.530  1.00  0.00     0.000 A 
HETATM   28  C   UNL     1       9.630  31.636  60.132  1.00  0.00     0.001 A 
HETATM   29  C   UNL     1       9.280  30.583  59.281  1.00  0.00     0.013 A 
ENDBRANCH   1  24
TORSDOF 6
ENDMDL
