MODEL 1
REMARK VINA RESULT:     -10.1      0.000      0.000
REMARK  3 active torsions:
REMARK  status: ('A' for Active; 'I' for Inactive)
REMARK    1  A    between atoms: C_6  and  C_7 
REMARK    2  A    between atoms: C_7  and  N_8 
REMARK    3  A    between atoms: C_12  and  C_13 
ROOT
HETATM    1  N   UNL     1       7.244  27.464  56.284  1.00  0.00    -0.066 N 
HETATM    2  H   UNL     1       6.928  27.855  57.180  1.00  0.00     0.280 HD
HETATM    3  C   UNL     1       6.036  26.838  55.620  1.00  0.00     0.236 C 
HETATM    4  C   UNL     1       5.509  25.689  56.476  1.00  0.00     0.037 C 
HETATM    5  C   UNL     1       6.589  24.615  56.727  1.00  0.00     0.024 C 
HETATM    6  C   UNL     1       7.751  25.324  57.430  1.00  0.00     0.037 C 
HETATM    7  C   UNL     1       8.325  26.453  56.587  1.00  0.00     0.236 C 
ENDROOT
BRANCH   1   8
HETATM    8  C   UNL     1       7.805  28.625  55.488  1.00  0.00     0.293 C 
BRANCH   8   9
HETATM    9  C   UNL     1       8.873  29.344  56.208  1.00  0.00     0.061 A 
HETATM   10  N   UNL     1       8.697  30.063  57.380  1.00  0.00    -0.308 N 
HETATM   11  C   UNL     1       9.944  30.589  57.710  1.00  0.00     0.134 A 
HETATM   12  C   UNL     1       7.558  30.281  58.159  1.00  0.00     0.099 A 
HETATM   13  C   UNL     1      10.037  31.382  58.887  1.00  0.00     0.057 A 
HETATM   14  N   UNL     1      10.857  30.250  56.827  1.00  0.00    -0.241 NA
HETATM   15  C   UNL     1       8.942  31.605  59.646  1.00  0.00    -0.057 A 
HETATM   16  C   UNL     1       8.977  32.447  60.887  1.00  0.00     0.048 C 
HETATM   17  C   UNL     1       7.652  31.030  59.270  1.00  0.00     0.024 A 
HETATM   18  C   UNL     1      10.205  29.515  55.883  1.00  0.00     0.146 A 
ENDBRANCH   8   9
ENDBRANCH   1   8
BRANCH   5  19
HETATM   19  C   UNL     1       6.956  23.850  55.461  1.00  0.00    -0.024 A 
HETATM   20  C   UNL     1       7.536  22.534  55.304  1.00  0.00     0.018 A 
HETATM   21  C   UNL     1       7.705  22.322  53.936  1.00  0.00     0.138 A 
HETATM   22  C   UNL     1       7.951  21.474  56.135  1.00  0.00     0.017 A 
HETATM   23  N   UNL     1       8.249  21.261  53.318  1.00  0.00    -0.242 NA
HETATM   24  N   UNL     1       7.186  23.390  53.269  1.00  0.00    -0.350 N 
HETATM   25  C   UNL     1       8.638  20.290  54.165  1.00  0.00     0.119 A 
HETATM   26  C   UNL     1       8.512  20.339  55.544  1.00  0.00     0.020 A 
HETATM   27  H   UNL     1       7.141  23.447  52.261  1.00  0.00     0.166 HD
HETATM   28  C   UNL     1       6.722  24.311  54.170  1.00  0.00     0.098 A 
ENDBRANCH   5  19
TORSDOF 3
ENDMDL
MODEL 2
REMARK VINA RESULT:     -10.0      1.848      3.109
REMARK  3 active torsions:
REMARK  status: ('A' for Active; 'I' for Inactive)
REMARK    1  A    between atoms: C_6  and  C_7 
REMARK    2  A    between atoms: C_7  and  N_8 
REMARK    3  A    between atoms: C_12  and  C_13 
ROOT
HETATM    1  N   UNL     1       7.362  28.882  56.783  1.00  0.00    -0.066 N 
HETATM    2  H   UNL     1       6.809  29.642  56.366  1.00  0.00     0.280 HD
HETATM    3  C   UNL     1       8.148  28.235  55.663  1.00  0.00     0.236 C 
HETATM    4  C   UNL     1       7.193  27.619  54.645  1.00  0.00     0.037 C 
HETATM    5  C   UNL     1       6.250  26.583  55.293  1.00  0.00     0.024 C 
HETATM    6  C   UNL     1       5.471  27.327  56.383  1.00  0.00     0.037 C 
HETATM    7  C   UNL     1       6.393  27.924  57.436  1.00  0.00     0.236 C 
ENDROOT
BRANCH   1   8
HETATM    8  C   UNL     1       8.257  29.528  57.821  1.00  0.00     0.293 C 
BRANCH   8   9
HETATM    9  C   UNL     1       7.606  30.660  58.507  1.00  0.00     0.061 A 
HETATM   10  N   UNL     1       7.857  31.049  59.814  1.00  0.00    -0.308 N 
HETATM   11  C   UNL     1       7.028  32.139  60.067  1.00  0.00     0.134 A 
HETATM   12  C   UNL     1       8.738  30.534  60.769  1.00  0.00     0.099 A 
HETATM   13  C   UNL     1       7.092  32.733  61.357  1.00  0.00     0.057 A 
HETATM   14  N   UNL     1       6.291  32.435  59.020  1.00  0.00    -0.241 NA
HETATM   15  C   UNL     1       7.935  32.242  62.292  1.00  0.00    -0.057 A 
HETATM   16  C   UNL     1       8.031  32.816  63.675  1.00  0.00     0.048 C 
HETATM   17  C   UNL     1       8.794  31.100  61.986  1.00  0.00     0.024 A 
HETATM   18  C   UNL     1       6.612  31.514  58.068  1.00  0.00     0.146 A 
ENDBRANCH   8   9
ENDBRANCH   1   8
BRANCH   5  19
HETATM   19  C   UNL     1       6.985  25.330  55.751  1.00  0.00    -0.024 A 
HETATM   20  C   UNL     1       7.579  24.263  54.976  1.00  0.00     0.018 A 
HETATM   21  C   UNL     1       8.096  23.338  55.883  1.00  0.00     0.138 A 
HETATM   22  C   UNL     1       7.757  23.940  53.616  1.00  0.00     0.017 A 
HETATM   23  N   UNL     1       8.698  22.165  55.624  1.00  0.00    -0.242 NA
HETATM   24  N   UNL     1       7.922  23.826  57.141  1.00  0.00    -0.350 N 
HETATM   25  C   UNL     1       8.825  21.906  54.309  1.00  0.00     0.119 A 
HETATM   26  C   UNL     1       8.390  22.737  53.289  1.00  0.00     0.020 A 
HETATM   27  H   UNL     1       8.262  23.360  57.970  1.00  0.00     0.166 HD
HETATM   28  C   UNL     1       7.267  25.027  57.079  1.00  0.00     0.098 A 
ENDBRANCH   5  19
TORSDOF 3
ENDMDL
MODEL 3
REMARK VINA RESULT:      -9.7      1.473      2.031
REMARK  3 active torsions:
REMARK  status: ('A' for Active; 'I' for Inactive)
REMARK    1  A    between atoms: C_6  and  C_7 
REMARK    2  A    between atoms: C_7  and  N_8 
REMARK    3  A    between atoms: C_12  and  C_13 
ROOT
HETATM    1  N   UNL     1       6.696  27.683  56.840  1.00  0.00    -0.066 N 
HETATM    2  H   UNL     1       6.495  27.901  57.825  1.00  0.00     0.280 HD
HETATM    3  C   UNL     1       5.497  26.936  56.295  1.00  0.00     0.236 C 
HETATM    4  C   UNL     1       5.321  25.617  57.044  1.00  0.00     0.037 C 
HETATM    5  C   UNL     1       6.581  24.730  56.953  1.00  0.00     0.024 C 
HETATM    6  C   UNL     1       7.730  25.545  57.556  1.00  0.00     0.037 C 
HETATM    7  C   UNL     1       7.957  26.851  56.810  1.00  0.00     0.236 C 
ENDROOT
BRANCH   1   8
HETATM    8  C   UNL     1       6.915  29.012  56.147  1.00  0.00     0.293 C 
BRANCH   8   9
HETATM    9  C   UNL     1       6.544  30.163  56.993  1.00  0.00     0.061 A 
HETATM   10  N   UNL     1       7.167  30.509  58.182  1.00  0.00    -0.308 N 
HETATM   11  C   UNL     1       6.504  31.637  58.659  1.00  0.00     0.134 A 
HETATM   12  C   UNL     1       8.245  29.927  58.854  1.00  0.00     0.099 A 
HETATM   13  C   UNL     1       6.955  32.198  59.886  1.00  0.00     0.057 A 
HETATM   14  N   UNL     1       5.527  31.995  57.857  1.00  0.00    -0.241 NA
HETATM   15  C   UNL     1       7.991  31.642  60.549  1.00  0.00    -0.057 A 
HETATM   16  C   UNL     1       8.498  32.180  61.856  1.00  0.00     0.048 C 
HETATM   17  C   UNL     1       8.666  30.462  60.012  1.00  0.00     0.024 A 
HETATM   18  C   UNL     1       5.520  31.078  56.849  1.00  0.00     0.146 A 
ENDBRANCH   8   9
ENDBRANCH   1   8
BRANCH   5  19
HETATM   19  C   UNL     1       6.822  24.201  55.545  1.00  0.00    -0.024 A 
HETATM   20  C   UNL     1       7.315  22.913  55.106  1.00  0.00     0.018 A 
HETATM   21  C   UNL     1       7.382  22.954  53.714  1.00  0.00     0.138 A 
HETATM   22  C   UNL     1       7.722  21.699  55.695  1.00  0.00     0.017 A 
HETATM   23  N   UNL     1       7.824  22.005  52.873  1.00  0.00    -0.242 NA
HETATM   24  N   UNL     1       6.882  24.149  53.294  1.00  0.00    -0.350 N 
HETATM   25  C   UNL     1       8.212  20.876  53.495  1.00  0.00     0.119 A 
HETATM   26  C   UNL     1       8.179  20.671  54.865  1.00  0.00     0.020 A 
HETATM   27  H   UNL     1       6.775  24.396  52.321  1.00  0.00     0.166 HD
HETATM   28  C   UNL     1       6.531  24.904  54.381  1.00  0.00     0.098 A 
ENDBRANCH   5  19
TORSDOF 3
ENDMDL
MODEL 4
REMARK VINA RESULT:      -9.6      2.269      3.472
REMARK  3 active torsions:
REMARK  status: ('A' for Active; 'I' for Inactive)
REMARK    1  A    between atoms: C_6  and  C_7 
REMARK    2  A    between atoms: C_7  and  N_8 
REMARK    3  A    between atoms: C_12  and  C_13 
ROOT
HETATM    1  N   UNL     1       6.155  26.829  53.044  1.00  0.00    -0.066 N 
HETATM    2  H   UNL     1       5.933  27.026  52.060  1.00  0.00     0.280 HD
HETATM    3  C   UNL     1       7.603  26.389  53.095  1.00  0.00     0.236 C 
HETATM    4  C   UNL     1       7.783  25.096  52.304  1.00  0.00     0.037 C 
HETATM    5  C   UNL     1       6.870  23.968  52.828  1.00  0.00     0.024 C 
HETATM    6  C   UNL     1       5.431  24.480  52.706  1.00  0.00     0.037 C 
HETATM    7  C   UNL     1       5.208  25.750  53.515  1.00  0.00     0.236 C 
ENDROOT
BRANCH   1   8
HETATM    8  C   UNL     1       5.915  28.119  53.800  1.00  0.00     0.293 C 
BRANCH   8   9
HETATM    9  C   UNL     1       6.482  28.095  55.162  1.00  0.00     0.061 A 
HETATM   10  N   UNL     1       7.741  28.561  55.507  1.00  0.00    -0.308 N 
HETATM   11  C   UNL     1       7.881  28.337  56.875  1.00  0.00     0.134 A 
HETATM   12  C   UNL     1       8.742  29.152  54.733  1.00  0.00     0.099 A 
HETATM   13  C   UNL     1       9.103  28.730  57.487  1.00  0.00     0.057 A 
HETATM   14  N   UNL     1       6.810  27.769  57.381  1.00  0.00    -0.241 NA
HETATM   15  C   UNL     1      10.082  29.298  56.750  1.00  0.00    -0.057 A 
HETATM   16  C   UNL     1      11.399  29.715  57.338  1.00  0.00     0.048 C 
HETATM   17  C   UNL     1       9.895  29.521  55.318  1.00  0.00     0.024 A 
HETATM   18  C   UNL     1       5.958  27.584  56.334  1.00  0.00     0.146 A 
ENDBRANCH   8   9
ENDBRANCH   1   8
BRANCH   5  19
HETATM   19  C   UNL     1       7.279  23.484  54.214  1.00  0.00    -0.024 A 
HETATM   20  C   UNL     1       7.837  22.215  54.631  1.00  0.00     0.018 A 
HETATM   21  C   UNL     1       7.995  22.273  56.015  1.00  0.00     0.138 A 
HETATM   22  C   UNL     1       8.238  21.007  54.026  1.00  0.00     0.017 A 
HETATM   23  N   UNL     1       8.436  21.312  56.843  1.00  0.00    -0.242 NA
HETATM   24  N   UNL     1       7.646  23.520  56.436  1.00  0.00    -0.350 N 
HETATM   25  C   UNL     1       8.790  20.178  56.209  1.00  0.00     0.119 A 
HETATM   26  C   UNL     1       8.718  19.977  54.840  1.00  0.00     0.020 A 
HETATM   27  H   UNL     1       7.726  23.825  57.395  1.00  0.00     0.166 HD
HETATM   28  C   UNL     1       7.225  24.263  55.365  1.00  0.00     0.098 A 
ENDBRANCH   5  19
TORSDOF 3
ENDMDL
MODEL 5
REMARK VINA RESULT:      -9.6      1.492      2.440
REMARK  3 active torsions:
REMARK  status: ('A' for Active; 'I' for Inactive)
REMARK    1  A    between atoms: C_6  and  C_7 
REMARK    2  A    between atoms: C_7  and  N_8 
REMARK    3  A    between atoms: C_12  and  C_13 
ROOT
HETATM    1  N   UNL     1       7.021  27.456  54.741  1.00  0.00    -0.066 N 
HETATM    2  H   UNL     1       6.295  27.993  54.249  1.00  0.00     0.280 HD
HETATM    3  C   UNL     1       7.681  26.556  53.720  1.00  0.00     0.236 C 
HETATM    4  C   UNL     1       6.661  25.566  53.162  1.00  0.00     0.037 C 
HETATM    5  C   UNL     1       6.015  24.715  54.275  1.00  0.00     0.024 C 
HETATM    6  C   UNL     1       5.342  25.699  55.239  1.00  0.00     0.037 C 
HETATM    7  C   UNL     1       6.339  26.677  55.842  1.00  0.00     0.236 C 
ENDROOT
BRANCH   1   8
HETATM    8  C   UNL     1       7.981  28.475  55.322  1.00  0.00     0.293 C 
BRANCH   8   9
HETATM    9  C   UNL     1       7.313  29.439  56.217  1.00  0.00     0.061 A 
HETATM   10  N   UNL     1       7.888  30.008  57.343  1.00  0.00    -0.308 N 
HETATM   11  C   UNL     1       6.920  30.840  57.901  1.00  0.00     0.134 A 
HETATM   12  C   UNL     1       9.162  29.857  57.896  1.00  0.00     0.099 A 
HETATM   13  C   UNL     1       7.262  31.551  59.084  1.00  0.00     0.057 A 
HETATM   14  N   UNL     1       5.805  30.814  57.205  1.00  0.00    -0.241 NA
HETATM   15  C   UNL     1       8.488  31.410  59.633  1.00  0.00    -0.057 A 
HETATM   16  C   UNL     1       8.898  32.120  60.890  1.00  0.00     0.048 C 
HETATM   17  C   UNL     1       9.479  30.532  59.014  1.00  0.00     0.024 A 
HETATM   18  C   UNL     1       6.023  29.932  56.190  1.00  0.00     0.146 A 
ENDBRANCH   8   9
ENDBRANCH   1   8
BRANCH   5  19
HETATM   19  C   UNL     1       7.000  23.743  54.912  1.00  0.00    -0.024 A 
HETATM   20  C   UNL     1       7.611  22.548  54.371  1.00  0.00     0.018 A 
HETATM   21  C   UNL     1       8.407  22.004  55.378  1.00  0.00     0.138 A 
HETATM   22  C   UNL     1       7.606  21.837  53.154  1.00  0.00     0.017 A 
HETATM   23  N   UNL     1       9.130  20.872  55.349  1.00  0.00    -0.242 NA
HETATM   24  N   UNL     1       8.374  22.841  56.451  1.00  0.00    -0.350 N 
HETATM   25  C   UNL     1       9.073  20.231  54.166  1.00  0.00     0.119 A 
HETATM   26  C   UNL     1       8.352  20.658  53.063  1.00  0.00     0.020 A 
HETATM   27  H   UNL     1       8.916  22.690  57.291  1.00  0.00     0.166 HD
HETATM   28  C   UNL     1       7.543  23.895  56.184  1.00  0.00     0.098 A 
ENDBRANCH   5  19
TORSDOF 3
ENDMDL
MODEL 6
REMARK VINA RESULT:      -9.3      2.192      3.433
REMARK  3 active torsions:
REMARK  status: ('A' for Active; 'I' for Inactive)
REMARK    1  A    between atoms: C_6  and  C_7 
REMARK    2  A    between atoms: C_7  and  N_8 
REMARK    3  A    between atoms: C_12  and  C_13 
ROOT
HETATM    1  N   UNL     1       6.982  28.856  57.926  1.00  0.00    -0.066 N 
HETATM    2  H   UNL     1       6.578  28.768  58.867  1.00  0.00     0.280 HD
HETATM    3  C   UNL     1       5.832  28.825  56.942  1.00  0.00     0.236 C 
HETATM    4  C   UNL     1       5.114  27.480  57.023  1.00  0.00     0.037 C 
HETATM    5  C   UNL     1       6.070  26.299  56.753  1.00  0.00     0.024 C 
HETATM    6  C   UNL     1       7.176  26.386  57.811  1.00  0.00     0.037 C 
HETATM    7  C   UNL     1       7.937  27.701  57.733  1.00  0.00     0.236 C 
ENDROOT
BRANCH   1   8
HETATM    8  C   UNL     1       7.726  30.175  57.905  1.00  0.00     0.293 C 
BRANCH   8   9
HETATM    9  C   UNL     1       7.083  31.205  58.743  1.00  0.00     0.061 A 
HETATM   10  N   UNL     1       7.435  31.499  60.052  1.00  0.00    -0.308 N 
HETATM   11  C   UNL     1       6.576  32.512  60.472  1.00  0.00     0.134 A 
HETATM   12  C   UNL     1       8.427  30.962  60.876  1.00  0.00     0.099 A 
HETATM   13  C   UNL     1       6.729  33.000  61.799  1.00  0.00     0.057 A 
HETATM   14  N   UNL     1       5.730  32.848  59.524  1.00  0.00    -0.241 NA
HETATM   15  C   UNL     1       7.681  32.486  62.608  1.00  0.00    -0.057 A 
HETATM   16  C   UNL     1       7.876  32.949  64.022  1.00  0.00     0.048 C 
HETATM   17  C   UNL     1       8.567  31.428  62.128  1.00  0.00     0.024 A 
HETATM   18  C   UNL     1       6.009  32.030  58.471  1.00  0.00     0.146 A 
ENDBRANCH   8   9
ENDBRANCH   1   8
BRANCH   5  19
HETATM   19  C   UNL     1       6.548  26.253  55.307  1.00  0.00    -0.024 A 
HETATM   20  C   UNL     1       7.003  25.134  54.512  1.00  0.00     0.018 A 
HETATM   21  C   UNL     1       7.359  25.638  53.262  1.00  0.00     0.138 A 
HETATM   22  C   UNL     1       7.167  23.743  54.672  1.00  0.00     0.017 A 
HETATM   23  N   UNL     1       7.878  24.977  52.214  1.00  0.00    -0.242 NA
HETATM   24  N   UNL     1       7.067  26.967  53.236  1.00  0.00    -0.350 N 
HETATM   25  C   UNL     1       8.025  23.656  52.433  1.00  0.00     0.119 A 
HETATM   26  C   UNL     1       7.691  23.003  53.608  1.00  0.00     0.020 A 
HETATM   27  H   UNL     1       7.187  27.546  52.417  1.00  0.00     0.166 HD
HETATM   28  C   UNL     1       6.569  27.350  54.452  1.00  0.00     0.098 A 
ENDBRANCH   5  19
TORSDOF 3
ENDMDL
MODEL 7
REMARK VINA RESULT:      -8.9      2.743      3.725
REMARK  3 active torsions:
REMARK  status: ('A' for Active; 'I' for Inactive)
REMARK    1  A    between atoms: C_6  and  C_7 
REMARK    2  A    between atoms: C_7  and  N_8 
REMARK    3  A    between atoms: C_12  and  C_13 
ROOT
HETATM    1  N   UNL     1       6.559  26.837  52.656  1.00  0.00    -0.066 N 
HETATM    2  H   UNL     1       6.182  26.955  51.707  1.00  0.00     0.280 HD
HETATM    3  C   UNL     1       7.811  25.995  52.539  1.00  0.00     0.236 C 
HETATM    4  C   UNL     1       7.458  24.612  51.998  1.00  0.00     0.037 C 
HETATM    5  C   UNL     1       6.420  23.893  52.885  1.00  0.00     0.024 C 
HETATM    6  C   UNL     1       5.180  24.792  52.918  1.00  0.00     0.037 C 
HETATM    7  C   UNL     1       5.489  26.169  53.488  1.00  0.00     0.236 C 
ENDROOT
BRANCH   1   8
HETATM    8  C   UNL     1       6.845  28.232  53.175  1.00  0.00     0.293 C 
BRANCH   8   9
HETATM    9  C   UNL     1       6.826  28.306  54.648  1.00  0.00     0.061 A 
HETATM   10  N   UNL     1       5.888  29.001  55.397  1.00  0.00    -0.308 N 
HETATM   11  C   UNL     1       6.242  28.823  56.732  1.00  0.00     0.134 A 
HETATM   12  C   UNL     1       4.778  29.753  55.004  1.00  0.00     0.099 A 
HETATM   13  C   UNL     1       5.429  29.446  57.719  1.00  0.00     0.057 A 
HETATM   14  N   UNL     1       7.321  28.082  56.849  1.00  0.00    -0.241 NA
HETATM   15  C   UNL     1       4.356  30.180  57.353  1.00  0.00    -0.057 A 
HETATM   16  C   UNL     1       3.474  30.875  58.350  1.00  0.00     0.048 C 
HETATM   17  C   UNL     1       4.014  30.338  55.942  1.00  0.00     0.024 A 
HETATM   18  C   UNL     1       7.708  27.788  55.576  1.00  0.00     0.146 A 
ENDBRANCH   8   9
ENDBRANCH   1   8
BRANCH   5  19
HETATM   19  C   UNL     1       6.985  23.504  54.246  1.00  0.00    -0.024 A 
HETATM   20  C   UNL     1       7.674  22.300  54.658  1.00  0.00     0.018 A 
HETATM   21  C   UNL     1       7.948  22.432  56.019  1.00  0.00     0.138 A 
HETATM   22  C   UNL     1       8.113  21.098  54.067  1.00  0.00     0.017 A 
HETATM   23  N   UNL     1       8.533  21.546  56.841  1.00  0.00    -0.242 NA
HETATM   24  N   UNL     1       7.542  23.668  56.421  1.00  0.00    -0.350 N 
HETATM   25  C   UNL     1       8.917  20.413  56.222  1.00  0.00     0.119 A 
HETATM   26  C   UNL     1       8.741  20.145  54.874  1.00  0.00     0.020 A 
HETATM   27  H   UNL     1       7.681  24.021  57.357  1.00  0.00     0.166 HD
HETATM   28  C   UNL     1       6.972  24.328  55.366  1.00  0.00     0.098 A 
ENDBRANCH   5  19
TORSDOF 3
ENDMDL
MODEL 8
REMARK VINA RESULT:      -8.9      1.848      8.643
REMARK  3 active torsions:
REMARK  status: ('A' for Active; 'I' for Inactive)
REMARK    1  A    between atoms: C_6  and  C_7 
REMARK    2  A    between atoms: C_7  and  N_8 
REMARK    3  A    between atoms: C_12  and  C_13 
ROOT
HETATM    1  N   UNL     1       7.427  27.146  55.351  1.00  0.00    -0.066 N 
HETATM    2  H   UNL     1       8.287  26.595  55.232  1.00  0.00     0.280 HD
HETATM    3  C   UNL     1       7.735  28.556  54.896  1.00  0.00     0.236 C 
HETATM    4  C   UNL     1       8.813  29.167  55.788  1.00  0.00     0.037 C 
HETATM    5  C   UNL     1       8.398  29.172  57.274  1.00  0.00     0.024 C 
HETATM    6  C   UNL     1       8.143  27.710  57.658  1.00  0.00     0.037 C 
HETATM    7  C   UNL     1       7.046  27.081  56.812  1.00  0.00     0.236 C 
ENDROOT
BRANCH   1   8
HETATM    8  C   UNL     1       6.372  26.478  54.493  1.00  0.00     0.293 C 
BRANCH   8   9
HETATM    9  C   UNL     1       6.927  25.411  53.638  1.00  0.00     0.061 A 
HETATM   10  N   UNL     1       7.258  24.136  54.071  1.00  0.00    -0.308 N 
HETATM   11  C   UNL     1       7.756  23.461  52.959  1.00  0.00     0.134 A 
HETATM   12  C   UNL     1       7.154  23.541  55.330  1.00  0.00     0.099 A 
HETATM   13  C   UNL     1       8.175  22.113  53.138  1.00  0.00     0.057 A 
HETATM   14  N   UNL     1       7.758  24.227  51.892  1.00  0.00    -0.241 NA
HETATM   15  C   UNL     1       8.085  21.527  54.351  1.00  0.00    -0.057 A 
HETATM   16  C   UNL     1       8.529  20.116  54.602  1.00  0.00     0.048 C 
HETATM   17  C   UNL     1       7.551  22.268  55.492  1.00  0.00     0.024 A 
HETATM   18  C   UNL     1       7.284  25.437  52.304  1.00  0.00     0.146 A 
ENDBRANCH   8   9
ENDBRANCH   1   8
BRANCH   5  19
HETATM   19  C   UNL     1       7.250  30.133  57.557  1.00  0.00    -0.024 A 
HETATM   20  C   UNL     1       7.028  31.012  58.684  1.00  0.00     0.018 A 
HETATM   21  C   UNL     1       5.808  31.652  58.470  1.00  0.00     0.138 A 
HETATM   22  C   UNL     1       7.694  31.364  59.876  1.00  0.00     0.017 A 
HETATM   23  N   UNL     1       5.171  32.522  59.272  1.00  0.00    -0.242 NA
HETATM   24  N   UNL     1       5.333  31.274  57.251  1.00  0.00    -0.350 N 
HETATM   25  C   UNL     1       5.849  32.807  60.399  1.00  0.00     0.119 A 
HETATM   26  C   UNL     1       7.083  32.276  60.741  1.00  0.00     0.020 A 
HETATM   27  H   UNL     1       4.485  31.645  56.846  1.00  0.00     0.166 HD
HETATM   28  C   UNL     1       6.193  30.372  56.685  1.00  0.00     0.098 A 
ENDBRANCH   5  19
TORSDOF 3
ENDMDL
MODEL 9
REMARK VINA RESULT:      -8.9      2.181      8.990
REMARK  3 active torsions:
REMARK  status: ('A' for Active; 'I' for Inactive)
REMARK    1  A    between atoms: C_6  and  C_7 
REMARK    2  A    between atoms: C_7  and  N_8 
REMARK    3  A    between atoms: C_12  and  C_13 
ROOT
HETATM    1  N   UNL     1       7.277  28.030  56.985  1.00  0.00    -0.066 N 
HETATM    2  H   UNL     1       7.278  28.118  55.960  1.00  0.00     0.280 HD
HETATM    3  C   UNL     1       6.210  28.963  57.513  1.00  0.00     0.236 C 
HETATM    4  C   UNL     1       6.562  30.407  57.165  1.00  0.00     0.037 C 
HETATM    5  C   UNL     1       7.942  30.814  57.724  1.00  0.00     0.024 C 
HETATM    6  C   UNL     1       8.961  29.847  57.112  1.00  0.00     0.037 C 
HETATM    7  C   UNL     1       8.660  28.399  57.471  1.00  0.00     0.236 C 
ENDROOT
BRANCH   1   8
HETATM    8  C   UNL     1       6.976  26.576  57.285  1.00  0.00     0.293 C 
BRANCH   8   9
HETATM    9  C   UNL     1       6.614  25.809  56.078  1.00  0.00     0.061 A 
HETATM   10  N   UNL     1       7.317  24.718  55.588  1.00  0.00    -0.308 N 
HETATM   11  C   UNL     1       6.651  24.306  54.436  1.00  0.00     0.134 A 
HETATM   12  C   UNL     1       8.462  24.077  56.067  1.00  0.00     0.099 A 
HETATM   13  C   UNL     1       7.179  23.189  53.732  1.00  0.00     0.057 A 
HETATM   14  N   UNL     1       5.607  25.064  54.188  1.00  0.00    -0.241 NA
HETATM   15  C   UNL     1       8.288  22.563  54.181  1.00  0.00    -0.057 A 
HETATM   16  C   UNL     1       8.900  21.392  53.469  1.00  0.00     0.048 C 
HETATM   17  C   UNL     1       8.955  23.022  55.397  1.00  0.00     0.024 A 
HETATM   18  C   UNL     1       5.594  26.010  55.169  1.00  0.00     0.146 A 
ENDBRANCH   8   9
ENDBRANCH   1   8
BRANCH   5  19
HETATM   19  C   UNL     1       7.953  30.903  59.245  1.00  0.00    -0.024 A 
HETATM   20  C   UNL     1       7.053  31.593  60.143  1.00  0.00     0.018 A 
HETATM   21  C   UNL     1       7.529  31.385  61.437  1.00  0.00     0.138 A 
HETATM   22  C   UNL     1       5.885  32.377  60.047  1.00  0.00     0.017 A 
HETATM   23  N   UNL     1       7.044  31.871  62.592  1.00  0.00    -0.242 NA
HETATM   24  N   UNL     1       8.602  30.549  61.372  1.00  0.00    -0.350 N 
HETATM   25  C   UNL     1       5.938  32.623  62.434  1.00  0.00     0.119 A 
HETATM   26  C   UNL     1       5.329  32.897  61.220  1.00  0.00     0.020 A 
HETATM   27  H   UNL     1       9.090  30.206  62.187  1.00  0.00     0.166 HD
HETATM   28  C   UNL     1       8.862  30.241  60.063  1.00  0.00     0.098 A 
ENDBRANCH   5  19
TORSDOF 3
ENDMDL
MODEL 10
REMARK VINA RESULT:      -8.8      4.576      7.176
REMARK  3 active torsions:
REMARK  status: ('A' for Active; 'I' for Inactive)
REMARK    1  A    between atoms: C_6  and  C_7 
REMARK    2  A    between atoms: C_7  and  N_8 
REMARK    3  A    between atoms: C_12  and  C_13 
ROOT
HETATM    1  N   UNL     1       5.969  27.376  53.131  1.00  0.00    -0.066 N 
HETATM    2  H   UNL     1       5.536  28.044  53.780  1.00  0.00     0.280 HD
HETATM    3  C   UNL     1       5.141  26.109  53.175  1.00  0.00     0.236 C 
HETATM    4  C   UNL     1       5.191  25.504  54.575  1.00  0.00     0.037 C 
HETATM    5  C   UNL     1       6.637  25.204  55.023  1.00  0.00     0.024 C 
HETATM    6  C   UNL     1       7.389  26.539  54.984  1.00  0.00     0.037 C 
HETATM    7  C   UNL     1       7.391  27.153  53.592  1.00  0.00     0.236 C 
ENDROOT
BRANCH   1   8
HETATM    8  C   UNL     1       5.947  28.035  51.767  1.00  0.00     0.293 C 
BRANCH   8   9
HETATM    9  C   UNL     1       4.612  28.549  51.405  1.00  0.00     0.061 A 
HETATM   10  N   UNL     1       3.844  28.090  50.345  1.00  0.00    -0.308 N 
HETATM   11  C   UNL     1       2.675  28.848  50.351  1.00  0.00     0.134 A 
HETATM   12  C   UNL     1       4.086  27.084  49.407  1.00  0.00     0.099 A 
HETATM   13  C   UNL     1       1.705  28.573  49.348  1.00  0.00     0.057 A 
HETATM   14  N   UNL     1       2.679  29.730  51.324  1.00  0.00    -0.241 NA
HETATM   15  C   UNL     1       1.929  27.606  48.431  1.00  0.00    -0.057 A 
HETATM   16  C   UNL     1       0.950  27.285  47.340  1.00  0.00     0.048 C 
HETATM   17  C   UNL     1       3.165  26.829  48.462  1.00  0.00     0.024 A 
HETATM   18  C   UNL     1       3.877  29.580  51.956  1.00  0.00     0.146 A 
ENDBRANCH   8   9
ENDBRANCH   1   8
BRANCH   5  19
HETATM   19  C   UNL     1       7.272  24.071  54.226  1.00  0.00    -0.024 A 
HETATM   20  C   UNL     1       7.612  22.724  54.631  1.00  0.00     0.018 A 
HETATM   21  C   UNL     1       8.203  22.103  53.532  1.00  0.00     0.138 A 
HETATM   22  C   UNL     1       7.503  21.928  55.789  1.00  0.00     0.017 A 
HETATM   23  N   UNL     1       8.719  20.865  53.452  1.00  0.00    -0.242 NA
HETATM   24  N   UNL     1       8.161  22.964  52.478  1.00  0.00    -0.350 N 
HETATM   25  C   UNL     1       8.598  20.160  54.592  1.00  0.00     0.119 A 
HETATM   26  C   UNL     1       8.011  20.626  55.758  1.00  0.00     0.020 A 
HETATM   27  H   UNL     1       8.482  22.723  51.551  1.00  0.00     0.166 HD
HETATM   28  C   UNL     1       7.594  24.145  52.875  1.00  0.00     0.098 A 
ENDBRANCH   5  19
TORSDOF 3
ENDMDL
