MODEL 1
REMARK VINA RESULT:     -10.3      0.000      0.000
REMARK  8 active torsions:
REMARK  status: ('A' for Active; 'I' for Inactive)
REMARK    1  A    between atoms: O_2  and  C_3 
REMARK    2  A    between atoms: C_5  and  C_6 
REMARK    3  A    between atoms: C_6  and  N_7 
REMARK       I    between atoms: N_7  and  C_8 
REMARK    4  A    between atoms: C_8  and  C_9 
REMARK    5  A    between atoms: C_9  and  C_10 
REMARK    6  A    between atoms: C_10  and  N_11 
REMARK    7  A    between atoms: N_11  and  S_12 
REMARK    8  A    between atoms: S_12  and  C_13 
ROOT
HETATM    1  N   UNL     1       8.087  28.261  57.899  1.00  0.00    -0.215 NA
HETATM    2  H   UNL     1       7.708  27.969  58.802  1.00  0.00     0.139 HD
ENDROOT
BRANCH   1   3
HETATM    3  C   UNL     1       8.563  29.659  57.809  1.00  0.00     0.113 C 
BRANCH   3   4
HETATM    4  C   UNL     1       7.561  30.604  58.455  1.00  0.00     0.118 C 
BRANCH   4   5
HETATM    5  C   UNL     1       8.192  31.368  59.597  1.00  0.00     0.219 C 
HETATM    6  N   UNL     1       7.986  30.797  60.829  1.00  0.00    -0.357 N 
HETATM    7  H   UNL     1       7.625  29.853  60.866  1.00  0.00     0.162 HD
HETATM    8  O   UNL     1       8.841  32.393  59.421  1.00  0.00    -0.274 OA
BRANCH   6   9
HETATM    9  C   UNL     1       8.602  31.340  62.017  1.00  0.00     0.161 C 
BRANCH   9  10
HETATM   10  C   UNL     1       7.598  32.069  62.873  1.00  0.00    -0.038 A 
HETATM   11  C   UNL     1       6.221  31.958  62.607  1.00  0.00     0.045 A 
HETATM   12  C   UNL     1       5.280  32.621  63.395  1.00  0.00     0.068 A 
HETATM   13  C   UNL     1       5.719  33.405  64.461  1.00  0.00     0.037 A 
HETATM   14  C   UNL     1       7.082  33.529  64.738  1.00  0.00     0.003 A 
HETATM   15  C   UNL     1       8.018  32.863  63.946  1.00  0.00     0.009 A 
BRANCH  12  16
HETATM   16  O   UNL     1       3.923  32.583  63.226  1.00  0.00    -0.356 OA
HETATM   17  C   UNL     1       3.411  33.045  61.981  1.00  0.00     0.210 C 
ENDBRANCH  12  16
ENDBRANCH   9  10
ENDBRANCH   6   9
ENDBRANCH   4   5
ENDBRANCH   3   4
ENDBRANCH   1   3
BRANCH   1  18
HETATM   18  S   UNL     1       7.052  27.722  56.670  1.00  0.00     0.241 S 
HETATM   19  O   UNL     1       5.740  27.630  57.273  1.00  0.00    -0.206 OA
HETATM   20  O   UNL     1       7.306  28.538  55.506  1.00  0.00    -0.206 OA
BRANCH  18  21
HETATM   21  C   UNL     1       7.624  26.074  56.370  1.00  0.00     0.075 A 
HETATM   22  C   UNL     1       7.613  25.571  55.070  1.00  0.00     0.034 A 
HETATM   23  C   UNL     1       7.982  24.234  54.793  1.00  0.00    -0.030 A 
HETATM   24  C   UNL     1       8.415  23.425  55.852  1.00  0.00     0.041 A 
HETATM   25  C   UNL     1       7.906  23.821  53.350  1.00  0.00     0.041 C 
HETATM   26  N   UNL     1       8.815  22.082  55.783  1.00  0.00    -0.327 N 
HETATM   27  C   UNL     1       8.457  23.972  57.154  1.00  0.00     0.031 A 
HETATM   28  C   UNL     1       8.895  21.150  54.805  1.00  0.00     0.222 C 
HETATM   29  H   UNL     1       9.097  21.658  56.661  1.00  0.00     0.169 HD
HETATM   30  O   UNL     1       9.308  20.030  55.126  1.00  0.00    -0.273 OA
HETATM   31  C   UNL     1       8.581  21.432  53.365  1.00  0.00     0.103 C 
HETATM   32  C   UNL     1       7.439  22.394  53.135  1.00  0.00     0.014 C 
HETATM   33  C   UNL     1       8.061  25.282  57.421  1.00  0.00     0.027 A 
ENDBRANCH  18  21
ENDBRANCH   1  18
TORSDOF 8
ENDMDL
MODEL 2
REMARK VINA RESULT:     -10.2      1.421      2.030
REMARK  8 active torsions:
REMARK  status: ('A' for Active; 'I' for Inactive)
REMARK    1  A    between atoms: O_2  and  C_3 
REMARK    2  A    between atoms: C_5  and  C_6 
REMARK    3  A    between atoms: C_6  and  N_7 
REMARK       I    between atoms: N_7  and  C_8 
REMARK    4  A    between atoms: C_8  and  C_9 
REMARK    5  A    between atoms: C_9  and  C_10 
REMARK    6  A    between atoms: C_10  and  N_11 
REMARK    7  A    between atoms: N_11  and  S_12 
REMARK    8  A    between atoms: S_12  and  C_13 
ROOT
HETATM    1  N   UNL     1       7.708  27.728  56.328  1.00  0.00    -0.215 NA
HETATM    2  H   UNL     1       6.877  27.371  56.804  1.00  0.00     0.139 HD
ENDROOT
BRANCH   1   3
HETATM    3  C   UNL     1       8.349  28.917  56.931  1.00  0.00     0.113 C 
BRANCH   3   4
HETATM    4  C   UNL     1       7.533  29.418  58.114  1.00  0.00     0.118 C 
BRANCH   4   5
HETATM    5  C   UNL     1       8.336  30.380  58.960  1.00  0.00     0.219 C 
HETATM    6  N   UNL     1       7.977  30.387  60.286  1.00  0.00    -0.357 N 
HETATM    7  H   UNL     1       7.378  29.646  60.624  1.00  0.00     0.162 HD
HETATM    8  O   UNL     1       9.236  31.069  58.494  1.00  0.00    -0.274 OA
BRANCH   6   9
HETATM    9  C   UNL     1       8.707  31.172  61.254  1.00  0.00     0.161 C 
BRANCH   9  10
HETATM   10  C   UNL     1       7.778  31.831  62.241  1.00  0.00    -0.038 A 
HETATM   11  C   UNL     1       6.384  31.755  62.066  1.00  0.00     0.045 A 
HETATM   12  C   UNL     1       5.511  32.353  62.976  1.00  0.00     0.068 A 
HETATM   13  C   UNL     1       6.037  33.036  64.072  1.00  0.00     0.037 A 
HETATM   14  C   UNL     1       7.418  33.123  64.259  1.00  0.00     0.003 A 
HETATM   15  C   UNL     1       8.285  32.522  63.347  1.00  0.00     0.009 A 
BRANCH  12  16
HETATM   16  O   UNL     1       4.146  32.343  62.902  1.00  0.00    -0.356 OA
HETATM   17  C   UNL     1       3.494  33.598  62.745  1.00  0.00     0.210 C 
ENDBRANCH  12  16
ENDBRANCH   9  10
ENDBRANCH   6   9
ENDBRANCH   4   5
ENDBRANCH   3   4
ENDBRANCH   1   3
BRANCH   1  18
HETATM   18  S   UNL     1       7.403  27.782  54.661  1.00  0.00     0.241 S 
HETATM   19  O   UNL     1       6.016  28.168  54.527  1.00  0.00    -0.206 OA
HETATM   20  O   UNL     1       8.473  28.540  54.055  1.00  0.00    -0.206 OA
BRANCH  18  21
HETATM   21  C   UNL     1       7.539  26.084  54.182  1.00  0.00     0.075 A 
HETATM   22  C   UNL     1       7.470  25.089  55.156  1.00  0.00     0.034 A 
HETATM   23  C   UNL     1       7.656  23.725  54.833  1.00  0.00    -0.030 A 
HETATM   24  C   UNL     1       7.863  23.377  53.491  1.00  0.00     0.041 A 
HETATM   25  C   UNL     1       7.575  22.764  55.985  1.00  0.00     0.041 C 
HETATM   26  N   UNL     1       8.071  22.089  52.973  1.00  0.00    -0.327 N 
HETATM   27  C   UNL     1       7.886  24.400  52.517  1.00  0.00     0.031 A 
HETATM   28  C   UNL     1       8.179  20.846  53.498  1.00  0.00     0.222 C 
HETATM   29  H   UNL     1       8.203  22.032  51.968  1.00  0.00     0.169 HD
HETATM   30  O   UNL     1       8.368  19.916  52.706  1.00  0.00    -0.273 OA
HETATM   31  C   UNL     1       8.008  20.546  54.958  1.00  0.00     0.103 C 
HETATM   32  C   UNL     1       8.544  21.601  55.896  1.00  0.00     0.014 C 
HETATM   33  C   UNL     1       7.732  25.745  52.852  1.00  0.00     0.027 A 
ENDBRANCH  18  21
ENDBRANCH   1  18
TORSDOF 8
ENDMDL
MODEL 3
REMARK VINA RESULT:      -9.8      6.513     10.294
REMARK  8 active torsions:
REMARK  status: ('A' for Active; 'I' for Inactive)
REMARK    1  A    between atoms: O_2  and  C_3 
REMARK    2  A    between atoms: C_5  and  C_6 
REMARK    3  A    between atoms: C_6  and  N_7 
REMARK       I    between atoms: N_7  and  C_8 
REMARK    4  A    between atoms: C_8  and  C_9 
REMARK    5  A    between atoms: C_9  and  C_10 
REMARK    6  A    between atoms: C_10  and  N_11 
REMARK    7  A    between atoms: N_11  and  S_12 
REMARK    8  A    between atoms: S_12  and  C_13 
ROOT
HETATM    1  N   UNL     1       6.411  28.566  53.180  1.00  0.00    -0.215 NA
HETATM    2  H   UNL     1       6.891  29.294  52.647  1.00  0.00     0.139 HD
ENDROOT
BRANCH   1   3
HETATM    3  C   UNL     1       5.027  28.870  53.606  1.00  0.00     0.113 C 
BRANCH   3   4
HETATM    4  C   UNL     1       4.060  27.835  53.048  1.00  0.00     0.118 C 
BRANCH   4   5
HETATM    5  C   UNL     1       4.541  27.302  51.718  1.00  0.00     0.219 C 
HETATM    6  N   UNL     1       4.574  28.245  50.720  1.00  0.00    -0.357 N 
HETATM    7  H   UNL     1       4.478  29.218  50.976  1.00  0.00     0.162 HD
HETATM    8  O   UNL     1       4.885  26.135  51.565  1.00  0.00    -0.274 OA
BRANCH   6   9
HETATM    9  C   UNL     1       5.102  27.932  49.413  1.00  0.00     0.161 C 
BRANCH   9  10
HETATM   10  C   UNL     1       4.038  27.358  48.513  1.00  0.00    -0.038 A 
HETATM   11  C   UNL     1       3.061  28.195  47.941  1.00  0.00     0.045 A 
HETATM   12  C   UNL     1       2.075  27.679  47.100  1.00  0.00     0.068 A 
HETATM   13  C   UNL     1       2.062  26.312  46.828  1.00  0.00     0.037 A 
HETATM   14  C   UNL     1       3.022  25.467  47.388  1.00  0.00     0.003 A 
HETATM   15  C   UNL     1       4.005  25.988  48.228  1.00  0.00     0.009 A 
BRANCH  12  16
HETATM   16  O   UNL     1       1.082  28.398  46.495  1.00  0.00    -0.356 OA
HETATM   17  C   UNL     1      -0.172  27.750  46.315  1.00  0.00     0.210 C 
ENDBRANCH  12  16
ENDBRANCH   9  10
ENDBRANCH   6   9
ENDBRANCH   4   5
ENDBRANCH   3   4
ENDBRANCH   1   3
BRANCH   1  18
HETATM   18  S   UNL     1       7.465  27.968  54.365  1.00  0.00     0.241 S 
HETATM   19  O   UNL     1       8.750  28.571  54.089  1.00  0.00    -0.206 OA
HETATM   20  O   UNL     1       6.805  28.119  55.641  1.00  0.00    -0.206 OA
BRANCH  18  21
HETATM   21  C   UNL     1       7.577  26.249  53.960  1.00  0.00     0.075 A 
HETATM   22  C   UNL     1       7.409  25.296  54.963  1.00  0.00     0.034 A 
HETATM   23  C   UNL     1       7.572  23.915  54.704  1.00  0.00    -0.030 A 
HETATM   24  C   UNL     1       7.858  23.508  53.394  1.00  0.00     0.041 A 
HETATM   25  C   UNL     1       7.380  23.002  55.882  1.00  0.00     0.041 C 
HETATM   26  N   UNL     1       8.059  22.196  52.939  1.00  0.00    -0.327 N 
HETATM   27  C   UNL     1       7.981  24.491  52.386  1.00  0.00     0.031 A 
HETATM   28  C   UNL     1       8.090  20.971  53.515  1.00  0.00     0.222 C 
HETATM   29  H   UNL     1       8.257  22.096  51.949  1.00  0.00     0.169 HD
HETATM   30  O   UNL     1       8.302  20.006  52.774  1.00  0.00    -0.273 OA
HETATM   31  C   UNL     1       7.810  20.734  54.970  1.00  0.00     0.103 C 
HETATM   32  C   UNL     1       8.315  21.809  55.904  1.00  0.00     0.014 C 
HETATM   33  C   UNL     1       7.850  25.853  52.660  1.00  0.00     0.027 A 
ENDBRANCH  18  21
ENDBRANCH   1  18
TORSDOF 8
ENDMDL
MODEL 4
REMARK VINA RESULT:      -9.7      1.829      2.224
REMARK  8 active torsions:
REMARK  status: ('A' for Active; 'I' for Inactive)
REMARK    1  A    between atoms: O_2  and  C_3 
REMARK    2  A    between atoms: C_5  and  C_6 
REMARK    3  A    between atoms: C_6  and  N_7 
REMARK       I    between atoms: N_7  and  C_8 
REMARK    4  A    between atoms: C_8  and  C_9 
REMARK    5  A    between atoms: C_9  and  C_10 
REMARK    6  A    between atoms: C_10  and  N_11 
REMARK    7  A    between atoms: N_11  and  S_12 
REMARK    8  A    between atoms: S_12  and  C_13 
ROOT
HETATM    1  N   UNL     1       6.847  28.774  55.061  1.00  0.00    -0.215 NA
HETATM    2  H   UNL     1       7.584  28.239  55.525  1.00  0.00     0.139 HD
ENDROOT
BRANCH   1   3
HETATM    3  C   UNL     1       6.044  29.668  55.922  1.00  0.00     0.113 C 
BRANCH   3   4
HETATM    4  C   UNL     1       5.894  29.073  57.314  1.00  0.00     0.118 C 
BRANCH   4   5
HETATM    5  C   UNL     1       7.169  29.230  58.113  1.00  0.00     0.219 C 
HETATM    6  N   UNL     1       7.211  30.374  58.873  1.00  0.00    -0.357 N 
HETATM    7  H   UNL     1       6.355  30.897  58.999  1.00  0.00     0.162 HD
HETATM    8  O   UNL     1       8.065  28.395  58.088  1.00  0.00    -0.274 OA
BRANCH   6   9
HETATM    9  C   UNL     1       8.310  30.633  59.773  1.00  0.00     0.161 C 
BRANCH   9  10
HETATM   10  C   UNL     1       7.890  31.526  60.912  1.00  0.00    -0.038 A 
HETATM   11  C   UNL     1       6.724  32.309  60.810  1.00  0.00     0.045 A 
HETATM   12  C   UNL     1       6.319  33.135  61.859  1.00  0.00     0.068 A 
HETATM   13  C   UNL     1       7.086  33.181  63.023  1.00  0.00     0.037 A 
HETATM   14  C   UNL     1       8.246  32.413  63.139  1.00  0.00     0.003 A 
HETATM   15  C   UNL     1       8.647  31.589  62.087  1.00  0.00     0.009 A 
BRANCH  12  16
HETATM   16  O   UNL     1       5.209  33.934  61.867  1.00  0.00    -0.356 OA
HETATM   17  C   UNL     1       3.943  33.287  61.923  1.00  0.00     0.210 C 
ENDBRANCH  12  16
ENDBRANCH   9  10
ENDBRANCH   6   9
ENDBRANCH   4   5
ENDBRANCH   3   4
ENDBRANCH   1   3
BRANCH   1  18
HETATM   18  S   UNL     1       5.996  27.743  54.019  1.00  0.00     0.241 S 
HETATM   19  O   UNL     1       4.601  27.897  54.366  1.00  0.00    -0.206 OA
HETATM   20  O   UNL     1       6.486  27.985  52.682  1.00  0.00    -0.206 OA
BRANCH  18  21
HETATM   21  C   UNL     1       6.510  26.136  54.552  1.00  0.00     0.075 A 
HETATM   22  C   UNL     1       7.148  25.285  53.649  1.00  0.00     0.034 A 
HETATM   23  C   UNL     1       7.502  23.963  54.004  1.00  0.00    -0.030 A 
HETATM   24  C   UNL     1       7.246  23.529  55.312  1.00  0.00     0.041 A 
HETATM   25  C   UNL     1       8.165  23.153  52.926  1.00  0.00     0.041 C 
HETATM   26  N   UNL     1       7.517  22.263  55.852  1.00  0.00    -0.327 N 
HETATM   27  C   UNL     1       6.638  24.424  56.220  1.00  0.00     0.031 A 
HETATM   28  C   UNL     1       8.028  21.103  55.378  1.00  0.00     0.222 C 
HETATM   29  H   UNL     1       7.260  22.133  56.826  1.00  0.00     0.169 HD
HETATM   30  O   UNL     1       8.121  20.162  56.174  1.00  0.00    -0.273 OA
HETATM   31  C   UNL     1       8.543  20.936  53.978  1.00  0.00     0.103 C 
HETATM   32  C   UNL     1       7.773  21.688  52.918  1.00  0.00     0.014 C 
HETATM   33  C   UNL     1       6.264  25.716  55.850  1.00  0.00     0.027 A 
ENDBRANCH  18  21
ENDBRANCH   1  18
TORSDOF 8
ENDMDL
MODEL 5
REMARK VINA RESULT:      -9.5      2.067     11.655
REMARK  8 active torsions:
REMARK  status: ('A' for Active; 'I' for Inactive)
REMARK    1  A    between atoms: O_2  and  C_3 
REMARK    2  A    between atoms: C_5  and  C_6 
REMARK    3  A    between atoms: C_6  and  N_7 
REMARK       I    between atoms: N_7  and  C_8 
REMARK    4  A    between atoms: C_8  and  C_9 
REMARK    5  A    between atoms: C_9  and  C_10 
REMARK    6  A    between atoms: C_10  and  N_11 
REMARK    7  A    between atoms: N_11  and  S_12 
REMARK    8  A    between atoms: S_12  and  C_13 
ROOT
HETATM    1  N   UNL     1       7.508  30.380  58.918  1.00  0.00    -0.215 NA
HETATM    2  H   UNL     1       6.635  30.182  59.411  1.00  0.00     0.139 HD
ENDROOT
BRANCH   1   3
HETATM    3  C   UNL     1       8.120  29.249  58.187  1.00  0.00     0.113 C 
BRANCH   3   4
HETATM    4  C   UNL     1       7.054  28.460  57.440  1.00  0.00     0.118 C 
BRANCH   4   5
HETATM    5  C   UNL     1       7.534  28.066  56.062  1.00  0.00     0.219 C 
HETATM    6  N   UNL     1       6.994  26.890  55.600  1.00  0.00    -0.357 N 
HETATM    7  H   UNL     1       6.204  26.498  56.095  1.00  0.00     0.162 HD
HETATM    8  O   UNL     1       8.320  28.753  55.420  1.00  0.00    -0.274 OA
BRANCH   6   9
HETATM    9  C   UNL     1       7.267  26.417  54.263  1.00  0.00     0.161 C 
BRANCH   9  10
HETATM   10  C   UNL     1       7.568  24.940  54.253  1.00  0.00    -0.038 A 
HETATM   11  C   UNL     1       7.797  24.252  55.459  1.00  0.00     0.045 A 
HETATM   12  C   UNL     1       8.070  22.883  55.465  1.00  0.00     0.068 A 
HETATM   13  C   UNL     1       8.115  22.194  54.254  1.00  0.00     0.037 A 
HETATM   14  C   UNL     1       7.892  22.863  53.048  1.00  0.00     0.003 A 
HETATM   15  C   UNL     1       7.620  24.230  53.048  1.00  0.00     0.009 A 
BRANCH  12  16
HETATM   16  O   UNL     1       8.308  22.119  56.574  1.00  0.00    -0.356 OA
HETATM   17  C   UNL     1       8.729  20.777  56.359  1.00  0.00     0.210 C 
ENDBRANCH  12  16
ENDBRANCH   9  10
ENDBRANCH   6   9
ENDBRANCH   4   5
ENDBRANCH   3   4
ENDBRANCH   1   3
BRANCH   1  18
HETATM   18  S   UNL     1       8.525  31.272  59.940  1.00  0.00     0.241 S 
HETATM   19  O   UNL     1       9.283  30.296  60.690  1.00  0.00    -0.206 OA
HETATM   20  O   UNL     1       9.163  32.285  59.133  1.00  0.00    -0.206 OA
BRANCH  18  21
HETATM   21  C   UNL     1       7.384  32.040  61.054  1.00  0.00     0.075 A 
HETATM   22  C   UNL     1       7.855  32.599  62.241  1.00  0.00     0.034 A 
HETATM   23  C   UNL     1       6.973  33.149  63.200  1.00  0.00    -0.030 A 
HETATM   24  C   UNL     1       5.601  33.172  62.913  1.00  0.00     0.041 A 
HETATM   25  C   UNL     1       7.618  33.699  64.441  1.00  0.00     0.041 C 
HETATM   26  N   UNL     1       4.573  33.666  63.730  1.00  0.00    -0.327 N 
HETATM   27  C   UNL     1       5.153  32.637  61.684  1.00  0.00     0.031 A 
HETATM   28  C   UNL     1       4.504  34.209  64.969  1.00  0.00     0.222 C 
HETATM   29  H   UNL     1       3.634  33.597  63.351  1.00  0.00     0.169 HD
HETATM   30  O   UNL     1       3.385  34.539  65.376  1.00  0.00    -0.273 OA
HETATM   31  C   UNL     1       5.709  34.489  65.818  1.00  0.00     0.103 C 
HETATM   32  C   UNL     1       6.820  33.471  65.710  1.00  0.00     0.014 C 
HETATM   33  C   UNL     1       6.029  32.069  60.760  1.00  0.00     0.027 A 
ENDBRANCH  18  21
ENDBRANCH   1  18
TORSDOF 8
ENDMDL
MODEL 6
REMARK VINA RESULT:      -9.4      1.979     11.419
REMARK  8 active torsions:
REMARK  status: ('A' for Active; 'I' for Inactive)
REMARK    1  A    between atoms: O_2  and  C_3 
REMARK    2  A    between atoms: C_5  and  C_6 
REMARK    3  A    between atoms: C_6  and  N_7 
REMARK       I    between atoms: N_7  and  C_8 
REMARK    4  A    between atoms: C_8  and  C_9 
REMARK    5  A    between atoms: C_9  and  C_10 
REMARK    6  A    between atoms: C_10  and  N_11 
REMARK    7  A    between atoms: N_11  and  S_12 
REMARK    8  A    between atoms: S_12  and  C_13 
ROOT
HETATM    1  N   UNL     1       7.944  28.938  58.762  1.00  0.00    -0.215 NA
HETATM    2  H   UNL     1       8.581  28.687  59.521  1.00  0.00     0.139 HD
ENDROOT
BRANCH   1   3
HETATM    3  C   UNL     1       8.013  28.102  57.544  1.00  0.00     0.113 C 
BRANCH   3   4
HETATM    4  C   UNL     1       7.446  26.717  57.818  1.00  0.00     0.118 C 
BRANCH   4   5
HETATM    5  C   UNL     1       6.676  26.198  56.624  1.00  0.00     0.219 C 
HETATM    6  N   UNL     1       7.474  25.778  55.588  1.00  0.00    -0.357 N 
HETATM    7  H   UNL     1       8.463  25.659  55.762  1.00  0.00     0.162 HD
HETATM    8  O   UNL     1       5.452  26.147  56.605  1.00  0.00    -0.274 OA
BRANCH   6   9
HETATM    9  C   UNL     1       6.908  25.162  54.411  1.00  0.00     0.161 C 
BRANCH   9  10
HETATM   10  C   UNL     1       7.329  23.720  54.288  1.00  0.00    -0.038 A 
HETATM   11  C   UNL     1       7.506  22.930  55.439  1.00  0.00     0.045 A 
HETATM   12  C   UNL     1       7.888  21.592  55.341  1.00  0.00     0.068 A 
HETATM   13  C   UNL     1       8.097  21.036  54.079  1.00  0.00     0.037 A 
HETATM   14  C   UNL     1       7.928  21.806  52.928  1.00  0.00     0.003 A 
HETATM   15  C   UNL     1       7.546  23.143  53.032  1.00  0.00     0.009 A 
BRANCH  12  16
HETATM   16  O   UNL     1       8.089  20.737  56.389  1.00  0.00    -0.356 OA
HETATM   17  C   UNL     1       8.289  21.318  57.673  1.00  0.00     0.210 C 
ENDBRANCH  12  16
ENDBRANCH   9  10
ENDBRANCH   6   9
ENDBRANCH   4   5
ENDBRANCH   3   4
ENDBRANCH   1   3
BRANCH   1  18
HETATM   18  S   UNL     1       7.990  30.619  58.543  1.00  0.00     0.241 S 
HETATM   19  O   UNL     1       9.333  30.922  58.101  1.00  0.00    -0.206 OA
HETATM   20  O   UNL     1       6.826  30.981  57.768  1.00  0.00    -0.206 OA
BRANCH  18  21
HETATM   21  C   UNL     1       7.813  31.234  60.193  1.00  0.00     0.075 A 
HETATM   22  C   UNL     1       6.819  32.172  60.472  1.00  0.00     0.034 A 
HETATM   23  C   UNL     1       6.692  32.754  61.754  1.00  0.00    -0.030 A 
HETATM   24  C   UNL     1       7.560  32.331  62.771  1.00  0.00     0.041 A 
HETATM   25  C   UNL     1       5.590  33.763  61.908  1.00  0.00     0.041 C 
HETATM   26  N   UNL     1       7.596  32.788  64.097  1.00  0.00    -0.327 N 
HETATM   27  C   UNL     1       8.530  31.349  62.473  1.00  0.00     0.031 A 
HETATM   28  C   UNL     1       6.925  33.719  64.814  1.00  0.00     0.222 C 
HETATM   29  H   UNL     1       8.299  32.361  64.693  1.00  0.00     0.169 HD
HETATM   30  O   UNL     1       7.240  33.850  66.002  1.00  0.00    -0.273 OA
HETATM   31  C   UNL     1       5.790  34.530  64.260  1.00  0.00     0.103 C 
HETATM   32  C   UNL     1       5.936  34.931  62.811  1.00  0.00     0.014 C 
HETATM   33  C   UNL     1       8.667  30.804  61.196  1.00  0.00     0.027 A 
ENDBRANCH  18  21
ENDBRANCH   1  18
TORSDOF 8
ENDMDL
MODEL 7
REMARK VINA RESULT:      -9.2      2.426     11.087
REMARK  8 active torsions:
REMARK  status: ('A' for Active; 'I' for Inactive)
REMARK    1  A    between atoms: O_2  and  C_3 
REMARK    2  A    between atoms: C_5  and  C_6 
REMARK    3  A    between atoms: C_6  and  N_7 
REMARK       I    between atoms: N_7  and  C_8 
REMARK    4  A    between atoms: C_8  and  C_9 
REMARK    5  A    between atoms: C_9  and  C_10 
REMARK    6  A    between atoms: C_10  and  N_11 
REMARK    7  A    between atoms: N_11  and  S_12 
REMARK    8  A    between atoms: S_12  and  C_13 
ROOT
HETATM    1  N   UNL     1       5.703  30.407  58.398  1.00  0.00    -0.215 NA
HETATM    2  H   UNL     1       5.479  29.901  59.258  1.00  0.00     0.139 HD
ENDROOT
BRANCH   1   3
HETATM    3  C   UNL     1       7.135  30.489  58.039  1.00  0.00     0.113 C 
BRANCH   3   4
HETATM    4  C   UNL     1       7.457  29.523  56.909  1.00  0.00     0.118 C 
BRANCH   4   5
HETATM    5  C   UNL     1       7.095  28.104  57.287  1.00  0.00     0.219 C 
HETATM    6  N   UNL     1       5.921  27.662  56.727  1.00  0.00    -0.357 N 
HETATM    7  H   UNL     1       5.510  28.207  55.982  1.00  0.00     0.162 HD
HETATM    8  O   UNL     1       7.804  27.417  58.014  1.00  0.00    -0.274 OA
BRANCH   6   9
HETATM    9  C   UNL     1       5.477  26.299  56.902  1.00  0.00     0.161 C 
BRANCH   9  10
HETATM   10  C   UNL     1       5.972  25.412  55.787  1.00  0.00    -0.038 A 
HETATM   11  C   UNL     1       6.678  24.230  56.078  1.00  0.00     0.045 A 
HETATM   12  C   UNL     1       7.135  23.396  55.058  1.00  0.00     0.068 A 
HETATM   13  C   UNL     1       6.886  23.746  53.731  1.00  0.00     0.037 A 
HETATM   14  C   UNL     1       6.188  24.917  53.425  1.00  0.00     0.003 A 
HETATM   15  C   UNL     1       5.734  25.746  54.449  1.00  0.00     0.009 A 
BRANCH  12  16
HETATM   16  O   UNL     1       7.830  22.230  55.226  1.00  0.00    -0.356 OA
HETATM   17  C   UNL     1       9.240  22.282  55.043  1.00  0.00     0.210 C 
ENDBRANCH  12  16
ENDBRANCH   9  10
ENDBRANCH   6   9
ENDBRANCH   4   5
ENDBRANCH   3   4
ENDBRANCH   1   3
BRANCH   1  18
HETATM   18  S   UNL     1       4.819  31.853  58.367  1.00  0.00     0.241 S 
HETATM   19  O   UNL     1       5.652  32.809  57.673  1.00  0.00    -0.206 OA
HETATM   20  O   UNL     1       3.484  31.530  57.920  1.00  0.00    -0.206 OA
BRANCH  18  21
HETATM   21  C   UNL     1       4.771  32.319  60.074  1.00  0.00     0.075 A 
HETATM   22  C   UNL     1       5.954  32.674  60.721  1.00  0.00     0.034 A 
HETATM   23  C   UNL     1       5.978  32.973  62.103  1.00  0.00    -0.030 A 
HETATM   24  C   UNL     1       4.770  32.959  62.813  1.00  0.00     0.041 A 
HETATM   25  C   UNL     1       7.325  33.321  62.673  1.00  0.00     0.041 C 
HETATM   26  N   UNL     1       4.588  33.221  64.180  1.00  0.00    -0.327 N 
HETATM   27  C   UNL     1       3.579  32.638  62.125  1.00  0.00     0.031 A 
HETATM   28  C   UNL     1       5.402  33.514  65.221  1.00  0.00     0.222 C 
HETATM   29  H   UNL     1       3.633  33.162  64.518  1.00  0.00     0.169 HD
HETATM   30  O   UNL     1       4.867  33.686  66.322  1.00  0.00    -0.273 OA
HETATM   31  C   UNL     1       6.883  33.707  65.084  1.00  0.00     0.103 C 
HETATM   32  C   UNL     1       7.558  32.804  64.079  1.00  0.00     0.014 C 
HETATM   33  C   UNL     1       3.571  32.314  60.768  1.00  0.00     0.027 A 
ENDBRANCH  18  21
ENDBRANCH   1  18
TORSDOF 8
ENDMDL
MODEL 8
REMARK VINA RESULT:      -9.1      2.820      4.466
REMARK  8 active torsions:
REMARK  status: ('A' for Active; 'I' for Inactive)
REMARK    1  A    between atoms: O_2  and  C_3 
REMARK    2  A    between atoms: C_5  and  C_6 
REMARK    3  A    between atoms: C_6  and  N_7 
REMARK       I    between atoms: N_7  and  C_8 
REMARK    4  A    between atoms: C_8  and  C_9 
REMARK    5  A    between atoms: C_9  and  C_10 
REMARK    6  A    between atoms: C_10  and  N_11 
REMARK    7  A    between atoms: N_11  and  S_12 
REMARK    8  A    between atoms: S_12  and  C_13 
ROOT
HETATM    1  N   UNL     1       4.815  27.437  55.012  1.00  0.00    -0.215 NA
HETATM    2  H   UNL     1       4.076  27.464  54.307  1.00  0.00     0.139 HD
ENDROOT
BRANCH   1   3
HETATM    3  C   UNL     1       4.592  28.249  56.228  1.00  0.00     0.113 C 
BRANCH   3   4
HETATM    4  C   UNL     1       4.006  29.605  55.862  1.00  0.00     0.118 C 
BRANCH   4   5
HETATM    5  C   UNL     1       4.043  30.550  57.042  1.00  0.00     0.219 C 
HETATM    6  N   UNL     1       5.213  30.497  57.760  1.00  0.00    -0.357 N 
HETATM    7  H   UNL     1       6.002  30.011  57.356  1.00  0.00     0.162 HD
HETATM    8  O   UNL     1       3.113  31.302  57.308  1.00  0.00    -0.274 OA
BRANCH   6   9
HETATM    9  C   UNL     1       5.457  31.403  58.858  1.00  0.00     0.161 C 
BRANCH   9  10
HETATM   10  C   UNL     1       6.930  31.528  59.151  1.00  0.00    -0.038 A 
HETATM   11  C   UNL     1       7.872  30.828  58.374  1.00  0.00     0.045 A 
HETATM   12  C   UNL     1       9.240  30.939  58.629  1.00  0.00     0.068 A 
HETATM   13  C   UNL     1       9.671  31.758  59.672  1.00  0.00     0.037 A 
HETATM   14  C   UNL     1       8.750  32.457  60.454  1.00  0.00     0.003 A 
HETATM   15  C   UNL     1       7.385  32.342  60.195  1.00  0.00     0.009 A 
BRANCH  12  16
HETATM   16  O   UNL     1      10.237  30.307  57.940  1.00  0.00    -0.356 OA
HETATM   17  C   UNL     1       9.911  29.786  56.656  1.00  0.00     0.210 C 
ENDBRANCH  12  16
ENDBRANCH   9  10
ENDBRANCH   6   9
ENDBRANCH   4   5
ENDBRANCH   3   4
ENDBRANCH   1   3
BRANCH   1  18
HETATM   18  S   UNL     1       6.314  27.608  54.240  1.00  0.00     0.241 S 
HETATM   19  O   UNL     1       6.039  28.282  52.991  1.00  0.00    -0.206 OA
HETATM   20  O   UNL     1       7.239  28.141  55.212  1.00  0.00    -0.206 OA
BRANCH  18  21
HETATM   21  C   UNL     1       6.755  25.935  53.864  1.00  0.00     0.075 A 
HETATM   22  C   UNL     1       6.808  24.993  54.891  1.00  0.00     0.034 A 
HETATM   23  C   UNL     1       7.235  23.666  54.654  1.00  0.00    -0.030 A 
HETATM   24  C   UNL     1       7.559  23.291  53.343  1.00  0.00     0.041 A 
HETATM   25  C   UNL     1       7.262  22.764  55.855  1.00  0.00     0.041 C 
HETATM   26  N   UNL     1       8.004  22.033  52.907  1.00  0.00    -0.327 N 
HETATM   27  C   UNL     1       7.455  24.252  52.313  1.00  0.00     0.031 A 
HETATM   28  C   UNL     1       8.294  20.854  53.506  1.00  0.00     0.222 C 
HETATM   29  H   UNL     1       8.190  21.949  51.913  1.00  0.00     0.169 HD
HETATM   30  O   UNL     1       8.672  19.931  52.776  1.00  0.00    -0.273 OA
HETATM   31  C   UNL     1       8.108  20.603  54.974  1.00  0.00     0.103 C 
HETATM   32  C   UNL     1       8.416  21.780  55.869  1.00  0.00     0.014 C 
HETATM   33  C   UNL     1       7.063  25.567  52.564  1.00  0.00     0.027 A 
ENDBRANCH  18  21
ENDBRANCH   1  18
TORSDOF 8
ENDMDL
MODEL 9
REMARK VINA RESULT:      -9.1      2.167      2.613
REMARK  8 active torsions:
REMARK  status: ('A' for Active; 'I' for Inactive)
REMARK    1  A    between atoms: O_2  and  C_3 
REMARK    2  A    between atoms: C_5  and  C_6 
REMARK    3  A    between atoms: C_6  and  N_7 
REMARK       I    between atoms: N_7  and  C_8 
REMARK    4  A    between atoms: C_8  and  C_9 
REMARK    5  A    between atoms: C_9  and  C_10 
REMARK    6  A    between atoms: C_10  and  N_11 
REMARK    7  A    between atoms: N_11  and  S_12 
REMARK    8  A    between atoms: S_12  and  C_13 
ROOT
HETATM    1  N   UNL     1       6.597  29.085  55.010  1.00  0.00    -0.215 NA
HETATM    2  H   UNL     1       7.331  28.556  55.485  1.00  0.00     0.139 HD
ENDROOT
BRANCH   1   3
HETATM    3  C   UNL     1       5.810  30.014  55.849  1.00  0.00     0.113 C 
BRANCH   3   4
HETATM    4  C   UNL     1       5.998  29.688  57.323  1.00  0.00     0.118 C 
BRANCH   4   5
HETATM    5  C   UNL     1       5.360  30.743  58.199  1.00  0.00     0.219 C 
HETATM    6  N   UNL     1       6.258  31.447  58.965  1.00  0.00    -0.357 N 
HETATM    7  H   UNL     1       7.242  31.359  58.751  1.00  0.00     0.162 HD
HETATM    8  O   UNL     1       4.153  30.951  58.201  1.00  0.00    -0.274 OA
BRANCH   6   9
HETATM    9  C   UNL     1       5.832  32.557  59.784  1.00  0.00     0.161 C 
BRANCH   9  10
HETATM   10  C   UNL     1       6.582  32.596  61.091  1.00  0.00    -0.038 A 
HETATM   11  C   UNL     1       6.124  33.402  62.150  1.00  0.00     0.045 A 
HETATM   12  C   UNL     1       6.804  33.442  63.368  1.00  0.00     0.068 A 
HETATM   13  C   UNL     1       7.953  32.669  63.531  1.00  0.00     0.037 A 
HETATM   14  C   UNL     1       8.421  31.866  62.489  1.00  0.00     0.003 A 
HETATM   15  C   UNL     1       7.738  31.830  61.274  1.00  0.00     0.009 A 
BRANCH  12  16
HETATM   16  O   UNL     1       6.450  34.188  64.459  1.00  0.00    -0.356 OA
HETATM   17  C   UNL     1       5.372  33.706  65.253  1.00  0.00     0.210 C 
ENDBRANCH  12  16
ENDBRANCH   9  10
ENDBRANCH   6   9
ENDBRANCH   4   5
ENDBRANCH   3   4
ENDBRANCH   1   3
BRANCH   1  18
HETATM   18  S   UNL     1       5.727  28.032  54.006  1.00  0.00     0.241 S 
HETATM   19  O   UNL     1       4.341  28.179  54.389  1.00  0.00    -0.206 OA
HETATM   20  O   UNL     1       6.178  28.260  52.653  1.00  0.00    -0.206 OA
BRANCH  18  21
HETATM   21  C   UNL     1       6.270  26.437  54.546  1.00  0.00     0.075 A 
HETATM   22  C   UNL     1       6.994  25.627  53.672  1.00  0.00     0.034 A 
HETATM   23  C   UNL     1       7.377  24.313  54.029  1.00  0.00    -0.030 A 
HETATM   24  C   UNL     1       7.058  23.848  55.313  1.00  0.00     0.041 A 
HETATM   25  C   UNL     1       8.136  23.547  52.983  1.00  0.00     0.041 C 
HETATM   26  N   UNL     1       7.345  22.583  55.850  1.00  0.00    -0.327 N 
HETATM   27  C   UNL     1       6.361  24.703  56.194  1.00  0.00     0.031 A 
HETATM   28  C   UNL     1       7.928  21.452  55.391  1.00  0.00     0.222 C 
HETATM   29  H   UNL     1       7.034  22.427  56.804  1.00  0.00     0.169 HD
HETATM   30  O   UNL     1       8.009  20.502  56.178  1.00  0.00    -0.273 OA
HETATM   31  C   UNL     1       8.534  21.329  54.024  1.00  0.00     0.103 C 
HETATM   32  C   UNL     1       7.802  22.068  52.929  1.00  0.00     0.014 C 
HETATM   33  C   UNL     1       5.961  25.986  55.820  1.00  0.00     0.027 A 
ENDBRANCH  18  21
ENDBRANCH   1  18
TORSDOF 8
ENDMDL
MODEL 10
REMARK VINA RESULT:      -9.0      2.547     10.452
REMARK  8 active torsions:
REMARK  status: ('A' for Active; 'I' for Inactive)
REMARK    1  A    between atoms: O_2  and  C_3 
REMARK    2  A    between atoms: C_5  and  C_6 
REMARK    3  A    between atoms: C_6  and  N_7 
REMARK       I    between atoms: N_7  and  C_8 
REMARK    4  A    between atoms: C_8  and  C_9 
REMARK    5  A    between atoms: C_9  and  C_10 
REMARK    6  A    between atoms: C_10  and  N_11 
REMARK    7  A    between atoms: N_11  and  S_12 
REMARK    8  A    between atoms: S_12  and  C_13 
ROOT
HETATM    1  N   UNL     1       5.602  27.713  55.227  1.00  0.00    -0.215 NA
HETATM    2  H   UNL     1       5.350  26.760  55.498  1.00  0.00     0.139 HD
ENDROOT
BRANCH   1   3
HETATM    3  C   UNL     1       5.141  28.159  53.894  1.00  0.00     0.113 C 
BRANCH   3   4
HETATM    4  C   UNL     1       4.605  26.980  53.095  1.00  0.00     0.118 C 
BRANCH   4   5
HETATM    5  C   UNL     1       5.722  26.255  52.379  1.00  0.00     0.219 C 
HETATM    6  N   UNL     1       6.765  25.894  53.198  1.00  0.00    -0.357 N 
HETATM    7  H   UNL     1       6.630  25.950  54.199  1.00  0.00     0.162 HD
HETATM    8  O   UNL     1       5.679  26.004  51.181  1.00  0.00    -0.274 OA
BRANCH   6   9
HETATM    9  C   UNL     1       7.868  25.107  52.700  1.00  0.00     0.161 C 
BRANCH   9  10
HETATM   10  C   UNL     1       7.918  23.751  53.356  1.00  0.00    -0.038 A 
HETATM   11  C   UNL     1       8.033  23.641  54.754  1.00  0.00     0.045 A 
HETATM   12  C   UNL     1       8.072  22.392  55.377  1.00  0.00     0.068 A 
HETATM   13  C   UNL     1       7.996  21.241  54.594  1.00  0.00     0.037 A 
HETATM   14  C   UNL     1       7.884  21.333  53.205  1.00  0.00     0.003 A 
HETATM   15  C   UNL     1       7.845  22.583  52.589  1.00  0.00     0.009 A 
BRANCH  12  16
HETATM   16  O   UNL     1       8.183  22.170  56.721  1.00  0.00    -0.356 OA
HETATM   17  C   UNL     1       8.574  20.866  57.134  1.00  0.00     0.210 C 
ENDBRANCH  12  16
ENDBRANCH   9  10
ENDBRANCH   6   9
ENDBRANCH   4   5
ENDBRANCH   3   4
ENDBRANCH   1   3
BRANCH   1  18
HETATM   18  S   UNL     1       7.235  27.974  55.601  1.00  0.00     0.241 S 
HETATM   19  O   UNL     1       7.695  26.755  56.228  1.00  0.00    -0.206 OA
HETATM   20  O   UNL     1       7.864  28.514  54.418  1.00  0.00    -0.206 OA
BRANCH  18  21
HETATM   21  C   UNL     1       7.156  29.226  56.849  1.00  0.00     0.075 A 
HETATM   22  C   UNL     1       8.261  29.447  57.670  1.00  0.00     0.034 A 
HETATM   23  C   UNL     1       8.216  30.378  58.733  1.00  0.00    -0.030 A 
HETATM   24  C   UNL     1       7.045  31.124  58.922  1.00  0.00     0.041 A 
HETATM   25  C   UNL     1       9.473  30.500  59.548  1.00  0.00     0.041 C 
HETATM   26  N   UNL     1       6.805  32.086  59.916  1.00  0.00    -0.327 N 
HETATM   27  C   UNL     1       5.954  30.912  58.050  1.00  0.00     0.031 A 
HETATM   28  C   UNL     1       7.500  32.579  60.967  1.00  0.00     0.222 C 
HETATM   29  H   UNL     1       5.890  32.525  59.894  1.00  0.00     0.169 HD
HETATM   30  O   UNL     1       6.948  33.450  61.648  1.00  0.00    -0.273 OA
HETATM   31  C   UNL     1       8.909  32.176  61.290  1.00  0.00     0.103 C 
HETATM   32  C   UNL     1       9.236  30.724  61.029  1.00  0.00     0.014 C 
HETATM   33  C   UNL     1       5.998  29.969  57.023  1.00  0.00     0.027 A 
ENDBRANCH  18  21
ENDBRANCH   1  18
TORSDOF 8
ENDMDL
