MODEL 1
REMARK VINA RESULT:     -10.0      0.000      0.000
REMARK  6 active torsions:
REMARK  status: ('A' for Active; 'I' for Inactive)
REMARK    1  A    between atoms: C_3  and  N_4 
REMARK       I    between atoms: N_4  and  C_5 
REMARK       I    between atoms: C_5  and  N_6 
REMARK    2  A    between atoms: N_6  and  N_7 
REMARK       I    between atoms: N_7  and  C_8 
REMARK    3  A    between atoms: C_8  and  C_9 
REMARK    4  A    between atoms: C_9  and  N_10 
REMARK       I    between atoms: N_10  and  C_11 
REMARK       I    between atoms: C_11  and  N_12 
REMARK    5  A    between atoms: N_12  and  C_13 
REMARK    6  A    between atoms: C_16  and  O_17 
ROOT
HETATM    1  N   UNL     1       7.626  27.483  57.328  1.00  0.00    -0.265 N 
HETATM    2  C   UNL     1       7.347  28.826  57.543  1.00  0.00     0.253 C 
HETATM    3  O   UNL     1       6.194  29.258  57.596  1.00  0.00    -0.270 OA
HETATM    4  H   UNL     1       8.508  27.134  57.724  1.00  0.00     0.190 HD
ENDROOT
BRANCH   2   5
HETATM    5  C   UNL     1       8.545  29.690  57.936  1.00  0.00     0.228 C 
BRANCH   5   6
HETATM    6  N   UNL     1       8.279  30.878  58.727  1.00  0.00    -0.334 N 
HETATM    7  C   UNL     1       9.250  31.737  59.117  1.00  0.00     0.321 C 
HETATM    8  N   UNL     1       8.952  32.625  60.102  1.00  0.00    -0.309 N 
HETATM    9  O   UNL     1      10.347  31.759  58.560  1.00  0.00    -0.247 OA
HETATM   10  H   UNL     1       9.664  33.339  60.192  1.00  0.00     0.170 HD
HETATM   11  H   UNL     1       7.331  31.229  58.763  1.00  0.00     0.164 HD
BRANCH   8  12
HETATM   12  C   UNL     1       7.966  32.614  61.112  1.00  0.00     0.036 A 
HETATM   13  C   UNL     1       6.596  32.754  60.886  1.00  0.00     0.032 A 
HETATM   14  C   UNL     1       5.690  32.685  61.951  1.00  0.00     0.039 A 
HETATM   15  C   UNL     1       6.129  32.445  63.252  1.00  0.00     0.068 A 
HETATM   16  C   UNL     1       7.493  32.296  63.486  1.00  0.00     0.039 A 
HETATM   17  C   UNL     1       8.402  32.376  62.421  1.00  0.00     0.032 A 
BRANCH  15  18
HETATM   18  O   UNL     1       5.138  32.382  64.190  1.00  0.00    -0.356 OA
HETATM   19  C   UNL     1       5.050  33.473  65.099  1.00  0.00     0.210 C 
ENDBRANCH  15  18
ENDBRANCH   8  12
ENDBRANCH   5   6
ENDBRANCH   2   5
BRANCH   1  20
HETATM   20  N   UNL     1       6.509  26.618  57.426  1.00  0.00    -0.249 N 
HETATM   21  C   UNL     1       6.380  25.492  56.641  1.00  0.00     0.339 C 
HETATM   22  N   UNL     1       7.574  24.999  56.172  1.00  0.00    -0.307 N 
HETATM   23  O   UNL     1       5.264  25.017  56.462  1.00  0.00    -0.245 OA
HETATM   24  H   UNL     1       8.376  25.484  56.541  1.00  0.00     0.170 HD
HETATM   25  H   UNL     1       5.616  27.083  57.599  1.00  0.00     0.192 HD
BRANCH  22  26
HETATM   26  C   UNL     1       7.784  23.879  55.339  1.00  0.00     0.042 A 
HETATM   27  C   UNL     1       7.854  24.068  53.941  1.00  0.00    -0.034 A 
HETATM   28  C   UNL     1       7.740  25.428  53.306  1.00  0.00     0.050 C 
HETATM   29  C   UNL     1       8.046  22.953  53.103  1.00  0.00     0.032 A 
HETATM   30  C   UNL     1       8.170  21.673  53.639  1.00  0.00     0.034 A 
HETATM   31  C   UNL     1       8.102  21.484  55.012  1.00  0.00     0.026 A 
HETATM   32 CL   UNL     1       8.405  20.325  52.597  1.00  0.00    -0.084 Cl
HETATM   33  C   UNL     1       7.909  22.582  55.855  1.00  0.00     0.032 A 
ENDBRANCH  22  26
ENDBRANCH   1  20
TORSDOF 6
ENDMDL
MODEL 2
REMARK VINA RESULT:      -9.8      4.033     11.131
REMARK  6 active torsions:
REMARK  status: ('A' for Active; 'I' for Inactive)
REMARK    1  A    between atoms: C_3  and  N_4 
REMARK       I    between atoms: N_4  and  C_5 
REMARK       I    between atoms: C_5  and  N_6 
REMARK    2  A    between atoms: N_6  and  N_7 
REMARK       I    between atoms: N_7  and  C_8 
REMARK    3  A    between atoms: C_8  and  C_9 
REMARK    4  A    between atoms: C_9  and  N_10 
REMARK       I    between atoms: N_10  and  C_11 
REMARK       I    between atoms: C_11  and  N_12 
REMARK    5  A    between atoms: N_12  and  C_13 
REMARK    6  A    between atoms: C_16  and  O_17 
ROOT
HETATM    1  N   UNL     1       7.742  29.842  58.298  1.00  0.00    -0.265 N 
HETATM    2  C   UNL     1       8.194  28.721  57.614  1.00  0.00     0.253 C 
HETATM    3  O   UNL     1       9.321  28.661  57.121  1.00  0.00    -0.270 OA
HETATM    4  H   UNL     1       7.033  29.676  59.023  1.00  0.00     0.190 HD
ENDROOT
BRANCH   2   5
HETATM    5  C   UNL     1       7.294  27.488  57.709  1.00  0.00     0.228 C 
BRANCH   5   6
HETATM    6  N   UNL     1       6.975  26.799  56.472  1.00  0.00    -0.334 N 
HETATM    7  C   UNL     1       5.707  26.517  56.090  1.00  0.00     0.321 C 
HETATM    8  N   UNL     1       5.533  25.607  55.096  1.00  0.00    -0.309 N 
HETATM    9  O   UNL     1       4.745  27.108  56.579  1.00  0.00    -0.247 OA
HETATM   10  H   UNL     1       4.580  25.603  54.753  1.00  0.00     0.170 HD
HETATM   11  H   UNL     1       7.679  26.764  55.746  1.00  0.00     0.164 HD
BRANCH   8  12
HETATM   12  C   UNL     1       6.360  24.569  54.614  1.00  0.00     0.036 A 
HETATM   13  C   UNL     1       6.748  24.416  53.283  1.00  0.00     0.032 A 
HETATM   14  C   UNL     1       7.610  23.377  52.908  1.00  0.00     0.039 A 
HETATM   15  C   UNL     1       8.123  22.495  53.858  1.00  0.00     0.068 A 
HETATM   16  C   UNL     1       7.749  22.645  55.190  1.00  0.00     0.039 A 
HETATM   17  C   UNL     1       6.877  23.678  55.564  1.00  0.00     0.032 A 
BRANCH  15  18
HETATM   18  O   UNL     1       8.967  21.543  53.360  1.00  0.00    -0.356 OA
HETATM   19  C   UNL     1       8.366  20.351  52.870  1.00  0.00     0.210 C 
ENDBRANCH  15  18
ENDBRANCH   8  12
ENDBRANCH   5   6
ENDBRANCH   2   5
BRANCH   1  20
HETATM   20  N   UNL     1       8.742  30.797  58.604  1.00  0.00    -0.249 N 
HETATM   21  C   UNL     1       8.596  31.713  59.625  1.00  0.00     0.339 C 
HETATM   22  N   UNL     1       7.717  31.319  60.605  1.00  0.00    -0.307 N 
HETATM   23  O   UNL     1       9.260  32.742  59.599  1.00  0.00    -0.245 OA
HETATM   24  H   UNL     1       7.372  30.381  60.477  1.00  0.00     0.170 HD
HETATM   25  H   UNL     1       9.234  31.181  57.796  1.00  0.00     0.192 HD
BRANCH  22  26
HETATM   26  C   UNL     1       7.337  32.028  61.766  1.00  0.00     0.042 A 
HETATM   27  C   UNL     1       6.092  32.694  61.786  1.00  0.00    -0.034 A 
HETATM   28  C   UNL     1       5.139  32.653  60.622  1.00  0.00     0.050 C 
HETATM   29  C   UNL     1       5.715  33.416  62.934  1.00  0.00     0.032 A 
HETATM   30  C   UNL     1       6.554  33.476  64.044  1.00  0.00     0.034 A 
HETATM   31  C   UNL     1       7.779  32.822  64.028  1.00  0.00     0.026 A 
HETATM   32 CL   UNL     1       6.073  34.363  65.437  1.00  0.00    -0.084 Cl
HETATM   33  C   UNL     1       8.166  32.104  62.894  1.00  0.00     0.032 A 
ENDBRANCH  22  26
ENDBRANCH   1  20
TORSDOF 6
ENDMDL
MODEL 3
REMARK VINA RESULT:      -9.8      4.057     10.802
REMARK  6 active torsions:
REMARK  status: ('A' for Active; 'I' for Inactive)
REMARK    1  A    between atoms: C_3  and  N_4 
REMARK       I    between atoms: N_4  and  C_5 
REMARK       I    between atoms: C_5  and  N_6 
REMARK    2  A    between atoms: N_6  and  N_7 
REMARK       I    between atoms: N_7  and  C_8 
REMARK    3  A    between atoms: C_8  and  C_9 
REMARK    4  A    between atoms: C_9  and  N_10 
REMARK       I    between atoms: N_10  and  C_11 
REMARK       I    between atoms: C_11  and  N_12 
REMARK    5  A    between atoms: N_12  and  C_13 
REMARK    6  A    between atoms: C_16  and  O_17 
ROOT
HETATM    1  N   UNL     1       7.214  28.805  57.631  1.00  0.00    -0.265 N 
HETATM    2  C   UNL     1       7.139  28.048  56.469  1.00  0.00     0.253 C 
HETATM    3  O   UNL     1       7.941  28.183  55.543  1.00  0.00    -0.270 OA
HETATM    4  H   UNL     1       6.841  28.366  58.483  1.00  0.00     0.190 HD
ENDROOT
BRANCH   2   5
HETATM    5  C   UNL     1       6.145  26.887  56.506  1.00  0.00     0.228 C 
BRANCH   5   6
HETATM    6  N   UNL     1       6.666  25.575  56.843  1.00  0.00    -0.334 N 
HETATM    7  C   UNL     1       7.708  25.389  57.687  1.00  0.00     0.321 C 
HETATM    8  N   UNL     1       8.314  24.172  57.688  1.00  0.00    -0.309 N 
HETATM    9  O   UNL     1       8.060  26.268  58.473  1.00  0.00    -0.247 OA
HETATM   10  H   UNL     1       8.946  24.068  58.472  1.00  0.00     0.170 HD
HETATM   11  H   UNL     1       6.083  24.767  56.667  1.00  0.00     0.164 HD
BRANCH   8  12
HETATM   12  C   UNL     1       8.366  23.146  56.720  1.00  0.00     0.036 A 
HETATM   13  C   UNL     1       8.656  23.343  55.369  1.00  0.00     0.032 A 
HETATM   14  C   UNL     1       8.728  22.253  54.492  1.00  0.00     0.039 A 
HETATM   15  C   UNL     1       8.542  20.950  54.951  1.00  0.00     0.068 A 
HETATM   16  C   UNL     1       8.260  20.743  56.298  1.00  0.00     0.039 A 
HETATM   17  C   UNL     1       8.177  21.835  57.175  1.00  0.00     0.032 A 
BRANCH  15  18
HETATM   18  O   UNL     1       8.660  19.982  53.994  1.00  0.00    -0.356 OA
HETATM   19  C   UNL     1       8.366  20.368  52.656  1.00  0.00     0.210 C 
ENDBRANCH  15  18
ENDBRANCH   8  12
ENDBRANCH   5   6
ENDBRANCH   2   5
BRANCH   1  20
HETATM   20  N   UNL     1       8.409  29.550  57.781  1.00  0.00    -0.249 N 
HETATM   21  C   UNL     1       8.526  30.575  58.698  1.00  0.00     0.339 C 
HETATM   22  N   UNL     1       7.654  30.478  59.756  1.00  0.00    -0.307 N 
HETATM   23  O   UNL     1       9.385  31.431  58.525  1.00  0.00    -0.245 OA
HETATM   24  H   UNL     1       7.115  29.627  59.750  1.00  0.00     0.170 HD
HETATM   25  H   UNL     1       8.913  29.738  56.913  1.00  0.00     0.192 HD
BRANCH  22  26
HETATM   26  C   UNL     1       7.510  31.364  60.845  1.00  0.00     0.042 A 
HETATM   27  C   UNL     1       8.372  31.231  61.956  1.00  0.00    -0.034 A 
HETATM   28  C   UNL     1       9.461  30.192  62.009  1.00  0.00     0.050 C 
HETATM   29  C   UNL     1       8.223  32.100  63.053  1.00  0.00     0.032 A 
HETATM   30  C   UNL     1       7.240  33.087  63.050  1.00  0.00     0.034 A 
HETATM   31  C   UNL     1       6.391  33.222  61.960  1.00  0.00     0.026 A 
HETATM   32 CL   UNL     1       7.076  34.140  64.400  1.00  0.00    -0.084 Cl
HETATM   33  C   UNL     1       6.527  32.363  60.866  1.00  0.00     0.032 A 
ENDBRANCH  22  26
ENDBRANCH   1  20
TORSDOF 6
ENDMDL
MODEL 4
REMARK VINA RESULT:      -9.7      1.649      2.313
REMARK  6 active torsions:
REMARK  status: ('A' for Active; 'I' for Inactive)
REMARK    1  A    between atoms: C_3  and  N_4 
REMARK       I    between atoms: N_4  and  C_5 
REMARK       I    between atoms: C_5  and  N_6 
REMARK    2  A    between atoms: N_6  and  N_7 
REMARK       I    between atoms: N_7  and  C_8 
REMARK    3  A    between atoms: C_8  and  C_9 
REMARK    4  A    between atoms: C_9  and  N_10 
REMARK       I    between atoms: N_10  and  C_11 
REMARK       I    between atoms: C_11  and  N_12 
REMARK    5  A    between atoms: N_12  and  C_13 
REMARK    6  A    between atoms: C_16  and  O_17 
ROOT
HETATM    1  N   UNL     1       7.984  28.969  54.882  1.00  0.00    -0.265 N 
HETATM    2  C   UNL     1       7.494  29.423  56.100  1.00  0.00     0.253 C 
HETATM    3  O   UNL     1       6.299  29.660  56.282  1.00  0.00    -0.270 OA
HETATM    4  H   UNL     1       8.835  28.393  54.922  1.00  0.00     0.190 HD
ENDROOT
BRANCH   2   5
HETATM    5  C   UNL     1       8.490  29.390  57.260  1.00  0.00     0.228 C 
BRANCH   5   6
HETATM    6  N   UNL     1       8.550  30.558  58.120  1.00  0.00    -0.334 N 
HETATM    7  C   UNL     1       9.700  31.225  58.378  1.00  0.00     0.321 C 
HETATM    8  N   UNL     1       9.707  32.092  59.425  1.00  0.00    -0.309 N 
HETATM    9  O   UNL     1      10.688  31.102  57.656  1.00  0.00    -0.247 OA
HETATM   10  H   UNL     1      10.535  32.675  59.424  1.00  0.00     0.170 HD
HETATM   11  H   UNL     1       7.691  31.054  58.317  1.00  0.00     0.164 HD
BRANCH   8  12
HETATM   12  C   UNL     1       8.897  32.182  60.578  1.00  0.00     0.036 A 
HETATM   13  C   UNL     1       9.275  31.751  61.850  1.00  0.00     0.032 A 
HETATM   14  C   UNL     1       8.416  31.924  62.943  1.00  0.00     0.039 A 
HETATM   15  C   UNL     1       7.182  32.555  62.792  1.00  0.00     0.068 A 
HETATM   16  C   UNL     1       6.800  32.997  61.528  1.00  0.00     0.039 A 
HETATM   17  C   UNL     1       7.655  32.813  60.431  1.00  0.00     0.032 A 
BRANCH  15  18
HETATM   18  O   UNL     1       6.455  32.677  63.942  1.00  0.00    -0.356 OA
HETATM   19  C   UNL     1       5.099  33.083  63.799  1.00  0.00     0.210 C 
ENDBRANCH  15  18
ENDBRANCH   8  12
ENDBRANCH   5   6
ENDBRANCH   2   5
BRANCH   1  20
HETATM   20  N   UNL     1       6.993  28.561  53.956  1.00  0.00    -0.249 N 
HETATM   21  C   UNL     1       6.911  27.265  53.490  1.00  0.00     0.339 C 
HETATM   22  N   UNL     1       7.472  26.334  54.330  1.00  0.00    -0.307 N 
HETATM   23  O   UNL     1       6.336  27.051  52.429  1.00  0.00    -0.245 OA
HETATM   24  H   UNL     1       7.786  26.725  55.204  1.00  0.00     0.170 HD
HETATM   25  H   UNL     1       6.757  29.253  53.244  1.00  0.00     0.192 HD
BRANCH  22  26
HETATM   26  C   UNL     1       7.566  24.939  54.139  1.00  0.00     0.042 A 
HETATM   27  C   UNL     1       7.356  24.080  55.241  1.00  0.00    -0.034 A 
HETATM   28  C   UNL     1       7.006  24.600  56.610  1.00  0.00     0.050 C 
HETATM   29  C   UNL     1       7.464  22.688  55.062  1.00  0.00     0.032 A 
HETATM   30  C   UNL     1       7.773  22.154  53.813  1.00  0.00     0.034 A 
HETATM   31  C   UNL     1       7.981  22.994  52.728  1.00  0.00     0.026 A 
HETATM   32 CL   UNL     1       7.900  20.450  53.616  1.00  0.00    -0.084 Cl
HETATM   33  C   UNL     1       7.878  24.378  52.893  1.00  0.00     0.032 A 
ENDBRANCH  22  26
ENDBRANCH   1  20
TORSDOF 6
ENDMDL
MODEL 5
REMARK VINA RESULT:      -9.6      4.072     11.016
REMARK  6 active torsions:
REMARK  status: ('A' for Active; 'I' for Inactive)
REMARK    1  A    between atoms: C_3  and  N_4 
REMARK       I    between atoms: N_4  and  C_5 
REMARK       I    between atoms: C_5  and  N_6 
REMARK    2  A    between atoms: N_6  and  N_7 
REMARK       I    between atoms: N_7  and  C_8 
REMARK    3  A    between atoms: C_8  and  C_9 
REMARK    4  A    between atoms: C_9  and  N_10 
REMARK       I    between atoms: N_10  and  C_11 
REMARK       I    between atoms: C_11  and  N_12 
REMARK    5  A    between atoms: N_12  and  C_13 
REMARK    6  A    between atoms: C_16  and  O_17 
ROOT
HETATM    1  N   UNL     1       7.315  29.752  57.594  1.00  0.00    -0.265 N 
HETATM    2  C   UNL     1       7.326  29.088  56.375  1.00  0.00     0.253 C 
HETATM    3  O   UNL     1       8.207  29.273  55.533  1.00  0.00    -0.270 OA
HETATM    4  H   UNL     1       6.862  29.260  58.375  1.00  0.00     0.190 HD
ENDROOT
BRANCH   2   5
HETATM    5  C   UNL     1       6.313  27.951  56.238  1.00  0.00     0.228 C 
BRANCH   5   6
HETATM    6  N   UNL     1       6.589  26.929  55.245  1.00  0.00    -0.334 N 
HETATM    7  C   UNL     1       5.678  26.524  54.329  1.00  0.00     0.321 C 
HETATM    8  N   UNL     1       5.918  25.363  53.666  1.00  0.00    -0.309 N 
HETATM    9  O   UNL     1       4.694  27.212  54.058  1.00  0.00    -0.247 OA
HETATM   10  H   UNL     1       5.291  25.242  52.880  1.00  0.00     0.170 HD
HETATM   11  H   UNL     1       7.555  26.700  55.047  1.00  0.00     0.164 HD
BRANCH   8  12
HETATM   12  C   UNL     1       6.722  24.247  53.984  1.00  0.00     0.036 A 
HETATM   13  C   UNL     1       6.849  23.698  55.261  1.00  0.00     0.032 A 
HETATM   14  C   UNL     1       7.638  22.560  55.469  1.00  0.00     0.039 A 
HETATM   15  C   UNL     1       8.288  21.933  54.407  1.00  0.00     0.068 A 
HETATM   16  C   UNL     1       8.161  22.469  53.129  1.00  0.00     0.039 A 
HETATM   17  C   UNL     1       7.380  23.615  52.921  1.00  0.00     0.032 A 
BRANCH  15  18
HETATM   18  O   UNL     1       9.007  20.822  54.748  1.00  0.00    -0.356 OA
HETATM   19  C   UNL     1       8.561  20.100  55.889  1.00  0.00     0.210 C 
ENDBRANCH  15  18
ENDBRANCH   8  12
ENDBRANCH   5   6
ENDBRANCH   2   5
BRANCH   1  20
HETATM   20  N   UNL     1       8.505  30.456  57.901  1.00  0.00    -0.249 N 
HETATM   21  C   UNL     1       8.580  31.351  58.949  1.00  0.00     0.339 C 
HETATM   22  N   UNL     1       7.653  31.129  59.939  1.00  0.00    -0.307 N 
HETATM   23  O   UNL     1       9.453  32.211  58.933  1.00  0.00    -0.245 OA
HETATM   24  H   UNL     1       7.110  30.294  59.795  1.00  0.00     0.170 HD
HETATM   25  H   UNL     1       9.055  30.748  57.092  1.00  0.00     0.192 HD
BRANCH  22  26
HETATM   26  C   UNL     1       7.458  31.868  61.125  1.00  0.00     0.042 A 
HETATM   27  C   UNL     1       8.186  31.513  62.282  1.00  0.00    -0.034 A 
HETATM   28  C   UNL     1       9.187  30.388  62.289  1.00  0.00     0.050 C 
HETATM   29  C   UNL     1       7.984  32.235  63.474  1.00  0.00     0.032 A 
HETATM   30  C   UNL     1       7.079  33.293  63.519  1.00  0.00     0.034 A 
HETATM   31  C   UNL     1       6.362  33.646  62.384  1.00  0.00     0.026 A 
HETATM   32 CL   UNL     1       6.848  34.163  64.985  1.00  0.00    -0.084 Cl
HETATM   33  C   UNL     1       6.551  32.935  61.196  1.00  0.00     0.032 A 
ENDBRANCH  22  26
ENDBRANCH   1  20
TORSDOF 6
ENDMDL
MODEL 6
REMARK VINA RESULT:      -9.1      1.485      2.103
REMARK  6 active torsions:
REMARK  status: ('A' for Active; 'I' for Inactive)
REMARK    1  A    between atoms: C_3  and  N_4 
REMARK       I    between atoms: N_4  and  C_5 
REMARK       I    between atoms: C_5  and  N_6 
REMARK    2  A    between atoms: N_6  and  N_7 
REMARK       I    between atoms: N_7  and  C_8 
REMARK    3  A    between atoms: C_8  and  C_9 
REMARK    4  A    between atoms: C_9  and  N_10 
REMARK       I    between atoms: N_10  and  C_11 
REMARK       I    between atoms: C_11  and  N_12 
REMARK    5  A    between atoms: N_12  and  C_13 
REMARK    6  A    between atoms: C_16  and  O_17 
ROOT
HETATM    1  N   UNL     1       6.068  28.463  56.871  1.00  0.00    -0.265 N 
HETATM    2  C   UNL     1       5.566  29.677  57.321  1.00  0.00     0.253 C 
HETATM    3  O   UNL     1       4.473  29.770  57.882  1.00  0.00    -0.270 OA
HETATM    4  H   UNL     1       7.092  28.381  56.837  1.00  0.00     0.190 HD
ENDROOT
BRANCH   2   5
HETATM    5  C   UNL     1       6.549  30.848  57.283  1.00  0.00     0.228 C 
BRANCH   5   6
HETATM    6  N   UNL     1       7.297  31.129  58.495  1.00  0.00    -0.334 N 
HETATM    7  C   UNL     1       8.034  30.195  59.140  1.00  0.00     0.321 C 
HETATM    8  N   UNL     1       8.428  30.467  60.412  1.00  0.00    -0.309 N 
HETATM    9  O   UNL     1       8.389  29.159  58.579  1.00  0.00    -0.247 OA
HETATM   10  H   UNL     1       9.122  29.806  60.740  1.00  0.00     0.170 HD
HETATM   11  H   UNL     1       7.501  32.094  58.720  1.00  0.00     0.164 HD
BRANCH   8  12
HETATM   12  C   UNL     1       7.917  31.351  61.387  1.00  0.00     0.036 A 
HETATM   13  C   UNL     1       8.550  31.656  62.593  1.00  0.00     0.032 A 
HETATM   14  C   UNL     1       7.984  32.582  63.478  1.00  0.00     0.039 A 
HETATM   15  C   UNL     1       6.796  33.241  63.163  1.00  0.00     0.068 A 
HETATM   16  C   UNL     1       6.162  32.950  61.959  1.00  0.00     0.039 A 
HETATM   17  C   UNL     1       6.723  32.015  61.077  1.00  0.00     0.032 A 
BRANCH  15  18
HETATM   18  O   UNL     1       6.367  34.132  64.106  1.00  0.00    -0.356 OA
HETATM   19  C   UNL     1       6.741  33.867  65.452  1.00  0.00     0.210 C 
ENDBRANCH  15  18
ENDBRANCH   8  12
ENDBRANCH   5   6
ENDBRANCH   2   5
BRANCH   1  20
HETATM   20  N   UNL     1       5.362  27.322  57.322  1.00  0.00    -0.249 N 
HETATM   21  C   UNL     1       5.545  26.074  56.762  1.00  0.00     0.339 C 
HETATM   22  N   UNL     1       6.764  25.913  56.147  1.00  0.00    -0.307 N 
HETATM   23  O   UNL     1       4.663  25.232  56.884  1.00  0.00    -0.245 OA
HETATM   24  H   UNL     1       7.378  26.702  56.269  1.00  0.00     0.170 HD
HETATM   25  H   UNL     1       4.393  27.493  57.595  1.00  0.00     0.192 HD
BRANCH  22  26
HETATM   26  C   UNL     1       7.251  24.774  55.472  1.00  0.00     0.042 A 
HETATM   27  C   UNL     1       8.283  24.014  56.065  1.00  0.00    -0.034 A 
HETATM   28  C   UNL     1       8.865  24.360  57.409  1.00  0.00     0.050 C 
HETATM   29  C   UNL     1       8.785  22.886  55.389  1.00  0.00     0.032 A 
HETATM   30  C   UNL     1       8.273  22.514  54.148  1.00  0.00     0.034 A 
HETATM   31  C   UNL     1       7.259  23.258  53.562  1.00  0.00     0.026 A 
HETATM   32 CL   UNL     1       8.901  21.131  53.341  1.00  0.00    -0.084 Cl
HETATM   33  C   UNL     1       6.753  24.381  54.221  1.00  0.00     0.032 A 
ENDBRANCH  22  26
ENDBRANCH   1  20
TORSDOF 6
ENDMDL
MODEL 7
REMARK VINA RESULT:      -9.0      4.156     10.805
REMARK  6 active torsions:
REMARK  status: ('A' for Active; 'I' for Inactive)
REMARK    1  A    between atoms: C_3  and  N_4 
REMARK       I    between atoms: N_4  and  C_5 
REMARK       I    between atoms: C_5  and  N_6 
REMARK    2  A    between atoms: N_6  and  N_7 
REMARK       I    between atoms: N_7  and  C_8 
REMARK    3  A    between atoms: C_8  and  C_9 
REMARK    4  A    between atoms: C_9  and  N_10 
REMARK       I    between atoms: N_10  and  C_11 
REMARK       I    between atoms: C_11  and  N_12 
REMARK    5  A    between atoms: N_12  and  C_13 
REMARK    6  A    between atoms: C_16  and  O_17 
ROOT
HETATM    1  N   UNL     1       8.018  29.061  58.001  1.00  0.00    -0.265 N 
HETATM    2  C   UNL     1       7.080  28.064  57.769  1.00  0.00     0.253 C 
HETATM    3  O   UNL     1       5.901  28.315  57.515  1.00  0.00    -0.270 OA
HETATM    4  H   UNL     1       8.992  28.832  57.766  1.00  0.00     0.190 HD
ENDROOT
BRANCH   2   5
HETATM    5  C   UNL     1       7.648  26.652  57.621  1.00  0.00     0.228 C 
BRANCH   5   6
HETATM    6  N   UNL     1       7.075  25.807  56.589  1.00  0.00    -0.334 N 
HETATM    7  C   UNL     1       7.508  24.549  56.341  1.00  0.00     0.321 C 
HETATM    8  N   UNL     1       7.134  23.970  55.170  1.00  0.00    -0.309 N 
HETATM    9  O   UNL     1       8.168  23.923  57.170  1.00  0.00    -0.247 OA
HETATM   10  H   UNL     1       7.341  22.979  55.158  1.00  0.00     0.170 HD
HETATM   11  H   UNL     1       6.162  26.046  56.226  1.00  0.00     0.164 HD
BRANCH   8  12
HETATM   12  C   UNL     1       6.706  24.521  53.942  1.00  0.00     0.036 A 
HETATM   13  C   UNL     1       7.543  24.793  52.860  1.00  0.00     0.032 A 
HETATM   14  C   UNL     1       7.016  25.300  51.665  1.00  0.00     0.039 A 
HETATM   15  C   UNL     1       5.646  25.513  51.519  1.00  0.00     0.068 A 
HETATM   16  C   UNL     1       4.802  25.236  52.590  1.00  0.00     0.039 A 
HETATM   17  C   UNL     1       5.330  24.739  53.791  1.00  0.00     0.032 A 
BRANCH  15  18
HETATM   18  O   UNL     1       5.266  25.990  50.296  1.00  0.00    -0.356 OA
HETATM   19  C   UNL     1       4.703  27.296  50.267  1.00  0.00     0.210 C 
ENDBRANCH  15  18
ENDBRANCH   8  12
ENDBRANCH   5   6
ENDBRANCH   2   5
BRANCH   1  20
HETATM   20  N   UNL     1       7.586  30.371  57.681  1.00  0.00    -0.249 N 
HETATM   21  C   UNL     1       7.221  31.283  58.650  1.00  0.00     0.339 C 
HETATM   22  N   UNL     1       7.778  31.039  59.883  1.00  0.00    -0.307 N 
HETATM   23  O   UNL     1       6.492  32.218  58.341  1.00  0.00    -0.245 OA
HETATM   24  H   UNL     1       8.439  30.279  59.877  1.00  0.00     0.170 HD
HETATM   25  H   UNL     1       7.017  30.445  56.836  1.00  0.00     0.192 HD
BRANCH  22  26
HETATM   26  C   UNL     1       7.595  31.769  61.077  1.00  0.00     0.042 A 
HETATM   27  C   UNL     1       8.322  31.393  62.228  1.00  0.00    -0.034 A 
HETATM   28  C   UNL     1       9.310  30.257  62.220  1.00  0.00     0.050 C 
HETATM   29  C   UNL     1       8.132  32.106  63.427  1.00  0.00     0.032 A 
HETATM   30  C   UNL     1       7.239  33.174  63.486  1.00  0.00     0.034 A 
HETATM   31  C   UNL     1       6.523  33.546  62.357  1.00  0.00     0.026 A 
HETATM   32 CL   UNL     1       7.023  34.032  64.961  1.00  0.00    -0.084 Cl
HETATM   33  C   UNL     1       6.701  32.845  61.161  1.00  0.00     0.032 A 
ENDBRANCH  22  26
ENDBRANCH   1  20
TORSDOF 6
ENDMDL
MODEL 8
REMARK VINA RESULT:      -8.9      1.812      2.739
REMARK  6 active torsions:
REMARK  status: ('A' for Active; 'I' for Inactive)
REMARK    1  A    between atoms: C_3  and  N_4 
REMARK       I    between atoms: N_4  and  C_5 
REMARK       I    between atoms: C_5  and  N_6 
REMARK    2  A    between atoms: N_6  and  N_7 
REMARK       I    between atoms: N_7  and  C_8 
REMARK    3  A    between atoms: C_8  and  C_9 
REMARK    4  A    between atoms: C_9  and  N_10 
REMARK       I    between atoms: N_10  and  C_11 
REMARK       I    between atoms: C_11  and  N_12 
REMARK    5  A    between atoms: N_12  and  C_13 
REMARK    6  A    between atoms: C_16  and  O_17 
ROOT
HETATM    1  N   UNL     1       7.350  29.785  57.998  1.00  0.00    -0.265 N 
HETATM    2  C   UNL     1       7.208  31.088  58.456  1.00  0.00     0.253 C 
HETATM    3  O   UNL     1       6.112  31.647  58.520  1.00  0.00    -0.270 OA
HETATM    4  H   UNL     1       8.148  29.257  58.373  1.00  0.00     0.190 HD
ENDROOT
BRANCH   2   5
HETATM    5  C   UNL     1       8.459  31.701  59.087  1.00  0.00     0.228 C 
BRANCH   5   6
HETATM    6  N   UNL     1       8.423  31.968  60.513  1.00  0.00    -0.334 N 
HETATM    7  C   UNL     1       8.692  31.025  61.447  1.00  0.00     0.321 C 
HETATM    8  N   UNL     1       8.327  31.282  62.731  1.00  0.00    -0.309 N 
HETATM    9  O   UNL     1       9.301  29.995  61.160  1.00  0.00    -0.247 OA
HETATM   10  H   UNL     1       8.733  30.617  63.377  1.00  0.00     0.170 HD
HETATM   11  H   UNL     1       8.466  32.930  60.824  1.00  0.00     0.164 HD
BRANCH   8  12
HETATM   12  C   UNL     1       7.362  32.156  63.277  1.00  0.00     0.036 A 
HETATM   13  C   UNL     1       5.989  32.069  63.044  1.00  0.00     0.032 A 
HETATM   14  C   UNL     1       5.105  32.958  63.669  1.00  0.00     0.039 A 
HETATM   15  C   UNL     1       5.570  33.926  64.557  1.00  0.00     0.068 A 
HETATM   16  C   UNL     1       6.937  34.015  64.802  1.00  0.00     0.039 A 
HETATM   17  C   UNL     1       7.824  33.132  64.169  1.00  0.00     0.032 A 
BRANCH  15  18
HETATM   18  O   UNL     1       4.599  34.712  65.110  1.00  0.00    -0.356 OA
HETATM   19  C   UNL     1       3.698  35.343  64.208  1.00  0.00     0.210 C 
ENDBRANCH  15  18
ENDBRANCH   8  12
ENDBRANCH   5   6
ENDBRANCH   2   5
BRANCH   1  20
HETATM   20  N   UNL     1       6.137  29.069  57.853  1.00  0.00    -0.249 N 
HETATM   21  C   UNL     1       5.994  28.041  56.943  1.00  0.00     0.339 C 
HETATM   22  N   UNL     1       7.179  27.439  56.592  1.00  0.00    -0.307 N 
HETATM   23  O   UNL     1       4.870  27.734  56.566  1.00  0.00    -0.245 OA
HETATM   24  H   UNL     1       7.969  27.781  57.115  1.00  0.00     0.170 HD
HETATM   25  H   UNL     1       5.289  29.630  57.951  1.00  0.00     0.192 HD
BRANCH  22  26
HETATM   26  C   UNL     1       7.377  26.378  55.682  1.00  0.00     0.042 A 
HETATM   27  C   UNL     1       7.883  25.150  56.161  1.00  0.00    -0.034 A 
HETATM   28  C   UNL     1       8.194  24.920  57.616  1.00  0.00     0.050 C 
HETATM   29  C   UNL     1       8.099  24.093  55.256  1.00  0.00     0.032 A 
HETATM   30  C   UNL     1       7.815  24.248  53.901  1.00  0.00     0.034 A 
HETATM   31  C   UNL     1       7.317  25.454  53.427  1.00  0.00     0.026 A 
HETATM   32 CL   UNL     1       8.085  22.943  52.813  1.00  0.00    -0.084 Cl
HETATM   33  C   UNL     1       7.101  26.512  54.314  1.00  0.00     0.032 A 
ENDBRANCH  22  26
ENDBRANCH   1  20
TORSDOF 6
ENDMDL
MODEL 9
REMARK VINA RESULT:      -8.6      2.147      3.370
REMARK  6 active torsions:
REMARK  status: ('A' for Active; 'I' for Inactive)
REMARK    1  A    between atoms: C_3  and  N_4 
REMARK       I    between atoms: N_4  and  C_5 
REMARK       I    between atoms: C_5  and  N_6 
REMARK    2  A    between atoms: N_6  and  N_7 
REMARK       I    between atoms: N_7  and  C_8 
REMARK    3  A    between atoms: C_8  and  C_9 
REMARK    4  A    between atoms: C_9  and  N_10 
REMARK       I    between atoms: N_10  and  C_11 
REMARK       I    between atoms: C_11  and  N_12 
REMARK    5  A    between atoms: N_12  and  C_13 
REMARK    6  A    between atoms: C_16  and  O_17 
ROOT
HETATM    1  N   UNL     1       7.810  29.718  59.200  1.00  0.00    -0.265 N 
HETATM    2  C   UNL     1       8.979  30.371  59.568  1.00  0.00     0.253 C 
HETATM    3  O   UNL     1       9.810  30.749  58.741  1.00  0.00    -0.270 OA
HETATM    4  H   UNL     1       7.007  29.833  59.832  1.00  0.00     0.190 HD
ENDROOT
BRANCH   2   5
HETATM    5  C   UNL     1       9.060  30.792  61.036  1.00  0.00     0.228 C 
BRANCH   5   6
HETATM    6  N   UNL     1       7.897  31.447  61.606  1.00  0.00    -0.334 N 
HETATM    7  C   UNL     1       7.268  32.486  61.008  1.00  0.00     0.321 C 
HETATM    8  N   UNL     1       6.406  33.221  61.758  1.00  0.00    -0.309 N 
HETATM    9  O   UNL     1       7.420  32.722  59.810  1.00  0.00    -0.247 OA
HETATM   10  H   UNL     1       5.848  33.845  61.187  1.00  0.00     0.170 HD
HETATM   11  H   UNL     1       7.375  30.960  62.323  1.00  0.00     0.164 HD
BRANCH   8  12
HETATM   12  C   UNL     1       6.294  33.406  63.153  1.00  0.00     0.036 A 
HETATM   13  C   UNL     1       7.375  33.537  64.026  1.00  0.00     0.032 A 
HETATM   14  C   UNL     1       7.162  33.761  65.392  1.00  0.00     0.039 A 
HETATM   15  C   UNL     1       5.872  33.890  65.904  1.00  0.00     0.068 A 
HETATM   16  C   UNL     1       4.787  33.769  65.040  1.00  0.00     0.039 A 
HETATM   17  C   UNL     1       5.000  33.533  63.674  1.00  0.00     0.032 A 
BRANCH  15  18
HETATM   18  O   UNL     1       5.809  34.127  67.248  1.00  0.00    -0.356 OA
HETATM   19  C   UNL     1       4.518  34.083  67.844  1.00  0.00     0.210 C 
ENDBRANCH  15  18
ENDBRANCH   8  12
ENDBRANCH   5   6
ENDBRANCH   2   5
BRANCH   1  20
HETATM   20  N   UNL     1       7.524  29.744  57.813  1.00  0.00    -0.249 N 
HETATM   21  C   UNL     1       7.614  28.616  57.023  1.00  0.00     0.339 C 
HETATM   22  N   UNL     1       7.481  27.438  57.717  1.00  0.00    -0.307 N 
HETATM   23  O   UNL     1       7.760  28.748  55.813  1.00  0.00    -0.245 OA
HETATM   24  H   UNL     1       7.252  27.572  58.689  1.00  0.00     0.170 HD
HETATM   25  H   UNL     1       7.821  30.591  57.326  1.00  0.00     0.192 HD
BRANCH  22  26
HETATM   26  C   UNL     1       7.538  26.121  57.211  1.00  0.00     0.042 A 
HETATM   27  C   UNL     1       6.396  25.577  56.583  1.00  0.00    -0.034 A 
HETATM   28  C   UNL     1       5.124  26.363  56.408  1.00  0.00     0.050 C 
HETATM   29  C   UNL     1       6.442  24.259  56.090  1.00  0.00     0.032 A 
HETATM   30  C   UNL     1       7.598  23.493  56.215  1.00  0.00     0.034 A 
HETATM   31  C   UNL     1       8.723  24.024  56.831  1.00  0.00     0.026 A 
HETATM   32 CL   UNL     1       7.632  21.885  55.605  1.00  0.00    -0.084 Cl
HETATM   33  C   UNL     1       8.690  25.330  57.326  1.00  0.00     0.032 A 
ENDBRANCH  22  26
ENDBRANCH   1  20
TORSDOF 6
ENDMDL
MODEL 10
REMARK VINA RESULT:      -8.5      4.918     10.436
REMARK  6 active torsions:
REMARK  status: ('A' for Active; 'I' for Inactive)
REMARK    1  A    between atoms: C_3  and  N_4 
REMARK       I    between atoms: N_4  and  C_5 
REMARK       I    between atoms: C_5  and  N_6 
REMARK    2  A    between atoms: N_6  and  N_7 
REMARK       I    between atoms: N_7  and  C_8 
REMARK    3  A    between atoms: C_8  and  C_9 
REMARK    4  A    between atoms: C_9  and  N_10 
REMARK       I    between atoms: N_10  and  C_11 
REMARK       I    between atoms: C_11  and  N_12 
REMARK    5  A    between atoms: N_12  and  C_13 
REMARK    6  A    between atoms: C_16  and  O_17 
ROOT
HETATM    1  N   UNL     1       6.907  31.131  61.825  1.00  0.00    -0.265 N 
HETATM    2  C   UNL     1       8.120  31.635  62.275  1.00  0.00     0.253 C 
HETATM    3  O   UNL     1       8.207  32.347  63.276  1.00  0.00    -0.270 OA
HETATM    4  H   UNL     1       6.948  30.244  61.308  1.00  0.00     0.190 HD
ENDROOT
BRANCH   2   5
HETATM    5  C   UNL     1       9.362  31.067  61.586  1.00  0.00     0.228 C 
BRANCH   5   6
HETATM    6  N   UNL     1       9.193  30.522  60.251  1.00  0.00    -0.334 N 
HETATM    7  C   UNL     1       9.239  31.283  59.133  1.00  0.00     0.321 C 
HETATM    8  N   UNL     1       8.761  30.745  57.980  1.00  0.00    -0.309 N 
HETATM    9  O   UNL     1       9.753  32.401  59.139  1.00  0.00    -0.247 OA
HETATM   10  H   UNL     1       9.009  31.304  57.173  1.00  0.00     0.170 HD
HETATM   11  H   UNL     1       9.312  29.526  60.121  1.00  0.00     0.164 HD
BRANCH   8  12
HETATM   12  C   UNL     1       7.849  29.694  57.740  1.00  0.00     0.036 A 
HETATM   13  C   UNL     1       6.464  29.847  57.663  1.00  0.00     0.032 A 
HETATM   14  C   UNL     1       5.643  28.749  57.376  1.00  0.00     0.039 A 
HETATM   15  C   UNL     1       6.189  27.490  57.132  1.00  0.00     0.068 A 
HETATM   16  C   UNL     1       7.570  27.329  57.199  1.00  0.00     0.039 A 
HETATM   17  C   UNL     1       8.392  28.426  57.497  1.00  0.00     0.032 A 
BRANCH  15  18
HETATM   18  O   UNL     1       5.277  26.514  56.845  1.00  0.00    -0.356 OA
HETATM   19  C   UNL     1       5.797  25.259  56.425  1.00  0.00     0.210 C 
ENDBRANCH  15  18
ENDBRANCH   8  12
ENDBRANCH   5   6
ENDBRANCH   2   5
BRANCH   1  20
HETATM   20  N   UNL     1       5.828  31.281  62.730  1.00  0.00    -0.249 N 
HETATM   21  C   UNL     1       5.221  32.500  62.955  1.00  0.00     0.339 C 
HETATM   22  N   UNL     1       5.361  33.392  61.919  1.00  0.00    -0.307 N 
HETATM   23  O   UNL     1       4.599  32.670  63.997  1.00  0.00    -0.245 OA
HETATM   24  H   UNL     1       5.815  32.995  61.112  1.00  0.00     0.170 HD
HETATM   25  H   UNL     1       5.888  30.709  63.573  1.00  0.00     0.192 HD
BRANCH  22  26
HETATM   26  C   UNL     1       4.877  34.715  61.842  1.00  0.00     0.042 A 
HETATM   27  C   UNL     1       3.748  34.987  61.037  1.00  0.00    -0.034 A 
HETATM   28  C   UNL     1       3.024  33.908  60.277  1.00  0.00     0.050 C 
HETATM   29  C   UNL     1       3.270  36.308  60.943  1.00  0.00     0.032 A 
HETATM   30  C   UNL     1       3.896  37.342  61.636  1.00  0.00     0.034 A 
HETATM   31  C   UNL     1       5.004  37.079  62.428  1.00  0.00     0.026 A 
HETATM   32 CL   UNL     1       3.294  38.948  61.507  1.00  0.00    -0.084 Cl
HETATM   33  C   UNL     1       5.491  35.773  62.528  1.00  0.00     0.032 A 
ENDBRANCH  22  26
ENDBRANCH   1  20
TORSDOF 6
ENDMDL
