MODEL 1
REMARK VINA RESULT:     -10.4      0.000      0.000
REMARK  3 active torsions:
REMARK  status: ('A' for Active; 'I' for Inactive)
REMARK    1  A    between atoms: C_3  and  C_4 
REMARK    2  A    between atoms: C_8  and  C_9 
REMARK       I    between atoms: C_9  and  N_10 
REMARK    3  A    between atoms: N_10  and  C_11 
ROOT
HETATM    1  C   UNL     1       7.575  28.848  57.866  1.00  0.00     0.064 A 
HETATM    2  N   UNL     1       6.212  28.902  57.732  1.00  0.00    -0.277 N 
HETATM    3  H   UNL     1       5.601  29.667  58.004  1.00  0.00     0.189 HD
HETATM    4  N   UNL     1       5.656  27.796  57.201  1.00  0.00    -0.169 NA
HETATM    5  C   UNL     1       6.707  26.978  56.990  1.00  0.00     0.147 A 
HETATM    6  C   UNL     1       7.919  27.604  57.374  1.00  0.00     0.071 A 
ENDROOT
BRANCH   5   7
HETATM    7  C   UNL     1       6.547  25.619  56.443  1.00  0.00     0.276 C 
HETATM    8  N   UNL     1       7.660  25.218  55.731  1.00  0.00    -0.322 N 
HETATM    9  H   UNL     1       8.406  25.910  55.729  1.00  0.00     0.169 HD
HETATM   10  O   UNL     1       5.521  24.973  56.627  1.00  0.00    -0.266 OA
BRANCH   8  11
HETATM   11  C   UNL     1       7.859  24.026  55.016  1.00  0.00     0.035 A 
HETATM   12  C   UNL     1       8.212  22.814  55.617  1.00  0.00     0.039 A 
HETATM   13  C   UNL     1       8.361  21.692  54.816  1.00  0.00    -0.024 A 
HETATM   14  C   UNL     1       8.169  21.749  53.446  1.00  0.00    -0.026 A 
HETATM   15  C   UNL     1       8.693  20.300  55.208  1.00  0.00     0.207 C 
HETATM   16  C   UNL     1       8.363  20.398  52.867  1.00  0.00     0.207 C 
HETATM   17  C   UNL     1       7.819  22.934  52.825  1.00  0.00     0.012 A 
HETATM   18  O   UNL     1       8.880  19.598  53.957  1.00  0.00    -0.382 OA
HETATM   19  C   UNL     1       7.667  24.075  53.620  1.00  0.00     0.030 A 
ENDBRANCH   8  11
ENDBRANCH   5   7
BRANCH   1  20
HETATM   20  C   UNL     1       8.403  29.934  58.406  1.00  0.00     0.014 A 
HETATM   21  C   UNL     1       7.996  30.543  59.607  1.00  0.00     0.015 A 
HETATM   22  C   UNL     1       8.726  31.589  60.177  1.00  0.00     0.001 A 
HETATM   23  C   UNL     1       9.879  32.053  59.555  1.00  0.00     0.002 A 
HETATM   24  C   UNL     1      10.305  31.467  58.364  1.00  0.00     0.025 A 
HETATM   25  C   UNL     1       9.576  30.417  57.790  1.00  0.00     0.046 A 
HETATM   26 CL   UNL     1      10.181  29.782  56.296  1.00  0.00    -0.083 Cl
ENDBRANCH   1  20
TORSDOF 3
ENDMDL
MODEL 2
REMARK VINA RESULT:      -9.9      2.862      8.846
REMARK  3 active torsions:
REMARK  status: ('A' for Active; 'I' for Inactive)
REMARK    1  A    between atoms: C_3  and  C_4 
REMARK    2  A    between atoms: C_8  and  C_9 
REMARK       I    between atoms: C_9  and  N_10 
REMARK    3  A    between atoms: N_10  and  C_11 
ROOT
HETATM    1  C   UNL     1       7.313  23.914  54.573  1.00  0.00     0.064 A 
HETATM    2  N   UNL     1       6.088  24.367  54.156  1.00  0.00    -0.277 N 
HETATM    3  H   UNL     1       5.375  23.835  53.664  1.00  0.00     0.189 HD
HETATM    4  N   UNL     1       5.849  25.664  54.423  1.00  0.00    -0.169 NA
HETATM    5  C   UNL     1       6.977  26.080  55.034  1.00  0.00     0.147 A 
HETATM    6  C   UNL     1       7.903  25.016  55.162  1.00  0.00     0.071 A 
ENDROOT
BRANCH   5   7
HETATM    7  C   UNL     1       7.165  27.475  55.472  1.00  0.00     0.276 C 
HETATM    8  N   UNL     1       8.175  27.588  56.407  1.00  0.00    -0.322 N 
HETATM    9  H   UNL     1       8.634  26.702  56.611  1.00  0.00     0.169 HD
HETATM   10  O   UNL     1       6.470  28.383  55.029  1.00  0.00    -0.266 OA
BRANCH   8  11
HETATM   11  C   UNL     1       8.603  28.731  57.100  1.00  0.00     0.035 A 
HETATM   12  C   UNL     1       7.772  29.487  57.932  1.00  0.00     0.039 A 
HETATM   13  C   UNL     1       8.307  30.587  58.585  1.00  0.00    -0.024 A 
HETATM   14  C   UNL     1       9.636  30.946  58.432  1.00  0.00    -0.026 A 
HETATM   15  C   UNL     1       7.653  31.519  59.537  1.00  0.00     0.207 C 
HETATM   16  C   UNL     1       9.924  32.133  59.273  1.00  0.00     0.207 C 
HETATM   17  C   UNL     1      10.480  30.217  57.615  1.00  0.00     0.012 A 
HETATM   18  O   UNL     1       8.632  32.560  59.766  1.00  0.00    -0.382 OA
HETATM   19  C   UNL     1       9.954  29.105  56.946  1.00  0.00     0.030 A 
ENDBRANCH   8  11
ENDBRANCH   5   7
BRANCH   1  20
HETATM   20  C   UNL     1       7.794  22.536  54.406  1.00  0.00     0.014 A 
HETATM   21  C   UNL     1       7.804  21.992  53.109  1.00  0.00     0.015 A 
HETATM   22  C   UNL     1       8.239  20.685  52.871  1.00  0.00     0.001 A 
HETATM   23  C   UNL     1       8.669  19.892  53.929  1.00  0.00     0.002 A 
HETATM   24  C   UNL     1       8.668  20.407  55.223  1.00  0.00     0.025 A 
HETATM   25  C   UNL     1       8.235  21.718  55.465  1.00  0.00     0.046 A 
HETATM   26 CL   UNL     1       8.252  22.245  57.116  1.00  0.00    -0.083 Cl
ENDBRANCH   1  20
TORSDOF 3
ENDMDL
MODEL 3
REMARK VINA RESULT:      -9.7      4.218     10.138
REMARK  3 active torsions:
REMARK  status: ('A' for Active; 'I' for Inactive)
REMARK    1  A    between atoms: C_3  and  C_4 
REMARK    2  A    between atoms: C_8  and  C_9 
REMARK       I    between atoms: C_9  and  N_10 
REMARK    3  A    between atoms: N_10  and  C_11 
ROOT
HETATM    1  C   UNL     1       8.332  28.204  57.283  1.00  0.00     0.064 A 
HETATM    2  N   UNL     1       9.562  28.761  57.049  1.00  0.00    -0.277 N 
HETATM    3  H   UNL     1      10.294  28.393  56.447  1.00  0.00     0.189 HD
HETATM    4  N   UNL     1       9.799  29.902  57.723  1.00  0.00    -0.169 NA
HETATM    5  C   UNL     1       8.673  30.091  58.440  1.00  0.00     0.147 A 
HETATM    6  C   UNL     1       7.730  29.067  58.179  1.00  0.00     0.071 A 
ENDROOT
BRANCH   5   7
HETATM    7  C   UNL     1       8.514  31.227  59.366  1.00  0.00     0.276 C 
HETATM    8  N   UNL     1       7.803  30.873  60.496  1.00  0.00    -0.322 N 
HETATM    9  H   UNL     1       7.539  29.889  60.511  1.00  0.00     0.169 HD
HETATM   10  O   UNL     1       8.973  32.334  59.105  1.00  0.00    -0.266 OA
BRANCH   8  11
HETATM   11  C   UNL     1       7.398  31.686  61.566  1.00  0.00     0.035 A 
HETATM   12  C   UNL     1       6.121  32.245  61.671  1.00  0.00     0.039 A 
HETATM   13  C   UNL     1       5.821  33.016  62.785  1.00  0.00    -0.024 A 
HETATM   14  C   UNL     1       6.753  33.238  63.784  1.00  0.00    -0.026 A 
HETATM   15  C   UNL     1       4.545  33.683  63.144  1.00  0.00     0.207 C 
HETATM   16  C   UNL     1       6.138  34.063  64.853  1.00  0.00     0.207 C 
HETATM   17  C   UNL     1       8.023  32.697  63.706  1.00  0.00     0.012 A 
HETATM   18  O   UNL     1       4.860  34.474  64.315  1.00  0.00    -0.382 OA
HETATM   19  C   UNL     1       8.341  31.919  62.588  1.00  0.00     0.030 A 
ENDBRANCH   8  11
ENDBRANCH   5   7
BRANCH   1  20
HETATM   20  C   UNL     1       7.841  26.970  56.655  1.00  0.00     0.014 A 
HETATM   21  C   UNL     1       7.717  25.822  57.460  1.00  0.00     0.015 A 
HETATM   22  C   UNL     1       7.267  24.609  56.933  1.00  0.00     0.001 A 
HETATM   23  C   UNL     1       6.934  24.517  55.586  1.00  0.00     0.002 A 
HETATM   24  C   UNL     1       7.048  25.638  54.768  1.00  0.00     0.025 A 
HETATM   25  C   UNL     1       7.497  26.858  55.293  1.00  0.00     0.046 A 
HETATM   26 CL   UNL     1       7.625  28.179  54.179  1.00  0.00    -0.083 Cl
ENDBRANCH   1  20
TORSDOF 3
ENDMDL
MODEL 4
REMARK VINA RESULT:      -9.6      6.000      8.991
REMARK  3 active torsions:
REMARK  status: ('A' for Active; 'I' for Inactive)
REMARK    1  A    between atoms: C_3  and  C_4 
REMARK    2  A    between atoms: C_8  and  C_9 
REMARK       I    between atoms: C_9  and  N_10 
REMARK    3  A    between atoms: N_10  and  C_11 
ROOT
HETATM    1  C   UNL     1       7.403  23.546  53.629  1.00  0.00     0.064 A 
HETATM    2  N   UNL     1       8.216  24.010  52.627  1.00  0.00    -0.277 N 
HETATM    3  H   UNL     1       9.181  23.745  52.452  1.00  0.00     0.189 HD
HETATM    4  N   UNL     1       7.648  24.930  51.824  1.00  0.00    -0.169 NA
HETATM    5  C   UNL     1       6.409  25.082  52.335  1.00  0.00     0.147 A 
HETATM    6  C   UNL     1       6.213  24.225  53.446  1.00  0.00     0.071 A 
ENDROOT
BRANCH   5   7
HETATM    7  C   UNL     1       5.440  26.040  51.773  1.00  0.00     0.276 C 
HETATM    8  N   UNL     1       5.469  26.050  50.393  1.00  0.00    -0.322 N 
HETATM    9  H   UNL     1       6.127  25.379  50.000  1.00  0.00     0.169 HD
HETATM   10  O   UNL     1       4.726  26.725  52.498  1.00  0.00    -0.266 OA
BRANCH   8  11
HETATM   11  C   UNL     1       4.745  26.865  49.508  1.00  0.00     0.035 A 
HETATM   12  C   UNL     1       3.546  26.475  48.904  1.00  0.00     0.039 A 
HETATM   13  C   UNL     1       2.903  27.370  48.062  1.00  0.00    -0.024 A 
HETATM   14  C   UNL     1       3.419  28.630  47.813  1.00  0.00    -0.026 A 
HETATM   15  C   UNL     1       1.618  27.213  47.337  1.00  0.00     0.207 C 
HETATM   16  C   UNL     1       2.502  29.366  46.910  1.00  0.00     0.207 C 
HETATM   17  C   UNL     1       4.603  29.042  48.396  1.00  0.00     0.012 A 
HETATM   18  O   UNL     1       1.526  28.384  46.490  1.00  0.00    -0.382 OA
HETATM   19  C   UNL     1       5.266  28.149  49.246  1.00  0.00     0.030 A 
ENDBRANCH   8  11
ENDBRANCH   5   7
BRANCH   1  20
HETATM   20  C   UNL     1       7.793  22.533  54.618  1.00  0.00     0.014 A 
HETATM   21  C   UNL     1       7.928  22.937  55.959  1.00  0.00     0.015 A 
HETATM   22  C   UNL     1       8.305  22.033  56.956  1.00  0.00     0.001 A 
HETATM   23  C   UNL     1       8.560  20.706  56.632  1.00  0.00     0.002 A 
HETATM   24  C   UNL     1       8.434  20.281  55.311  1.00  0.00     0.025 A 
HETATM   25  C   UNL     1       8.054  21.184  54.309  1.00  0.00     0.046 A 
HETATM   26 CL   UNL     1       7.954  20.553  52.698  1.00  0.00    -0.083 Cl
ENDBRANCH   1  20
TORSDOF 3
ENDMDL
MODEL 5
REMARK VINA RESULT:      -9.5      5.970      9.033
REMARK  3 active torsions:
REMARK  status: ('A' for Active; 'I' for Inactive)
REMARK    1  A    between atoms: C_3  and  C_4 
REMARK    2  A    between atoms: C_8  and  C_9 
REMARK       I    between atoms: C_9  and  N_10 
REMARK    3  A    between atoms: N_10  and  C_11 
ROOT
HETATM    1  C   UNL     1       7.387  23.572  53.676  1.00  0.00     0.064 A 
HETATM    2  N   UNL     1       8.205  24.021  52.672  1.00  0.00    -0.277 N 
HETATM    3  H   UNL     1       9.167  23.745  52.499  1.00  0.00     0.189 HD
HETATM    4  N   UNL     1       7.647  24.941  51.863  1.00  0.00    -0.169 NA
HETATM    5  C   UNL     1       6.409  25.109  52.372  1.00  0.00     0.147 A 
HETATM    6  C   UNL     1       6.204  24.261  53.489  1.00  0.00     0.071 A 
ENDROOT
BRANCH   5   7
HETATM    7  C   UNL     1       5.450  26.073  51.804  1.00  0.00     0.276 C 
HETATM    8  N   UNL     1       5.576  26.176  50.433  1.00  0.00    -0.322 N 
HETATM    9  H   UNL     1       6.282  25.551  50.047  1.00  0.00     0.169 HD
HETATM   10  O   UNL     1       4.664  26.687  52.517  1.00  0.00    -0.266 OA
BRANCH   8  11
HETATM   11  C   UNL     1       4.889  27.025  49.552  1.00  0.00     0.035 A 
HETATM   12  C   UNL     1       5.193  28.380  49.390  1.00  0.00     0.039 A 
HETATM   13  C   UNL     1       4.463  29.122  48.473  1.00  0.00    -0.024 A 
HETATM   14  C   UNL     1       3.449  28.552  47.723  1.00  0.00    -0.026 A 
HETATM   15  C   UNL     1       4.611  30.549  48.096  1.00  0.00     0.207 C 
HETATM   16  C   UNL     1       2.877  29.574  46.813  1.00  0.00     0.207 C 
HETATM   17  C   UNL     1       3.127  27.214  47.863  1.00  0.00     0.012 A 
HETATM   18  O   UNL     1       3.485  30.820  47.227  1.00  0.00    -0.382 OA
HETATM   19  C   UNL     1       3.853  26.453  48.785  1.00  0.00     0.030 A 
ENDBRANCH   8  11
ENDBRANCH   5   7
BRANCH   1  20
HETATM   20  C   UNL     1       7.766  22.562  54.673  1.00  0.00     0.014 A 
HETATM   21  C   UNL     1       7.941  22.979  56.005  1.00  0.00     0.015 A 
HETATM   22  C   UNL     1       8.310  22.079  57.007  1.00  0.00     0.001 A 
HETATM   23  C   UNL     1       8.519  20.740  56.697  1.00  0.00     0.002 A 
HETATM   24  C   UNL     1       8.353  20.300  55.386  1.00  0.00     0.025 A 
HETATM   25  C   UNL     1       7.980  21.200  54.378  1.00  0.00     0.046 A 
HETATM   26 CL   UNL     1       7.829  20.550  52.779  1.00  0.00    -0.083 Cl
ENDBRANCH   1  20
TORSDOF 3
ENDMDL
MODEL 6
REMARK VINA RESULT:      -9.3      3.032      4.332
REMARK  3 active torsions:
REMARK  status: ('A' for Active; 'I' for Inactive)
REMARK    1  A    between atoms: C_3  and  C_4 
REMARK    2  A    between atoms: C_8  and  C_9 
REMARK       I    between atoms: C_9  and  N_10 
REMARK    3  A    between atoms: N_10  and  C_11 
ROOT
HETATM    1  C   UNL     1       8.509  31.500  60.072  1.00  0.00     0.064 A 
HETATM    2  N   UNL     1       9.590  31.998  59.393  1.00  0.00    -0.277 N 
HETATM    3  H   UNL     1      10.077  32.871  59.576  1.00  0.00     0.189 HD
HETATM    4  N   UNL     1      10.008  31.235  58.366  1.00  0.00    -0.169 NA
HETATM    5  C   UNL     1       9.150  30.194  58.369  1.00  0.00     0.147 A 
HETATM    6  C   UNL     1       8.215  30.314  59.427  1.00  0.00     0.071 A 
ENDROOT
BRANCH   5   7
HETATM    7  C   UNL     1       9.221  29.115  57.368  1.00  0.00     0.276 C 
HETATM    8  N   UNL     1       8.234  28.169  57.561  1.00  0.00    -0.322 N 
HETATM    9  H   UNL     1       7.612  28.392  58.336  1.00  0.00     0.169 HD
HETATM   10  O   UNL     1      10.083  29.108  56.496  1.00  0.00    -0.266 OA
BRANCH   8  11
HETATM   11  C   UNL     1       8.016  26.974  56.858  1.00  0.00     0.035 A 
HETATM   12  C   UNL     1       8.354  25.712  57.356  1.00  0.00     0.039 A 
HETATM   13  C   UNL     1       8.073  24.595  56.584  1.00  0.00    -0.024 A 
HETATM   14  C   UNL     1       7.470  24.705  55.342  1.00  0.00    -0.026 A 
HETATM   15  C   UNL     1       8.297  23.162  56.896  1.00  0.00     0.207 C 
HETATM   16  C   UNL     1       7.267  23.350  54.774  1.00  0.00     0.207 C 
HETATM   17  C   UNL     1       7.125  25.940  54.826  1.00  0.00     0.012 A 
HETATM   18  O   UNL     1       7.973  22.462  55.672  1.00  0.00    -0.382 OA
HETATM   19  C   UNL     1       7.404  27.077  55.592  1.00  0.00     0.030 A 
ENDBRANCH   8  11
ENDBRANCH   5   7
BRANCH   1  20
HETATM   20  C   UNL     1       7.883  32.146  61.233  1.00  0.00     0.014 A 
HETATM   21  C   UNL     1       8.562  32.095  62.465  1.00  0.00     0.015 A 
HETATM   22  C   UNL     1       8.026  32.677  63.616  1.00  0.00     0.001 A 
HETATM   23  C   UNL     1       6.795  33.320  63.562  1.00  0.00     0.002 A 
HETATM   24  C   UNL     1       6.101  33.385  62.355  1.00  0.00     0.025 A 
HETATM   25  C   UNL     1       6.637  32.804  61.198  1.00  0.00     0.046 A 
HETATM   26 CL   UNL     1       5.677  32.920  59.760  1.00  0.00    -0.083 Cl
ENDBRANCH   1  20
TORSDOF 3
ENDMDL
MODEL 7
REMARK VINA RESULT:      -9.2      4.333     10.197
REMARK  3 active torsions:
REMARK  status: ('A' for Active; 'I' for Inactive)
REMARK    1  A    between atoms: C_3  and  C_4 
REMARK    2  A    between atoms: C_8  and  C_9 
REMARK       I    between atoms: C_9  and  N_10 
REMARK    3  A    between atoms: N_10  and  C_11 
ROOT
HETATM    1  C   UNL     1       7.839  28.336  57.037  1.00  0.00     0.064 A 
HETATM    2  N   UNL     1       9.180  28.616  56.999  1.00  0.00    -0.277 N 
HETATM    3  H   UNL     1       9.895  28.113  56.481  1.00  0.00     0.189 HD
HETATM    4  N   UNL     1       9.557  29.660  57.761  1.00  0.00    -0.169 NA
HETATM    5  C   UNL     1       8.407  30.073  58.332  1.00  0.00     0.147 A 
HETATM    6  C   UNL     1       7.314  29.287  57.891  1.00  0.00     0.071 A 
ENDROOT
BRANCH   5   7
HETATM    7  C   UNL     1       8.363  31.193  59.290  1.00  0.00     0.276 C 
HETATM    8  N   UNL     1       7.641  30.872  60.422  1.00  0.00    -0.322 N 
HETATM    9  H   UNL     1       7.290  29.916  60.416  1.00  0.00     0.169 HD
HETATM   10  O   UNL     1       8.916  32.261  59.050  1.00  0.00    -0.266 OA
BRANCH   8  11
HETATM   11  C   UNL     1       7.326  31.688  61.520  1.00  0.00     0.035 A 
HETATM   12  C   UNL     1       6.090  32.322  61.682  1.00  0.00     0.039 A 
HETATM   13  C   UNL     1       5.879  33.088  62.819  1.00  0.00    -0.024 A 
HETATM   14  C   UNL     1       6.859  33.235  63.786  1.00  0.00    -0.026 A 
HETATM   15  C   UNL     1       4.661  33.824  63.238  1.00  0.00     0.207 C 
HETATM   16  C   UNL     1       6.336  34.075  64.891  1.00  0.00     0.207 C 
HETATM   17  C   UNL     1       8.090  32.619  63.651  1.00  0.00     0.012 A 
HETATM   18  O   UNL     1       5.066  34.573  64.409  1.00  0.00    -0.382 OA
HETATM   19  C   UNL     1       8.319  31.845  62.509  1.00  0.00     0.030 A 
ENDBRANCH   8  11
ENDBRANCH   5   7
BRANCH   1  20
HETATM   20  C   UNL     1       7.190  27.256  56.282  1.00  0.00     0.014 A 
HETATM   21  C   UNL     1       6.287  27.611  55.263  1.00  0.00     0.015 A 
HETATM   22  C   UNL     1       5.623  26.641  54.508  1.00  0.00     0.001 A 
HETATM   23  C   UNL     1       5.846  25.291  54.759  1.00  0.00     0.002 A 
HETATM   24  C   UNL     1       6.736  24.913  55.762  1.00  0.00     0.025 A 
HETATM   25  C   UNL     1       7.405  25.884  56.520  1.00  0.00     0.046 A 
HETATM   26 CL   UNL     1       8.467  25.300  57.758  1.00  0.00    -0.083 Cl
ENDBRANCH   1  20
TORSDOF 3
ENDMDL
MODEL 8
REMARK VINA RESULT:      -9.1      5.447      7.585
REMARK  3 active torsions:
REMARK  status: ('A' for Active; 'I' for Inactive)
REMARK    1  A    between atoms: C_3  and  C_4 
REMARK    2  A    between atoms: C_8  and  C_9 
REMARK       I    between atoms: C_9  and  N_10 
REMARK    3  A    between atoms: N_10  and  C_11 
ROOT
HETATM    1  C   UNL     1       4.526  27.850  50.540  1.00  0.00     0.064 A 
HETATM    2  N   UNL     1       5.133  28.856  51.246  1.00  0.00    -0.277 N 
HETATM    3  H   UNL     1       5.003  29.856  51.119  1.00  0.00     0.189 HD
HETATM    4  N   UNL     1       6.005  28.437  52.182  1.00  0.00    -0.169 NA
HETATM    5  C   UNL     1       5.973  27.094  52.073  1.00  0.00     0.147 A 
HETATM    6  C   UNL     1       5.052  26.690  51.075  1.00  0.00     0.071 A 
ENDROOT
BRANCH   5   7
HETATM    7  C   UNL     1       6.820  26.218  52.902  1.00  0.00     0.276 C 
HETATM    8  N   UNL     1       6.460  24.890  52.782  1.00  0.00    -0.322 N 
HETATM    9  H   UNL     1       5.697  24.740  52.124  1.00  0.00     0.169 HD
HETATM   10  O   UNL     1       7.719  26.674  53.602  1.00  0.00    -0.266 OA
BRANCH   8  11
HETATM   11  C   UNL     1       6.985  23.776  53.454  1.00  0.00     0.035 A 
HETATM   12  C   UNL     1       7.558  22.679  52.803  1.00  0.00     0.039 A 
HETATM   13  C   UNL     1       8.067  21.641  53.569  1.00  0.00    -0.024 A 
HETATM   14  C   UNL     1       8.019  21.670  54.952  1.00  0.00    -0.026 A 
HETATM   15  C   UNL     1       8.747  20.399  53.127  1.00  0.00     0.207 C 
HETATM   16  C   UNL     1       8.665  20.449  55.491  1.00  0.00     0.207 C 
HETATM   17  C   UNL     1       7.458  22.741  55.623  1.00  0.00     0.012 A 
HETATM   18  O   UNL     1       8.908  19.616  54.334  1.00  0.00    -0.382 OA
HETATM   19  C   UNL     1       6.938  23.796  54.863  1.00  0.00     0.030 A 
ENDBRANCH   8  11
ENDBRANCH   5   7
BRANCH   1  20
HETATM   20  C   UNL     1       3.531  28.058  49.479  1.00  0.00     0.014 A 
HETATM   21  C   UNL     1       2.368  28.783  49.796  1.00  0.00     0.015 A 
HETATM   22  C   UNL     1       1.372  29.014  48.844  1.00  0.00     0.001 A 
HETATM   23  C   UNL     1       1.515  28.518  47.553  1.00  0.00     0.002 A 
HETATM   24  C   UNL     1       2.657  27.796  47.213  1.00  0.00     0.025 A 
HETATM   25  C   UNL     1       3.660  27.565  48.165  1.00  0.00     0.046 A 
HETATM   26 CL   UNL     1       5.023  26.632  47.641  1.00  0.00    -0.083 Cl
ENDBRANCH   1  20
TORSDOF 3
ENDMDL
MODEL 9
REMARK VINA RESULT:      -8.7      3.570      5.744
REMARK  3 active torsions:
REMARK  status: ('A' for Active; 'I' for Inactive)
REMARK    1  A    between atoms: C_3  and  C_4 
REMARK    2  A    between atoms: C_8  and  C_9 
REMARK       I    between atoms: C_9  and  N_10 
REMARK    3  A    between atoms: N_10  and  C_11 
ROOT
HETATM    1  C   UNL     1       7.889  32.306  61.020  1.00  0.00     0.064 A 
HETATM    2  N   UNL     1       8.889  32.881  60.280  1.00  0.00    -0.277 N 
HETATM    3  H   UNL     1       9.341  33.775  60.453  1.00  0.00     0.189 HD
HETATM    4  N   UNL     1       9.273  32.168  59.204  1.00  0.00    -0.169 NA
HETATM    5  C   UNL     1       8.475  31.081  59.238  1.00  0.00     0.147 A 
HETATM    6  C   UNL     1       7.614  31.122  60.363  1.00  0.00     0.071 A 
ENDROOT
BRANCH   5   7
HETATM    7  C   UNL     1       8.531  30.033  58.204  1.00  0.00     0.276 C 
HETATM    8  N   UNL     1       7.379  29.271  58.181  1.00  0.00    -0.322 N 
HETATM    9  H   UNL     1       6.682  29.580  58.856  1.00  0.00     0.169 HD
HETATM   10  O   UNL     1       9.515  29.897  57.485  1.00  0.00    -0.266 OA
BRANCH   8  11
HETATM   11  C   UNL     1       7.085  28.152  57.387  1.00  0.00     0.035 A 
HETATM   12  C   UNL     1       6.350  28.219  56.200  1.00  0.00     0.039 A 
HETATM   13  C   UNL     1       6.138  27.051  55.481  1.00  0.00    -0.024 A 
HETATM   14  C   UNL     1       6.636  25.834  55.913  1.00  0.00    -0.026 A 
HETATM   15  C   UNL     1       5.429  26.863  54.192  1.00  0.00     0.207 C 
HETATM   16  C   UNL     1       6.280  24.782  54.930  1.00  0.00     0.207 C 
HETATM   17  C   UNL     1       7.366  25.739  57.083  1.00  0.00     0.012 A 
HETATM   18  O   UNL     1       5.373  25.428  54.007  1.00  0.00    -0.382 OA
HETATM   19  C   UNL     1       7.587  26.908  57.821  1.00  0.00     0.030 A 
ENDBRANCH   8  11
ENDBRANCH   5   7
BRANCH   1  20
HETATM   20  C   UNL     1       7.315  32.887  62.241  1.00  0.00     0.014 A 
HETATM   21  C   UNL     1       8.012  32.705  63.450  1.00  0.00     0.015 A 
HETATM   22  C   UNL     1       7.525  33.219  64.655  1.00  0.00     0.001 A 
HETATM   23  C   UNL     1       6.326  33.922  64.677  1.00  0.00     0.002 A 
HETATM   24  C   UNL     1       5.616  34.116  63.494  1.00  0.00     0.025 A 
HETATM   25  C   UNL     1       6.103  33.604  62.283  1.00  0.00     0.046 A 
HETATM   26 CL   UNL     1       5.126  33.881  60.879  1.00  0.00    -0.083 Cl
ENDBRANCH   1  20
TORSDOF 3
ENDMDL
MODEL 10
REMARK VINA RESULT:      -8.6      5.128     10.477
REMARK  3 active torsions:
REMARK  status: ('A' for Active; 'I' for Inactive)
REMARK    1  A    between atoms: C_3  and  C_4 
REMARK    2  A    between atoms: C_8  and  C_9 
REMARK       I    between atoms: C_9  and  N_10 
REMARK    3  A    between atoms: N_10  and  C_11 
ROOT
HETATM    1  C   UNL     1       7.079  29.127  56.913  1.00  0.00     0.064 A 
HETATM    2  N   UNL     1       8.010  28.696  57.823  1.00  0.00    -0.277 N 
HETATM    3  H   UNL     1       8.567  27.848  57.772  1.00  0.00     0.189 HD
HETATM    4  N   UNL     1       8.157  29.496  58.896  1.00  0.00    -0.169 NA
HETATM    5  C   UNL     1       7.272  30.489  58.681  1.00  0.00     0.147 A 
HETATM    6  C   UNL     1       6.595  30.305  57.450  1.00  0.00     0.071 A 
ENDROOT
BRANCH   5   7
HETATM    7  C   UNL     1       7.071  31.586  59.646  1.00  0.00     0.276 C 
HETATM    8  N   UNL     1       7.160  31.144  60.951  1.00  0.00    -0.322 N 
HETATM    9  H   UNL     1       7.377  30.151  61.025  1.00  0.00     0.169 HD
HETATM   10  O   UNL     1       6.848  32.732  59.272  1.00  0.00    -0.266 OA
BRANCH   8  11
HETATM   11  C   UNL     1       6.967  31.871  62.137  1.00  0.00     0.035 A 
HETATM   12  C   UNL     1       5.707  32.226  62.628  1.00  0.00     0.039 A 
HETATM   13  C   UNL     1       5.633  32.926  63.823  1.00  0.00    -0.024 A 
HETATM   14  C   UNL     1       6.770  33.276  64.531  1.00  0.00    -0.026 A 
HETATM   15  C   UNL     1       4.432  33.384  64.565  1.00  0.00     0.207 C 
HETATM   16  C   UNL     1       6.377  33.982  65.774  1.00  0.00     0.207 C 
HETATM   17  C   UNL     1       8.028  32.937  64.068  1.00  0.00     0.012 A 
HETATM   18  O   UNL     1       4.952  34.199  65.643  1.00  0.00    -0.382 OA
HETATM   19  C   UNL     1       8.120  32.232  62.862  1.00  0.00     0.030 A 
ENDBRANCH   8  11
ENDBRANCH   5   7
BRANCH   1  20
HETATM   20  C   UNL     1       6.752  28.432  55.661  1.00  0.00     0.014 A 
HETATM   21  C   UNL     1       7.809  28.103  54.792  1.00  0.00     0.015 A 
HETATM   22  C   UNL     1       7.577  27.451  53.578  1.00  0.00     0.001 A 
HETATM   23  C   UNL     1       6.280  27.118  53.205  1.00  0.00     0.002 A 
HETATM   24  C   UNL     1       5.216  27.433  54.047  1.00  0.00     0.025 A 
HETATM   25  C   UNL     1       5.445  28.085  55.266  1.00  0.00     0.046 A 
HETATM   26 CL   UNL     1       4.046  28.451  56.221  1.00  0.00    -0.083 Cl
ENDBRANCH   1  20
TORSDOF 3
ENDMDL
