MODEL 1
REMARK VINA RESULT:      -9.8      0.000      0.000
REMARK  4 active torsions:
REMARK  status: ('A' for Active; 'I' for Inactive)
REMARK    1  A    between atoms: C_5  and  C_6 
REMARK    2  A    between atoms: C_6  and  N_7 
REMARK    3  A    between atoms: C_6  and  C_18 
REMARK    4  A    between atoms: N_7  and  C_8 
ROOT
HETATM    1  C   UNL     1       7.068  24.924  54.321  1.00  0.00     0.290 C 
ENDROOT
BRANCH   1   2
HETATM    2  C   UNL     1       7.438  23.448  54.275  1.00  0.00     0.021 A 
HETATM    3  C   UNL     1       7.351  22.597  55.391  1.00  0.00     0.055 A 
HETATM    4  C   UNL     1       7.684  21.248  55.281  1.00  0.00     0.117 A 
HETATM    5  C   UNL     1       8.109  20.706  54.075  1.00  0.00     0.045 A 
HETATM    6  F   UNL     1       7.583  20.463  56.361  1.00  0.00    -0.206 F 
HETATM    7  C   UNL     1       8.197  21.530  52.956  1.00  0.00     0.046 A 
HETATM    8  C   UNL     1       7.857  22.879  53.062  1.00  0.00     0.125 A 
HETATM    9  F   UNL     1       7.927  23.637  51.959  1.00  0.00    -0.205 F 
ENDBRANCH   1   2
BRANCH   1  10
HETATM   10  N   UNL     1       5.725  25.195  53.739  1.00  0.00     0.101 NA
HETATM   11  H   UNL     1       5.122  25.439  54.528  1.00  0.00     0.317 HD
BRANCH  10  12
HETATM   12  C   UNL     1       5.576  26.187  52.669  1.00  0.00     0.225 C 
HETATM   13  C   UNL     1       5.155  25.589  51.308  1.00  0.00     0.069 C 
HETATM   14  C   UNL     1       4.895  26.701  50.310  1.00  0.00     0.190 C 
HETATM   15  N   UNL     1       3.794  27.574  50.846  1.00  0.00    -0.067 N 
HETATM   16  C   UNL     1       4.329  26.301  48.963  1.00  0.00     0.035 C 
HETATM   17  H   UNL     1       2.993  26.964  51.074  1.00  0.00     0.280 HD
HETATM   18  C   UNL     1       4.191  28.273  52.102  1.00  0.00     0.237 C 
HETATM   19  C   UNL     1       3.350  28.424  49.685  1.00  0.00     0.235 C 
HETATM   20  C   UNL     1       4.519  27.213  53.152  1.00  0.00     0.063 C 
HETATM   21  C   UNL     1       3.732  27.608  48.448  1.00  0.00     0.030 C 
ENDBRANCH  10  12
ENDBRANCH   1  10
BRANCH   1  22
HETATM   22  C   UNL     1       7.346  25.710  55.604  1.00  0.00    -0.018 A 
HETATM   23  C   UNL     1       7.503  25.118  56.863  1.00  0.00     0.029 A 
HETATM   24  C   UNL     1       7.763  25.923  57.964  1.00  0.00     0.116 A 
HETATM   25  N   UNL     1       7.898  27.263  57.899  1.00  0.00    -0.273 NA
HETATM   26  C   UNL     1       7.821  27.821  56.677  1.00  0.00     0.116 A 
HETATM   27  C   UNL     1       7.558  27.098  55.524  1.00  0.00     0.029 A 
ENDBRANCH   1  22
TORSDOF 4
ENDMDL
MODEL 2
REMARK VINA RESULT:      -9.4      2.949      6.708
REMARK  4 active torsions:
REMARK  status: ('A' for Active; 'I' for Inactive)
REMARK    1  A    between atoms: C_5  and  C_6 
REMARK    2  A    between atoms: C_6  and  N_7 
REMARK    3  A    between atoms: C_6  and  C_18 
REMARK    4  A    between atoms: N_7  and  C_8 
ROOT
HETATM    1  C   UNL     1       6.312  27.547  55.486  1.00  0.00     0.290 C 
ENDROOT
BRANCH   1   2
HETATM    2  C   UNL     1       7.385  28.360  56.200  1.00  0.00     0.021 A 
HETATM    3  C   UNL     1       7.335  28.664  57.572  1.00  0.00     0.055 A 
HETATM    4  C   UNL     1       8.359  29.394  58.174  1.00  0.00     0.117 A 
HETATM    5  C   UNL     1       9.451  29.841  57.442  1.00  0.00     0.045 A 
HETATM    6  F   UNL     1       8.285  29.659  59.483  1.00  0.00    -0.206 F 
HETATM    7  C   UNL     1       9.523  29.546  56.083  1.00  0.00     0.046 A 
HETATM    8  C   UNL     1       8.503  28.810  55.480  1.00  0.00     0.125 A 
HETATM    9  F   UNL     1       8.617  28.520  54.177  1.00  0.00    -0.205 F 
ENDBRANCH   1   2
BRANCH   1  10
HETATM   10  N   UNL     1       5.787  26.435  56.323  1.00  0.00     0.101 NA
HETATM   11  H   UNL     1       4.769  26.471  56.229  1.00  0.00     0.317 HD
BRANCH  10  12
HETATM   12  C   UNL     1       6.261  25.065  56.102  1.00  0.00     0.225 C 
HETATM   13  C   UNL     1       6.622  24.751  54.633  1.00  0.00     0.069 C 
HETATM   14  C   UNL     1       7.228  23.364  54.531  1.00  0.00     0.190 C 
HETATM   15  N   UNL     1       8.468  23.323  55.379  1.00  0.00    -0.067 N 
HETATM   16  C   UNL     1       7.777  22.949  53.181  1.00  0.00     0.035 C 
HETATM   17  H   UNL     1       9.071  24.110  55.093  1.00  0.00     0.280 HD
HETATM   18  C   UNL     1       8.165  23.502  56.829  1.00  0.00     0.237 C 
HETATM   19  C   UNL     1       9.198  22.071  54.969  1.00  0.00     0.235 C 
HETATM   20  C   UNL     1       7.502  24.866  57.010  1.00  0.00     0.063 C 
HETATM   21  C   UNL     1       8.720  21.803  53.541  1.00  0.00     0.030 C 
ENDBRANCH  10  12
ENDBRANCH   1  10
BRANCH   1  22
HETATM   22  C   UNL     1       5.225  28.293  54.709  1.00  0.00    -0.018 A 
HETATM   23  C   UNL     1       4.888  29.634  54.930  1.00  0.00     0.029 A 
HETATM   24  C   UNL     1       3.890  30.217  54.161  1.00  0.00     0.116 A 
HETATM   25  N   UNL     1       3.223  29.575  53.181  1.00  0.00    -0.273 NA
HETATM   26  C   UNL     1       3.602  28.309  52.921  1.00  0.00     0.116 A 
HETATM   27  C   UNL     1       4.582  27.643  53.640  1.00  0.00     0.029 A 
ENDBRANCH   1  22
TORSDOF 4
ENDMDL
MODEL 3
REMARK VINA RESULT:      -9.1      2.387      4.582
REMARK  4 active torsions:
REMARK  status: ('A' for Active; 'I' for Inactive)
REMARK    1  A    between atoms: C_5  and  C_6 
REMARK    2  A    between atoms: C_6  and  N_7 
REMARK    3  A    between atoms: C_6  and  C_18 
REMARK    4  A    between atoms: N_7  and  C_8 
ROOT
HETATM    1  C   UNL     1       5.949  25.142  54.970  1.00  0.00     0.290 C 
ENDROOT
BRANCH   1   2
HETATM    2  C   UNL     1       6.420  26.486  55.511  1.00  0.00     0.021 A 
HETATM    3  C   UNL     1       7.507  27.195  54.972  1.00  0.00     0.055 A 
HETATM    4  C   UNL     1       7.877  28.432  55.497  1.00  0.00     0.117 A 
HETATM    5  C   UNL     1       7.188  28.998  56.563  1.00  0.00     0.045 A 
HETATM    6  F   UNL     1       8.912  29.085  54.955  1.00  0.00    -0.206 F 
HETATM    7  C   UNL     1       6.104  28.315  57.108  1.00  0.00     0.046 A 
HETATM    8  C   UNL     1       5.729  27.080  56.579  1.00  0.00     0.125 A 
HETATM    9  F   UNL     1       4.664  26.462  57.110  1.00  0.00    -0.205 F 
ENDBRANCH   1   2
BRANCH   1  10
HETATM   10  N   UNL     1       4.912  25.283  53.913  1.00  0.00     0.101 NA
HETATM   11  H   UNL     1       4.030  25.441  54.407  1.00  0.00     0.317 HD
BRANCH  10  12
HETATM   12  C   UNL     1       5.077  26.283  52.853  1.00  0.00     0.225 C 
HETATM   13  C   UNL     1       4.900  25.723  51.425  1.00  0.00     0.069 C 
HETATM   14  C   UNL     1       4.952  26.852  50.413  1.00  0.00     0.190 C 
HETATM   15  N   UNL     1       3.843  27.819  50.722  1.00  0.00    -0.067 N 
HETATM   16  C   UNL     1       4.648  26.501  48.971  1.00  0.00     0.035 C 
HETATM   17  H   UNL     1       2.963  27.284  50.767  1.00  0.00     0.280 HD
HETATM   18  C   UNL     1       4.028  28.483  52.045  1.00  0.00     0.237 C 
HETATM   19  C   UNL     1       3.728  28.704  49.508  1.00  0.00     0.235 C 
HETATM   20  C   UNL     1       4.036  27.400  53.122  1.00  0.00     0.063 C 
HETATM   21  C   UNL     1       4.288  27.856  48.365  1.00  0.00     0.030 C 
ENDBRANCH  10  12
ENDBRANCH   1  10
BRANCH   1  22
HETATM   22  C   UNL     1       6.997  24.070  54.659  1.00  0.00    -0.018 A 
HETATM   23  C   UNL     1       7.226  23.552  53.378  1.00  0.00     0.029 A 
HETATM   24  C   UNL     1       8.209  22.588  53.203  1.00  0.00     0.116 A 
HETATM   25  N   UNL     1       8.989  22.120  54.199  1.00  0.00    -0.273 NA
HETATM   26  C   UNL     1       8.817  22.674  55.413  1.00  0.00     0.116 A 
HETATM   27  C   UNL     1       7.857  23.637  55.683  1.00  0.00     0.029 A 
ENDBRANCH   1  22
TORSDOF 4
ENDMDL
MODEL 4
REMARK VINA RESULT:      -8.8      1.904      6.081
REMARK  4 active torsions:
REMARK  status: ('A' for Active; 'I' for Inactive)
REMARK    1  A    between atoms: C_5  and  C_6 
REMARK    2  A    between atoms: C_6  and  N_7 
REMARK    3  A    between atoms: C_6  and  C_18 
REMARK    4  A    between atoms: N_7  and  C_8 
ROOT
HETATM    1  C   UNL     1       6.591  26.536  53.603  1.00  0.00     0.290 C 
ENDROOT
BRANCH   1   2
HETATM    2  C   UNL     1       7.134  25.133  53.839  1.00  0.00     0.021 A 
HETATM    3  C   UNL     1       6.766  24.340  54.939  1.00  0.00     0.055 A 
HETATM    4  C   UNL     1       7.281  23.053  55.090  1.00  0.00     0.117 A 
HETATM    5  C   UNL     1       8.168  22.520  54.163  1.00  0.00     0.045 A 
HETATM    6  F   UNL     1       6.904  22.321  56.144  1.00  0.00    -0.206 F 
HETATM    7  C   UNL     1       8.542  23.286  53.063  1.00  0.00     0.046 A 
HETATM    8  C   UNL     1       8.022  24.571  52.907  1.00  0.00     0.125 A 
HETATM    9  F   UNL     1       8.381  25.272  51.822  1.00  0.00    -0.205 F 
ENDBRANCH   1   2
BRANCH   1  10
HETATM   10  N   UNL     1       7.552  27.596  54.012  1.00  0.00     0.101 NA
HETATM   11  H   UNL     1       7.235  28.453  53.552  1.00  0.00     0.317 HD
BRANCH  10  12
HETATM   12  C   UNL     1       7.798  27.854  55.434  1.00  0.00     0.225 C 
HETATM   13  C   UNL     1       8.906  28.896  55.704  1.00  0.00     0.069 C 
HETATM   14  C   UNL     1       8.991  29.194  57.189  1.00  0.00     0.190 C 
HETATM   15  N   UNL     1       7.662  29.733  57.642  1.00  0.00    -0.067 N 
HETATM   16  C   UNL     1       9.926  30.306  57.618  1.00  0.00     0.035 C 
HETATM   17  H   UNL     1       7.419  30.526  57.028  1.00  0.00     0.280 HD
HETATM   18  C   UNL     1       6.571  28.723  57.516  1.00  0.00     0.237 C 
HETATM   19  C   UNL     1       7.910  30.326  59.005  1.00  0.00     0.235 C 
HETATM   20  C   UNL     1       6.455  28.333  56.044  1.00  0.00     0.063 C 
HETATM   21  C   UNL     1       9.401  30.669  59.005  1.00  0.00     0.030 C 
ENDBRANCH  10  12
ENDBRANCH   1  10
BRANCH   1  22
HETATM   22  C   UNL     1       5.879  26.834  52.282  1.00  0.00    -0.018 A 
HETATM   23  C   UNL     1       5.290  25.853  51.474  1.00  0.00     0.029 A 
HETATM   24  C   UNL     1       4.660  26.233  50.297  1.00  0.00     0.116 A 
HETATM   25  N   UNL     1       4.555  27.510  49.879  1.00  0.00    -0.273 NA
HETATM   26  C   UNL     1       5.056  28.456  50.694  1.00  0.00     0.116 A 
HETATM   27  C   UNL     1       5.708  28.172  51.884  1.00  0.00     0.029 A 
ENDBRANCH   1  22
TORSDOF 4
ENDMDL
MODEL 5
REMARK VINA RESULT:      -8.7      2.067      3.183
REMARK  4 active torsions:
REMARK  status: ('A' for Active; 'I' for Inactive)
REMARK    1  A    between atoms: C_5  and  C_6 
REMARK    2  A    between atoms: C_6  and  N_7 
REMARK    3  A    between atoms: C_6  and  C_18 
REMARK    4  A    between atoms: N_7  and  C_8 
ROOT
HETATM    1  C   UNL     1       6.543  26.583  54.351  1.00  0.00     0.290 C 
ENDROOT
BRANCH   1   2
HETATM    2  C   UNL     1       7.023  25.150  54.165  1.00  0.00     0.021 A 
HETATM    3  C   UNL     1       6.995  24.189  55.191  1.00  0.00     0.055 A 
HETATM    4  C   UNL     1       7.429  22.885  54.953  1.00  0.00     0.117 A 
HETATM    5  C   UNL     1       7.901  22.499  53.705  1.00  0.00     0.045 A 
HETATM    6  F   UNL     1       7.381  21.992  55.949  1.00  0.00    -0.206 F 
HETATM    7  C   UNL     1       7.932  23.433  52.674  1.00  0.00     0.046 A 
HETATM    8  C   UNL     1       7.491  24.736  52.908  1.00  0.00     0.125 A 
HETATM    9  F   UNL     1       7.510  25.603  51.886  1.00  0.00    -0.205 F 
ENDBRANCH   1   2
BRANCH   1  10
HETATM   10  N   UNL     1       5.059  26.694  54.335  1.00  0.00     0.101 NA
HETATM   11  H   UNL     1       4.772  26.743  55.316  1.00  0.00     0.317 HD
BRANCH  10  12
HETATM   12  C   UNL     1       4.413  27.765  53.570  1.00  0.00     0.225 C 
HETATM   13  C   UNL     1       4.007  28.990  54.420  1.00  0.00     0.069 C 
HETATM   14  C   UNL     1       3.476  30.093  53.523  1.00  0.00     0.190 C 
HETATM   15  N   UNL     1       4.558  30.481  52.554  1.00  0.00    -0.067 N 
HETATM   16  C   UNL     1       3.169  31.425  54.176  1.00  0.00     0.035 C 
HETATM   17  H   UNL     1       5.405  30.701  53.101  1.00  0.00     0.280 HD
HETATM   18  C   UNL     1       4.908  29.367  51.625  1.00  0.00     0.237 C 
HETATM   19  C   UNL     1       4.108  31.782  51.945  1.00  0.00     0.235 C 
HETATM   20  C   UNL     1       5.409  28.191  52.462  1.00  0.00     0.063 C 
HETATM   21  C   UNL     1       3.168  32.387  52.990  1.00  0.00     0.030 C 
ENDBRANCH  10  12
ENDBRANCH   1  10
BRANCH   1  22
HETATM   22  C   UNL     1       7.208  27.445  55.427  1.00  0.00    -0.018 A 
HETATM   23  C   UNL     1       8.203  28.394  55.161  1.00  0.00     0.029 A 
HETATM   24  C   UNL     1       8.735  29.130  56.211  1.00  0.00     0.116 A 
HETATM   25  N   UNL     1       8.336  29.008  57.493  1.00  0.00    -0.273 NA
HETATM   26  C   UNL     1       7.328  28.149  57.733  1.00  0.00     0.116 A 
HETATM   27  C   UNL     1       6.741  27.367  56.751  1.00  0.00     0.029 A 
ENDBRANCH   1  22
TORSDOF 4
ENDMDL
MODEL 6
REMARK VINA RESULT:      -8.7     10.912     14.564
REMARK  4 active torsions:
REMARK  status: ('A' for Active; 'I' for Inactive)
REMARK    1  A    between atoms: C_5  and  C_6 
REMARK    2  A    between atoms: C_6  and  N_7 
REMARK    3  A    between atoms: C_6  and  C_18 
REMARK    4  A    between atoms: N_7  and  C_8 
ROOT
HETATM    1  C   UNL     1       4.551  33.805  65.098  1.00  0.00     0.290 C 
ENDROOT
BRANCH   1   2
HETATM    2  C   UNL     1       4.264  35.030  64.239  1.00  0.00     0.021 A 
HETATM    3  C   UNL     1       5.058  36.189  64.261  1.00  0.00     0.055 A 
HETATM    4  C   UNL     1       4.757  37.271  63.435  1.00  0.00     0.117 A 
HETATM    5  C   UNL     1       3.669  37.237  62.572  1.00  0.00     0.045 A 
HETATM    6  F   UNL     1       5.539  38.357  63.475  1.00  0.00    -0.206 F 
HETATM    7  C   UNL     1       2.872  36.096  62.529  1.00  0.00     0.046 A 
HETATM    8  C   UNL     1       3.177  35.010  63.350  1.00  0.00     0.125 A 
HETATM    9  F   UNL     1       2.405  33.917  63.265  1.00  0.00    -0.205 F 
ENDBRANCH   1   2
BRANCH   1  10
HETATM   10  N   UNL     1       5.052  32.654  64.300  1.00  0.00     0.101 NA
HETATM   11  H   UNL     1       4.228  32.091  64.074  1.00  0.00     0.317 HD
BRANCH  10  12
HETATM   12  C   UNL     1       5.844  32.890  63.089  1.00  0.00     0.225 C 
HETATM   13  C   UNL     1       7.272  32.304  63.145  1.00  0.00     0.069 C 
HETATM   14  C   UNL     1       7.960  32.479  61.804  1.00  0.00     0.190 C 
HETATM   15  N   UNL     1       7.154  31.758  60.759  1.00  0.00    -0.067 N 
HETATM   16  C   UNL     1       9.317  31.828  61.634  1.00  0.00     0.035 C 
HETATM   17  H   UNL     1       7.017  30.788  61.082  1.00  0.00     0.280 HD
HETATM   18  C   UNL     1       5.801  32.360  60.577  1.00  0.00     0.237 C 
HETATM   19  C   UNL     1       8.046  31.670  59.549  1.00  0.00     0.235 C 
HETATM   20  C   UNL     1       5.057  32.266  61.907  1.00  0.00     0.063 C 
HETATM   21  C   UNL     1       9.465  31.752  60.116  1.00  0.00     0.030 C 
ENDBRANCH  10  12
ENDBRANCH   1  10
BRANCH   1  22
HETATM   22  C   UNL     1       5.289  33.997  66.424  1.00  0.00    -0.018 A 
HETATM   23  C   UNL     1       6.680  34.115  66.533  1.00  0.00     0.029 A 
HETATM   24  C   UNL     1       7.249  34.296  67.786  1.00  0.00     0.116 A 
HETATM   25  N   UNL     1       6.539  34.390  68.928  1.00  0.00    -0.273 NA
HETATM   26  C   UNL     1       5.199  34.351  68.811  1.00  0.00     0.116 A 
HETATM   27  C   UNL     1       4.543  34.166  67.604  1.00  0.00     0.029 A 
ENDBRANCH   1  22
TORSDOF 4
ENDMDL
MODEL 7
REMARK VINA RESULT:      -8.5      1.611      2.599
REMARK  4 active torsions:
REMARK  status: ('A' for Active; 'I' for Inactive)
REMARK    1  A    between atoms: C_5  and  C_6 
REMARK    2  A    between atoms: C_6  and  N_7 
REMARK    3  A    between atoms: C_6  and  C_18 
REMARK    4  A    between atoms: N_7  and  C_8 
ROOT
HETATM    1  C   UNL     1       6.603  27.016  54.723  1.00  0.00     0.290 C 
ENDROOT
BRANCH   1   2
HETATM    2  C   UNL     1       7.012  25.550  54.777  1.00  0.00     0.021 A 
HETATM    3  C   UNL     1       7.714  24.908  53.742  1.00  0.00     0.055 A 
HETATM    4  C   UNL     1       8.080  23.568  53.858  1.00  0.00     0.117 A 
HETATM    5  C   UNL     1       7.763  22.831  54.991  1.00  0.00     0.045 A 
HETATM    6  F   UNL     1       8.755  22.989  52.858  1.00  0.00    -0.206 F 
HETATM    7  C   UNL     1       7.074  23.448  56.031  1.00  0.00     0.046 A 
HETATM    8  C   UNL     1       6.713  24.791  55.919  1.00  0.00     0.125 A 
HETATM    9  F   UNL     1       6.073  25.362  56.950  1.00  0.00    -0.205 F 
ENDBRANCH   1   2
BRANCH   1  10
HETATM   10  N   UNL     1       5.211  27.203  54.234  1.00  0.00     0.101 NA
HETATM   11  H   UNL     1       4.734  27.756  54.951  1.00  0.00     0.317 HD
BRANCH  10  12
HETATM   12  C   UNL     1       4.971  27.787  52.910  1.00  0.00     0.225 C 
HETATM   13  C   UNL     1       5.076  26.777  51.746  1.00  0.00     0.069 C 
HETATM   14  C   UNL     1       4.679  27.442  50.442  1.00  0.00     0.190 C 
HETATM   15  N   UNL     1       3.262  27.929  50.568  1.00  0.00    -0.067 N 
HETATM   16  C   UNL     1       4.581  26.556  49.217  1.00  0.00     0.035 C 
HETATM   17  H   UNL     1       2.682  27.132  50.873  1.00  0.00     0.280 HD
HETATM   18  C   UNL     1       3.123  28.997  51.601  1.00  0.00     0.237 C 
HETATM   19  C   UNL     1       2.819  28.252  49.166  1.00  0.00     0.235 C 
HETATM   20  C   UNL     1       3.554  28.415  52.946  1.00  0.00     0.063 C 
HETATM   21  C   UNL     1       3.706  27.381  48.276  1.00  0.00     0.030 C 
ENDBRANCH  10  12
ENDBRANCH   1  10
BRANCH   1  22
HETATM   22  C   UNL     1       6.961  27.920  55.905  1.00  0.00    -0.018 A 
HETATM   23  C   UNL     1       6.029  28.697  56.604  1.00  0.00     0.029 A 
HETATM   24  C   UNL     1       6.460  29.477  57.669  1.00  0.00     0.116 A 
HETATM   25  N   UNL     1       7.736  29.522  58.100  1.00  0.00    -0.273 NA
HETATM   26  C   UNL     1       8.615  28.717  57.474  1.00  0.00     0.116 A 
HETATM   27  C   UNL     1       8.278  27.911  56.398  1.00  0.00     0.029 A 
ENDBRANCH   1  22
TORSDOF 4
ENDMDL
MODEL 8
REMARK VINA RESULT:      -8.4     10.489     14.160
REMARK  4 active torsions:
REMARK  status: ('A' for Active; 'I' for Inactive)
REMARK    1  A    between atoms: C_5  and  C_6 
REMARK    2  A    between atoms: C_6  and  N_7 
REMARK    3  A    between atoms: C_6  and  C_18 
REMARK    4  A    between atoms: N_7  and  C_8 
ROOT
HETATM    1  C   UNL     1       5.947  34.101  64.041  1.00  0.00     0.290 C 
ENDROOT
BRANCH   1   2
HETATM    2  C   UNL     1       5.789  34.146  65.554  1.00  0.00     0.021 A 
HETATM    3  C   UNL     1       6.874  34.265  66.440  1.00  0.00     0.055 A 
HETATM    4  C   UNL     1       6.664  34.323  67.817  1.00  0.00     0.117 A 
HETATM    5  C   UNL     1       5.384  34.264  68.352  1.00  0.00     0.045 A 
HETATM    6  F   UNL     1       7.718  34.445  68.631  1.00  0.00    -0.206 F 
HETATM    7  C   UNL     1       4.293  34.152  67.494  1.00  0.00     0.046 A 
HETATM    8  C   UNL     1       4.502  34.101  66.115  1.00  0.00     0.125 A 
HETATM    9  F   UNL     1       3.429  34.021  65.316  1.00  0.00    -0.205 F 
ENDBRANCH   1   2
BRANCH   1  10
HETATM   10  N   UNL     1       5.534  32.794  63.462  1.00  0.00     0.101 NA
HETATM   11  H   UNL     1       4.687  32.984  62.921  1.00  0.00     0.317 HD
BRANCH  10  12
HETATM   12  C   UNL     1       6.481  32.018  62.654  1.00  0.00     0.225 C 
HETATM   13  C   UNL     1       6.258  32.141  61.131  1.00  0.00     0.069 C 
HETATM   14  C   UNL     1       7.363  31.419  60.383  1.00  0.00     0.190 C 
HETATM   15  N   UNL     1       8.678  32.044  60.758  1.00  0.00    -0.067 N 
HETATM   16  C   UNL     1       7.384  31.562  58.875  1.00  0.00     0.035 C 
HETATM   17  H   UNL     1       8.601  33.059  60.594  1.00  0.00     0.280 HD
HETATM   18  C   UNL     1       9.003  31.850  62.201  1.00  0.00     0.237 C 
HETATM   19  C   UNL     1       9.671  31.536  59.745  1.00  0.00     0.235 C 
HETATM   20  C   UNL     1       7.902  32.513  63.027  1.00  0.00     0.063 C 
HETATM   21  C   UNL     1       8.821  31.185  58.522  1.00  0.00     0.030 C 
ENDBRANCH  10  12
ENDBRANCH   1  10
BRANCH   1  22
HETATM   22  C   UNL     1       5.484  35.307  63.219  1.00  0.00    -0.018 A 
HETATM   23  C   UNL     1       4.694  35.209  62.067  1.00  0.00     0.029 A 
HETATM   24  C   UNL     1       4.321  36.368  61.401  1.00  0.00     0.116 A 
HETATM   25  N   UNL     1       4.656  37.610  61.806  1.00  0.00    -0.273 NA
HETATM   26  C   UNL     1       5.352  37.703  62.955  1.00  0.00     0.116 A 
HETATM   27  C   UNL     1       5.774  36.602  63.683  1.00  0.00     0.029 A 
ENDBRANCH   1  22
TORSDOF 4
ENDMDL
MODEL 9
REMARK VINA RESULT:      -8.3      2.664      4.832
REMARK  4 active torsions:
REMARK  status: ('A' for Active; 'I' for Inactive)
REMARK    1  A    between atoms: C_5  and  C_6 
REMARK    2  A    between atoms: C_6  and  N_7 
REMARK    3  A    between atoms: C_6  and  C_18 
REMARK    4  A    between atoms: N_7  and  C_8 
ROOT
HETATM    1  C   UNL     1       6.907  26.010  55.050  1.00  0.00     0.290 C 
ENDROOT
BRANCH   1   2
HETATM    2  C   UNL     1       7.006  27.162  56.042  1.00  0.00     0.021 A 
HETATM    3  C   UNL     1       8.229  27.659  56.524  1.00  0.00     0.055 A 
HETATM    4  C   UNL     1       8.257  28.731  57.415  1.00  0.00     0.117 A 
HETATM    5  C   UNL     1       7.085  29.334  57.852  1.00  0.00     0.045 A 
HETATM    6  F   UNL     1       9.439  29.186  57.848  1.00  0.00    -0.206 F 
HETATM    7  C   UNL     1       5.863  28.861  57.383  1.00  0.00     0.046 A 
HETATM    8  C   UNL     1       5.834  27.793  56.486  1.00  0.00     0.125 A 
HETATM    9  F   UNL     1       4.642  27.380  56.033  1.00  0.00    -0.205 F 
ENDBRANCH   1   2
BRANCH   1  10
HETATM   10  N   UNL     1       7.143  26.444  53.646  1.00  0.00     0.101 NA
HETATM   11  H   UNL     1       7.670  25.687  53.204  1.00  0.00     0.317 HD
BRANCH  10  12
HETATM   12  C   UNL     1       6.010  26.827  52.797  1.00  0.00     0.225 C 
HETATM   13  C   UNL     1       5.990  28.322  52.409  1.00  0.00     0.069 C 
HETATM   14  C   UNL     1       4.867  28.590  51.424  1.00  0.00     0.190 C 
HETATM   15  N   UNL     1       5.098  27.749  50.200  1.00  0.00    -0.067 N 
HETATM   16  C   UNL     1       4.793  29.978  50.823  1.00  0.00     0.035 C 
HETATM   17  H   UNL     1       6.056  27.936  49.866  1.00  0.00     0.280 HD
HETATM   18  C   UNL     1       5.010  26.289  50.494  1.00  0.00     0.237 C 
HETATM   19  C   UNL     1       4.176  28.305  49.147  1.00  0.00     0.235 C 
HETATM   20  C   UNL     1       6.085  25.946  51.523  1.00  0.00     0.063 C 
HETATM   21  C   UNL     1       3.945  29.756  49.572  1.00  0.00     0.030 C 
ENDBRANCH  10  12
ENDBRANCH   1  10
BRANCH   1  22
HETATM   22  C   UNL     1       7.580  24.681  55.400  1.00  0.00    -0.018 A 
HETATM   23  C   UNL     1       7.605  24.135  56.689  1.00  0.00     0.029 A 
HETATM   24  C   UNL     1       8.236  22.916  56.896  1.00  0.00     0.116 A 
HETATM   25  N   UNL     1       8.821  22.196  55.917  1.00  0.00    -0.273 NA
HETATM   26  C   UNL     1       8.730  22.689  54.668  1.00  0.00     0.116 A 
HETATM   27  C   UNL     1       8.126  23.899  54.367  1.00  0.00     0.029 A 
ENDBRANCH   1  22
TORSDOF 4
ENDMDL
MODEL 10
REMARK VINA RESULT:      -8.2      4.075      7.200
REMARK  4 active torsions:
REMARK  status: ('A' for Active; 'I' for Inactive)
REMARK    1  A    between atoms: C_5  and  C_6 
REMARK    2  A    between atoms: C_6  and  N_7 
REMARK    3  A    between atoms: C_6  and  C_18 
REMARK    4  A    between atoms: N_7  and  C_8 
ROOT
HETATM    1  C   UNL     1       6.461  28.909  56.605  1.00  0.00     0.290 C 
ENDROOT
BRANCH   1   2
HETATM    2  C   UNL     1       7.790  29.463  57.102  1.00  0.00     0.021 A 
HETATM    3  C   UNL     1       9.026  29.146  56.511  1.00  0.00     0.055 A 
HETATM    4  C   UNL     1      10.208  29.704  56.997  1.00  0.00     0.117 A 
HETATM    5  C   UNL     1      10.201  30.582  58.073  1.00  0.00     0.045 A 
HETATM    6  F   UNL     1      11.366  29.387  56.407  1.00  0.00    -0.206 F 
HETATM    7  C   UNL     1       8.987  30.914  58.669  1.00  0.00     0.046 A 
HETATM    8  C   UNL     1       7.803  30.363  58.180  1.00  0.00     0.125 A 
HETATM    9  F   UNL     1       6.650  30.725  58.759  1.00  0.00    -0.205 F 
ENDBRANCH   1   2
BRANCH   1  10
HETATM   10  N   UNL     1       6.043  27.685  57.342  1.00  0.00     0.101 NA
HETATM   11  H   UNL     1       5.057  27.824  57.576  1.00  0.00     0.317 HD
BRANCH  10  12
HETATM   12  C   UNL     1       6.232  26.364  56.734  1.00  0.00     0.225 C 
HETATM   13  C   UNL     1       6.529  26.402  55.219  1.00  0.00     0.069 C 
HETATM   14  C   UNL     1       6.843  25.007  54.714  1.00  0.00     0.190 C 
HETATM   15  N   UNL     1       8.045  24.492  55.456  1.00  0.00    -0.067 N 
HETATM   16  C   UNL     1       7.303  24.880  53.277  1.00  0.00     0.035 C 
HETATM   17  H   UNL     1       8.795  25.193  55.363  1.00  0.00     0.280 HD
HETATM   18  C   UNL     1       7.776  24.320  56.914  1.00  0.00     0.237 C 
HETATM   19  C   UNL     1       8.509  23.284  54.685  1.00  0.00     0.235 C 
HETATM   20  C   UNL     1       7.402  25.684  57.490  1.00  0.00     0.063 C 
HETATM   21  C   UNL     1       7.993  23.518  53.264  1.00  0.00     0.030 C 
ENDBRANCH  10  12
ENDBRANCH   1  10
BRANCH   1  22
HETATM   22  C   UNL     1       5.313  29.885  56.341  1.00  0.00    -0.018 A 
HETATM   23  C   UNL     1       5.394  30.962  55.450  1.00  0.00     0.029 A 
HETATM   24  C   UNL     1       4.288  31.783  55.277  1.00  0.00     0.116 A 
HETATM   25  N   UNL     1       3.109  31.599  55.905  1.00  0.00    -0.273 NA
HETATM   26  C   UNL     1       3.011  30.519  56.702  1.00  0.00     0.116 A 
HETATM   27  C   UNL     1       4.063  29.649  56.941  1.00  0.00     0.029 A 
ENDBRANCH   1  22
TORSDOF 4
ENDMDL
