MODEL 1
REMARK VINA RESULT:      -9.6      0.000      0.000
REMARK  8 active torsions:
REMARK  status: ('A' for Active; 'I' for Inactive)
REMARK    1  A    between atoms: C_4  and  C_5 
REMARK    2  A    between atoms: C_5  and  C_6 
REMARK    3  A    between atoms: C_10  and  S_11 
REMARK    4  A    between atoms: S_11  and  C_12 
REMARK    5  A    between atoms: C_12  and  C_13 
REMARK       I    between atoms: C_13  and  N_14 
REMARK    6  A    between atoms: N_14  and  N_15 
REMARK       I    between atoms: N_15  and  C_16 
REMARK       I    between atoms: C_16  and  N_17 
REMARK    7  A    between atoms: N_17  and  C_18 
REMARK    8  A    between atoms: C_18  and  C_19 
ROOT
HETATM    1  C   UNL     1       4.921  28.555  51.928  1.00  0.00     0.245 C 
HETATM    2  N   UNL     1       6.120  28.807  52.565  1.00  0.00    -0.265 N 
HETATM    3  O   UNL     1       3.850  28.476  52.535  1.00  0.00    -0.271 OA
HETATM    4  H   UNL     1       6.993  28.481  52.140  1.00  0.00     0.190 HD
ENDROOT
BRANCH   1   5
HETATM    5  C   UNL     1       5.009  28.313  50.439  1.00  0.00     0.187 C 
BRANCH   5   6
HETATM    6  S   UNL     1       4.847  26.551  50.081  1.00  0.00    -0.081 SA
BRANCH   6   7
HETATM    7  C   UNL     1       5.354  25.737  51.518  1.00  0.00     0.185 A 
HETATM    8  N   UNL     1       4.535  25.292  52.513  1.00  0.00    -0.254 N 
HETATM    9  N   UNL     1       5.245  24.801  53.546  1.00  0.00    -0.157 NA
HETATM   10  H   UNL     1       3.521  25.325  52.578  1.00  0.00     0.191 HD
HETATM   11  C   UNL     1       6.502  25.029  53.134  1.00  0.00     0.153 A 
HETATM   12  N   UNL     1       6.604  25.551  51.866  1.00  0.00    -0.206 NA
BRANCH  11  13
HETATM   13  C   UNL     1       7.691  24.749  53.984  1.00  0.00     0.120 C 
BRANCH  13  14
HETATM   14  C   UNL     1       7.764  23.243  54.107  1.00  0.00    -0.051 A 
HETATM   15  C   UNL     1       7.669  22.619  55.361  1.00  0.00     0.007 A 
HETATM   16  C   UNL     1       7.769  21.231  55.471  1.00  0.00     0.001 A 
HETATM   17  C   UNL     1       7.966  20.452  54.331  1.00  0.00     0.000 A 
HETATM   18  C   UNL     1       8.064  21.059  53.082  1.00  0.00     0.001 A 
HETATM   19  C   UNL     1       7.966  22.447  52.968  1.00  0.00     0.007 A 
ENDBRANCH  13  14
ENDBRANCH  11  13
ENDBRANCH   6   7
ENDBRANCH   5   6
ENDBRANCH   1   5
BRANCH   2  20
HETATM   20  N   UNL     1       6.102  28.699  53.981  1.00  0.00    -0.249 N 
HETATM   21  C   UNL     1       7.304  28.358  54.570  1.00  0.00     0.335 C 
HETATM   22  N   UNL     1       7.150  27.969  55.870  1.00  0.00    -0.338 N 
HETATM   23  O   UNL     1       8.371  28.389  53.965  1.00  0.00    -0.246 OA
HETATM   24  H   UNL     1       6.327  28.290  56.357  1.00  0.00     0.164 HD
HETATM   25  H   UNL     1       5.276  28.226  54.345  1.00  0.00     0.192 HD
BRANCH  22  26
HETATM   26  C   UNL     1       8.291  27.613  56.680  1.00  0.00     0.162 C 
BRANCH  26  27
HETATM   27  C   UNL     1       8.897  28.843  57.301  1.00  0.00    -0.040 A 
HETATM   28  C   UNL     1       8.193  29.548  58.288  1.00  0.00     0.009 A 
HETATM   29  C   UNL     1       8.732  30.704  58.855  1.00  0.00     0.001 A 
HETATM   30  C   UNL     1       9.977  31.169  58.437  1.00  0.00     0.000 A 
HETATM   31  C   UNL     1      10.682  30.483  57.450  1.00  0.00     0.001 A 
HETATM   32  C   UNL     1      10.144  29.326  56.881  1.00  0.00     0.009 A 
ENDBRANCH  26  27
ENDBRANCH  22  26
ENDBRANCH   2  20
TORSDOF 8
ENDMDL
MODEL 2
REMARK VINA RESULT:      -9.4      3.581      4.718
REMARK  8 active torsions:
REMARK  status: ('A' for Active; 'I' for Inactive)
REMARK    1  A    between atoms: C_4  and  C_5 
REMARK    2  A    between atoms: C_5  and  C_6 
REMARK    3  A    between atoms: C_10  and  S_11 
REMARK    4  A    between atoms: S_11  and  C_12 
REMARK    5  A    between atoms: C_12  and  C_13 
REMARK       I    between atoms: C_13  and  N_14 
REMARK    6  A    between atoms: N_14  and  N_15 
REMARK       I    between atoms: N_15  and  C_16 
REMARK       I    between atoms: C_16  and  N_17 
REMARK    7  A    between atoms: N_17  and  C_18 
REMARK    8  A    between atoms: C_18  and  C_19 
ROOT
HETATM    1  C   UNL     1       6.344  29.140  56.981  1.00  0.00     0.245 C 
HETATM    2  N   UNL     1       7.486  29.645  57.572  1.00  0.00    -0.265 N 
HETATM    3  O   UNL     1       5.311  28.914  57.616  1.00  0.00    -0.271 OA
HETATM    4  H   UNL     1       8.398  29.452  57.150  1.00  0.00     0.190 HD
ENDROOT
BRANCH   1   5
HETATM    5  C   UNL     1       6.458  28.816  55.509  1.00  0.00     0.187 C 
BRANCH   5   6
HETATM    6  S   UNL     1       4.957  27.996  54.932  1.00  0.00    -0.081 SA
BRANCH   6   7
HETATM    7  C   UNL     1       5.495  26.662  53.976  1.00  0.00     0.185 A 
HETATM    8  N   UNL     1       4.701  25.686  53.451  1.00  0.00    -0.254 N 
HETATM    9  N   UNL     1       5.435  24.729  52.852  1.00  0.00    -0.157 NA
HETATM   10  H   UNL     1       3.691  25.583  53.495  1.00  0.00     0.191 HD
HETATM   11  C   UNL     1       6.682  25.161  53.097  1.00  0.00     0.153 A 
HETATM   12  N   UNL     1       6.752  26.376  53.737  1.00  0.00    -0.206 NA
BRANCH  11  13
HETATM   13  C   UNL     1       7.892  24.384  52.718  1.00  0.00     0.120 C 
BRANCH  13  14
HETATM   14  C   UNL     1       7.835  23.109  53.528  1.00  0.00    -0.051 A 
HETATM   15  C   UNL     1       7.775  23.150  54.931  1.00  0.00     0.007 A 
HETATM   16  C   UNL     1       7.754  21.969  55.674  1.00  0.00     0.001 A 
HETATM   17  C   UNL     1       7.793  20.735  55.027  1.00  0.00     0.000 A 
HETATM   18  C   UNL     1       7.854  20.680  53.637  1.00  0.00     0.001 A 
HETATM   19  C   UNL     1       7.877  21.859  52.890  1.00  0.00     0.007 A 
ENDBRANCH  13  14
ENDBRANCH  11  13
ENDBRANCH   6   7
ENDBRANCH   5   6
ENDBRANCH   1   5
BRANCH   2  20
HETATM   20  N   UNL     1       7.503  29.633  58.992  1.00  0.00    -0.249 N 
HETATM   21  C   UNL     1       8.011  30.769  59.594  1.00  0.00     0.335 C 
HETATM   22  N   UNL     1       8.287  30.571  60.917  1.00  0.00    -0.338 N 
HETATM   23  O   UNL     1       8.202  31.814  58.982  1.00  0.00    -0.246 OA
HETATM   24  H   UNL     1       7.800  29.824  61.388  1.00  0.00     0.164 HD
HETATM   25  H   UNL     1       7.803  28.744  59.391  1.00  0.00     0.192 HD
BRANCH  22  26
HETATM   26  C   UNL     1       8.786  31.648  61.740  1.00  0.00     0.162 C 
BRANCH  26  27
HETATM   27  C   UNL     1       7.715  32.125  62.684  1.00  0.00    -0.040 A 
HETATM   28  C   UNL     1       6.368  31.841  62.416  1.00  0.00     0.009 A 
HETATM   29  C   UNL     1       5.363  32.298  63.269  1.00  0.00     0.001 A 
HETATM   30  C   UNL     1       5.693  33.049  64.395  1.00  0.00     0.000 A 
HETATM   31  C   UNL     1       7.028  33.346  64.667  1.00  0.00     0.001 A 
HETATM   32  C   UNL     1       8.036  32.890  63.814  1.00  0.00     0.009 A 
ENDBRANCH  26  27
ENDBRANCH  22  26
ENDBRANCH   2  20
TORSDOF 8
ENDMDL
MODEL 3
REMARK VINA RESULT:      -9.2      2.681      8.390
REMARK  8 active torsions:
REMARK  status: ('A' for Active; 'I' for Inactive)
REMARK    1  A    between atoms: C_4  and  C_5 
REMARK    2  A    between atoms: C_5  and  C_6 
REMARK    3  A    between atoms: C_10  and  S_11 
REMARK    4  A    between atoms: S_11  and  C_12 
REMARK    5  A    between atoms: C_12  and  C_13 
REMARK       I    between atoms: C_13  and  N_14 
REMARK    6  A    between atoms: N_14  and  N_15 
REMARK       I    between atoms: N_15  and  C_16 
REMARK       I    between atoms: C_16  and  N_17 
REMARK    7  A    between atoms: N_17  and  C_18 
REMARK    8  A    between atoms: C_18  and  C_19 
ROOT
HETATM    1  C   UNL     1       5.099  28.606  54.391  1.00  0.00     0.245 C 
HETATM    2  N   UNL     1       4.416  27.506  54.872  1.00  0.00    -0.265 N 
HETATM    3  O   UNL     1       5.947  28.524  53.499  1.00  0.00    -0.271 OA
HETATM    4  H   UNL     1       4.046  27.522  55.826  1.00  0.00     0.190 HD
ENDROOT
BRANCH   1   5
HETATM    5  C   UNL     1       4.790  29.918  55.074  1.00  0.00     0.187 C 
BRANCH   5   6
HETATM    6  S   UNL     1       4.667  29.679  56.860  1.00  0.00    -0.081 SA
BRANCH   6   7
HETATM    7  C   UNL     1       6.292  29.520  57.421  1.00  0.00     0.185 A 
HETATM    8  N   UNL     1       6.911  28.351  57.749  1.00  0.00    -0.254 N 
HETATM    9  N   UNL     1       8.138  28.574  58.258  1.00  0.00    -0.157 NA
HETATM   10  H   UNL     1       6.561  27.398  57.696  1.00  0.00     0.191 HD
HETATM   11  C   UNL     1       8.182  29.915  58.262  1.00  0.00     0.153 A 
HETATM   12  N   UNL     1       7.085  30.526  57.700  1.00  0.00    -0.206 NA
BRANCH  11  13
HETATM   13  C   UNL     1       9.320  30.682  58.836  1.00  0.00     0.120 C 
BRANCH  13  14
HETATM   14  C   UNL     1       8.847  31.172  60.187  1.00  0.00    -0.051 A 
HETATM   15  C   UNL     1       8.209  32.416  60.318  1.00  0.00     0.007 A 
HETATM   16  C   UNL     1       7.803  32.876  61.571  1.00  0.00     0.001 A 
HETATM   17  C   UNL     1       8.030  32.100  62.707  1.00  0.00     0.000 A 
HETATM   18  C   UNL     1       8.664  30.865  62.591  1.00  0.00     0.001 A 
HETATM   19  C   UNL     1       9.072  30.403  61.339  1.00  0.00     0.007 A 
ENDBRANCH  13  14
ENDBRANCH  11  13
ENDBRANCH   6   7
ENDBRANCH   5   6
ENDBRANCH   1   5
BRANCH   2  20
HETATM   20  N   UNL     1       4.932  26.241  54.485  1.00  0.00    -0.249 N 
HETATM   21  C   UNL     1       5.647  25.564  55.454  1.00  0.00     0.335 C 
HETATM   22  N   UNL     1       6.367  24.526  54.933  1.00  0.00    -0.338 N 
HETATM   23  O   UNL     1       5.637  25.892  56.635  1.00  0.00    -0.246 OA
HETATM   24  H   UNL     1       6.059  24.141  54.054  1.00  0.00     0.164 HD
HETATM   25  H   UNL     1       5.331  26.231  53.546  1.00  0.00     0.192 HD
BRANCH  22  26
HETATM   26  C   UNL     1       7.150  23.664  55.787  1.00  0.00     0.162 C 
BRANCH  26  27
HETATM   27  C   UNL     1       7.624  22.458  55.020  1.00  0.00    -0.040 A 
HETATM   28  C   UNL     1       8.024  21.304  55.708  1.00  0.00     0.009 A 
HETATM   29  C   UNL     1       8.488  20.187  55.011  1.00  0.00     0.001 A 
HETATM   30  C   UNL     1       8.562  20.216  53.620  1.00  0.00     0.000 A 
HETATM   31  C   UNL     1       8.176  21.362  52.925  1.00  0.00     0.001 A 
HETATM   32  C   UNL     1       7.711  22.480  53.621  1.00  0.00     0.009 A 
ENDBRANCH  26  27
ENDBRANCH  22  26
ENDBRANCH   2  20
TORSDOF 8
ENDMDL
MODEL 4
REMARK VINA RESULT:      -9.1      3.491      9.454
REMARK  8 active torsions:
REMARK  status: ('A' for Active; 'I' for Inactive)
REMARK    1  A    between atoms: C_4  and  C_5 
REMARK    2  A    between atoms: C_5  and  C_6 
REMARK    3  A    between atoms: C_10  and  S_11 
REMARK    4  A    between atoms: S_11  and  C_12 
REMARK    5  A    between atoms: C_12  and  C_13 
REMARK       I    between atoms: C_13  and  N_14 
REMARK    6  A    between atoms: N_14  and  N_15 
REMARK       I    between atoms: N_15  and  C_16 
REMARK       I    between atoms: C_16  and  N_17 
REMARK    7  A    between atoms: N_17  and  C_18 
REMARK    8  A    between atoms: C_18  and  C_19 
ROOT
HETATM    1  C   UNL     1       5.437  27.862  56.830  1.00  0.00     0.245 C 
HETATM    2  N   UNL     1       4.829  27.349  55.701  1.00  0.00    -0.265 N 
HETATM    3  O   UNL     1       6.302  27.245  57.456  1.00  0.00    -0.271 OA
HETATM    4  H   UNL     1       3.888  27.666  55.449  1.00  0.00     0.190 HD
ENDROOT
BRANCH   1   5
HETATM    5  C   UNL     1       4.927  29.207  57.294  1.00  0.00     0.187 C 
BRANCH   5   6
HETATM    6  S   UNL     1       6.076  30.512  56.809  1.00  0.00    -0.081 SA
BRANCH   6   7
HETATM    7  C   UNL     1       7.191  30.661  58.121  1.00  0.00     0.185 A 
HETATM    8  N   UNL     1       7.663  29.636  58.885  1.00  0.00    -0.254 N 
HETATM    9  N   UNL     1       8.426  30.093  59.896  1.00  0.00    -0.157 NA
HETATM   10  H   UNL     1       7.482  28.638  58.811  1.00  0.00     0.191 HD
HETATM   11  C   UNL     1       8.333  31.420  59.718  1.00  0.00     0.153 A 
HETATM   12  N   UNL     1       7.626  31.800  58.601  1.00  0.00    -0.206 NA
BRANCH  11  13
HETATM   13  C   UNL     1       8.935  32.403  60.658  1.00  0.00     0.120 C 
BRANCH  13  14
HETATM   14  C   UNL     1       7.928  32.577  61.773  1.00  0.00    -0.051 A 
HETATM   15  C   UNL     1       6.576  32.824  61.489  1.00  0.00     0.007 A 
HETATM   16  C   UNL     1       5.658  33.016  62.522  1.00  0.00     0.001 A 
HETATM   17  C   UNL     1       6.079  32.963  63.850  1.00  0.00     0.000 A 
HETATM   18  C   UNL     1       7.418  32.721  64.146  1.00  0.00     0.001 A 
HETATM   19  C   UNL     1       8.339  32.531  63.115  1.00  0.00     0.007 A 
ENDBRANCH  13  14
ENDBRANCH  11  13
ENDBRANCH   6   7
ENDBRANCH   5   6
ENDBRANCH   1   5
BRANCH   2  20
HETATM   20  N   UNL     1       5.048  25.968  55.454  1.00  0.00    -0.249 N 
HETATM   21  C   UNL     1       6.068  25.673  54.571  1.00  0.00     0.335 C 
HETATM   22  N   UNL     1       6.022  24.376  54.144  1.00  0.00    -0.338 N 
HETATM   23  O   UNL     1       6.896  26.504  54.211  1.00  0.00    -0.246 OA
HETATM   24  H   UNL     1       5.539  23.710  54.727  1.00  0.00     0.164 HD
HETATM   25  H   UNL     1       4.189  25.430  55.340  1.00  0.00     0.192 HD
BRANCH  22  26
HETATM   26  C   UNL     1       7.026  23.852  53.248  1.00  0.00     0.162 C 
BRANCH  26  27
HETATM   27  C   UNL     1       7.564  22.547  53.770  1.00  0.00    -0.040 A 
HETATM   28  C   UNL     1       7.658  22.331  55.152  1.00  0.00     0.009 A 
HETATM   29  C   UNL     1       8.177  21.135  55.650  1.00  0.00     0.001 A 
HETATM   30  C   UNL     1       8.613  20.146  54.771  1.00  0.00     0.000 A 
HETATM   31  C   UNL     1       8.535  20.353  53.395  1.00  0.00     0.001 A 
HETATM   32  C   UNL     1       8.015  21.550  52.894  1.00  0.00     0.009 A 
ENDBRANCH  26  27
ENDBRANCH  22  26
ENDBRANCH   2  20
TORSDOF 8
ENDMDL
MODEL 5
REMARK VINA RESULT:      -8.8      3.548      4.498
REMARK  8 active torsions:
REMARK  status: ('A' for Active; 'I' for Inactive)
REMARK    1  A    between atoms: C_4  and  C_5 
REMARK    2  A    between atoms: C_5  and  C_6 
REMARK    3  A    between atoms: C_10  and  S_11 
REMARK    4  A    between atoms: S_11  and  C_12 
REMARK    5  A    between atoms: C_12  and  C_13 
REMARK       I    between atoms: C_13  and  N_14 
REMARK    6  A    between atoms: N_14  and  N_15 
REMARK       I    between atoms: N_15  and  C_16 
REMARK       I    between atoms: C_16  and  N_17 
REMARK    7  A    between atoms: N_17  and  C_18 
REMARK    8  A    between atoms: C_18  and  C_19 
ROOT
HETATM    1  C   UNL     1       4.951  29.773  55.976  1.00  0.00     0.245 C 
HETATM    2  N   UNL     1       5.875  30.126  56.940  1.00  0.00    -0.265 N 
HETATM    3  O   UNL     1       3.741  29.970  56.113  1.00  0.00    -0.271 OA
HETATM    4  H   UNL     1       6.763  29.619  56.994  1.00  0.00     0.190 HD
ENDROOT
BRANCH   1   5
HETATM    5  C   UNL     1       5.508  29.064  54.763  1.00  0.00     0.187 C 
BRANCH   5   6
HETATM    6  S   UNL     1       4.185  28.222  53.869  1.00  0.00    -0.081 SA
BRANCH   6   7
HETATM    7  C   UNL     1       4.904  26.796  53.211  1.00  0.00     0.185 A 
HETATM    8  N   UNL     1       4.265  25.613  52.985  1.00  0.00    -0.254 N 
HETATM    9  N   UNL     1       5.126  24.664  52.572  1.00  0.00    -0.157 NA
HETATM   10  H   UNL     1       3.287  25.371  53.122  1.00  0.00     0.191 HD
HETATM   11  C   UNL     1       6.292  25.326  52.621  1.00  0.00     0.153 A 
HETATM   12  N   UNL     1       6.182  26.656  52.956  1.00  0.00    -0.206 NA
BRANCH  11  13
HETATM   13  C   UNL     1       7.601  24.675  52.347  1.00  0.00     0.120 C 
BRANCH  13  14
HETATM   14  C   UNL     1       7.722  23.552  53.352  1.00  0.00    -0.051 A 
HETATM   15  C   UNL     1       7.816  22.216  52.931  1.00  0.00     0.007 A 
HETATM   16  C   UNL     1       7.896  21.182  53.865  1.00  0.00     0.001 A 
HETATM   17  C   UNL     1       7.882  21.470  55.229  1.00  0.00     0.000 A 
HETATM   18  C   UNL     1       7.787  22.791  55.661  1.00  0.00     0.001 A 
HETATM   19  C   UNL     1       7.705  23.827  54.729  1.00  0.00     0.007 A 
ENDBRANCH  13  14
ENDBRANCH  11  13
ENDBRANCH   6   7
ENDBRANCH   5   6
ENDBRANCH   1   5
BRANCH   2  20
HETATM   20  N   UNL     1       5.342  30.475  58.209  1.00  0.00    -0.249 N 
HETATM   21  C   UNL     1       5.561  31.778  58.612  1.00  0.00     0.335 C 
HETATM   22  N   UNL     1       5.307  31.955  59.942  1.00  0.00    -0.338 N 
HETATM   23  O   UNL     1       5.960  32.650  57.848  1.00  0.00    -0.246 OA
HETATM   24  H   UNL     1       4.686  31.298  60.390  1.00  0.00     0.164 HD
HETATM   25  H   UNL     1       5.476  29.758  58.921  1.00  0.00     0.192 HD
BRANCH  22  26
HETATM   26  C   UNL     1       5.433  33.257  60.555  1.00  0.00     0.162 C 
BRANCH  26  27
HETATM   27  C   UNL     1       6.268  33.169  61.804  1.00  0.00    -0.040 A 
HETATM   28  C   UNL     1       5.914  33.914  62.938  1.00  0.00     0.009 A 
HETATM   29  C   UNL     1       6.694  33.861  64.094  1.00  0.00     0.001 A 
HETATM   30  C   UNL     1       7.838  33.066  64.127  1.00  0.00     0.000 A 
HETATM   31  C   UNL     1       8.206  32.328  63.003  1.00  0.00     0.001 A 
HETATM   32  C   UNL     1       7.427  32.380  61.844  1.00  0.00     0.009 A 
ENDBRANCH  26  27
ENDBRANCH  22  26
ENDBRANCH   2  20
TORSDOF 8
ENDMDL
MODEL 6
REMARK VINA RESULT:      -8.6      4.062      5.250
REMARK  8 active torsions:
REMARK  status: ('A' for Active; 'I' for Inactive)
REMARK    1  A    between atoms: C_4  and  C_5 
REMARK    2  A    between atoms: C_5  and  C_6 
REMARK    3  A    between atoms: C_10  and  S_11 
REMARK    4  A    between atoms: S_11  and  C_12 
REMARK    5  A    between atoms: C_12  and  C_13 
REMARK       I    between atoms: C_13  and  N_14 
REMARK    6  A    between atoms: N_14  and  N_15 
REMARK       I    between atoms: N_15  and  C_16 
REMARK       I    between atoms: C_16  and  N_17 
REMARK    7  A    between atoms: N_17  and  C_18 
REMARK    8  A    between atoms: C_18  and  C_19 
ROOT
HETATM    1  C   UNL     1       5.308  29.865  56.716  1.00  0.00     0.245 C 
HETATM    2  N   UNL     1       6.333  30.510  57.380  1.00  0.00    -0.265 N 
HETATM    3  O   UNL     1       4.154  29.829  57.151  1.00  0.00    -0.271 OA
HETATM    4  H   UNL     1       7.299  30.203  57.233  1.00  0.00     0.190 HD
ENDROOT
BRANCH   1   5
HETATM    5  C   UNL     1       5.702  29.144  55.448  1.00  0.00     0.187 C 
BRANCH   5   6
HETATM    6  S   UNL     1       7.344  28.416  55.627  1.00  0.00    -0.081 SA
BRANCH   6   7
HETATM    7  C   UNL     1       7.079  26.729  55.889  1.00  0.00     0.185 A 
HETATM    8  N   UNL     1       5.874  26.141  56.135  1.00  0.00    -0.254 N 
HETATM    9  N   UNL     1       6.017  24.830  56.406  1.00  0.00    -0.157 NA
HETATM   10  H   UNL     1       4.948  26.559  56.176  1.00  0.00     0.191 HD
HETATM   11  C   UNL     1       7.352  24.696  56.362  1.00  0.00     0.153 A 
HETATM   12  N   UNL     1       8.031  25.833  55.990  1.00  0.00    -0.206 NA
BRANCH  11  13
HETATM   13  C   UNL     1       8.045  23.423  56.697  1.00  0.00     0.120 C 
BRANCH  13  14
HETATM   14  C   UNL     1       7.975  22.574  55.447  1.00  0.00    -0.051 A 
HETATM   15  C   UNL     1       7.970  21.172  55.530  1.00  0.00     0.007 A 
HETATM   16  C   UNL     1       7.937  20.394  54.372  1.00  0.00     0.001 A 
HETATM   17  C   UNL     1       7.907  21.006  53.119  1.00  0.00     0.000 A 
HETATM   18  C   UNL     1       7.913  22.395  53.023  1.00  0.00     0.001 A 
HETATM   19  C   UNL     1       7.948  23.176  54.180  1.00  0.00     0.007 A 
ENDBRANCH  13  14
ENDBRANCH  11  13
ENDBRANCH   6   7
ENDBRANCH   5   6
ENDBRANCH   1   5
BRANCH   2  20
HETATM   20  N   UNL     1       6.057  30.894  58.719  1.00  0.00    -0.249 N 
HETATM   21  C   UNL     1       7.094  31.512  59.391  1.00  0.00     0.335 C 
HETATM   22  N   UNL     1       6.875  31.568  60.738  1.00  0.00    -0.338 N 
HETATM   23  O   UNL     1       8.095  31.934  58.821  1.00  0.00    -0.246 OA
HETATM   24  H   UNL     1       5.920  31.509  61.057  1.00  0.00     0.164 HD
HETATM   25  H   UNL     1       5.537  30.194  59.247  1.00  0.00     0.192 HD
BRANCH  22  26
HETATM   26  C   UNL     1       7.820  32.215  61.618  1.00  0.00     0.162 C 
BRANCH  26  27
HETATM   27  C   UNL     1       7.131  32.691  62.868  1.00  0.00    -0.040 A 
HETATM   28  C   UNL     1       5.735  32.816  62.893  1.00  0.00     0.009 A 
HETATM   29  C   UNL     1       5.084  33.280  64.038  1.00  0.00     0.001 A 
HETATM   30  C   UNL     1       5.824  33.629  65.166  1.00  0.00     0.000 A 
HETATM   31  C   UNL     1       7.213  33.518  65.150  1.00  0.00     0.001 A 
HETATM   32  C   UNL     1       7.866  33.054  64.005  1.00  0.00     0.009 A 
ENDBRANCH  26  27
ENDBRANCH  22  26
ENDBRANCH   2  20
TORSDOF 8
ENDMDL
MODEL 7
REMARK VINA RESULT:      -8.5      4.316      9.762
REMARK  8 active torsions:
REMARK  status: ('A' for Active; 'I' for Inactive)
REMARK    1  A    between atoms: C_4  and  C_5 
REMARK    2  A    between atoms: C_5  and  C_6 
REMARK    3  A    between atoms: C_10  and  S_11 
REMARK    4  A    between atoms: S_11  and  C_12 
REMARK    5  A    between atoms: C_12  and  C_13 
REMARK       I    between atoms: C_13  and  N_14 
REMARK    6  A    between atoms: N_14  and  N_15 
REMARK       I    between atoms: N_15  and  C_16 
REMARK       I    between atoms: C_16  and  N_17 
REMARK    7  A    between atoms: N_17  and  C_18 
REMARK    8  A    between atoms: C_18  and  C_19 
ROOT
HETATM    1  C   UNL     1       4.778  28.738  56.163  1.00  0.00     0.245 C 
HETATM    2  N   UNL     1       4.911  27.496  56.752  1.00  0.00    -0.265 N 
HETATM    3  O   UNL     1       4.539  28.881  54.961  1.00  0.00    -0.271 OA
HETATM    4  H   UNL     1       5.478  27.400  57.600  1.00  0.00     0.190 HD
ENDROOT
BRANCH   1   5
HETATM    5  C   UNL     1       5.010  29.923  57.073  1.00  0.00     0.187 C 
BRANCH   5   6
HETATM    6  S   UNL     1       3.433  30.651  57.566  1.00  0.00    -0.081 SA
BRANCH   6   7
HETATM    7  C   UNL     1       3.744  31.472  59.053  1.00  0.00     0.185 A 
HETATM    8  N   UNL     1       3.137  31.217  60.246  1.00  0.00    -0.254 N 
HETATM    9  N   UNL     1       3.517  32.102  61.186  1.00  0.00    -0.157 NA
HETATM   10  H   UNL     1       2.445  30.510  60.481  1.00  0.00     0.191 HD
HETATM   11  C   UNL     1       4.323  32.909  60.479  1.00  0.00     0.153 A 
HETATM   12  N   UNL     1       4.529  32.515  59.177  1.00  0.00    -0.206 NA
BRANCH  11  13
HETATM   13  C   UNL     1       4.938  34.137  61.050  1.00  0.00     0.120 C 
BRANCH  13  14
HETATM   14  C   UNL     1       6.015  33.657  61.996  1.00  0.00    -0.051 A 
HETATM   15  C   UNL     1       7.060  32.837  61.540  1.00  0.00     0.007 A 
HETATM   16  C   UNL     1       8.033  32.371  62.425  1.00  0.00     0.001 A 
HETATM   17  C   UNL     1       7.975  32.718  63.774  1.00  0.00     0.000 A 
HETATM   18  C   UNL     1       6.943  33.529  64.240  1.00  0.00     0.001 A 
HETATM   19  C   UNL     1       5.967  33.995  63.358  1.00  0.00     0.007 A 
ENDBRANCH  13  14
ENDBRANCH  11  13
ENDBRANCH   6   7
ENDBRANCH   5   6
ENDBRANCH   1   5
BRANCH   2  20
HETATM   20  N   UNL     1       5.033  26.399  55.860  1.00  0.00    -0.249 N 
HETATM   21  C   UNL     1       6.322  26.067  55.492  1.00  0.00     0.335 C 
HETATM   22  N   UNL     1       6.351  25.230  54.413  1.00  0.00    -0.338 N 
HETATM   23  O   UNL     1       7.310  26.506  56.071  1.00  0.00    -0.246 OA
HETATM   24  H   UNL     1       5.527  24.678  54.230  1.00  0.00     0.164 HD
HETATM   25  H   UNL     1       4.341  26.401  55.111  1.00  0.00     0.192 HD
BRANCH  22  26
HETATM   26  C   UNL     1       7.603  24.728  53.896  1.00  0.00     0.162 C 
BRANCH  26  27
HETATM   27  C   UNL     1       7.693  23.239  54.095  1.00  0.00    -0.040 A 
HETATM   28  C   UNL     1       7.709  22.706  55.391  1.00  0.00     0.009 A 
HETATM   29  C   UNL     1       7.817  21.328  55.591  1.00  0.00     0.001 A 
HETATM   30  C   UNL     1       7.916  20.472  54.496  1.00  0.00     0.000 A 
HETATM   31  C   UNL     1       7.911  20.991  53.202  1.00  0.00     0.001 A 
HETATM   32  C   UNL     1       7.803  22.370  53.001  1.00  0.00     0.009 A 
ENDBRANCH  26  27
ENDBRANCH  22  26
ENDBRANCH   2  20
TORSDOF 8
ENDMDL
MODEL 8
REMARK VINA RESULT:      -8.5      4.434     10.263
REMARK  8 active torsions:
REMARK  status: ('A' for Active; 'I' for Inactive)
REMARK    1  A    between atoms: C_4  and  C_5 
REMARK    2  A    between atoms: C_5  and  C_6 
REMARK    3  A    between atoms: C_10  and  S_11 
REMARK    4  A    between atoms: S_11  and  C_12 
REMARK    5  A    between atoms: C_12  and  C_13 
REMARK       I    between atoms: C_13  and  N_14 
REMARK    6  A    between atoms: N_14  and  N_15 
REMARK       I    between atoms: N_15  and  C_16 
REMARK       I    between atoms: C_16  and  N_17 
REMARK    7  A    between atoms: N_17  and  C_18 
REMARK    8  A    between atoms: C_18  and  C_19 
ROOT
HETATM    1  C   UNL     1       7.310  28.881  57.679  1.00  0.00     0.245 C 
HETATM    2  N   UNL     1       6.569  28.566  56.557  1.00  0.00    -0.265 N 
HETATM    3  O   UNL     1       7.994  28.047  58.278  1.00  0.00    -0.271 OA
HETATM    4  H   UNL     1       5.740  29.124  56.330  1.00  0.00     0.190 HD
ENDROOT
BRANCH   1   5
HETATM    5  C   UNL     1       7.180  30.304  58.172  1.00  0.00     0.187 C 
BRANCH   5   6
HETATM    6  S   UNL     1       8.789  30.933  58.695  1.00  0.00    -0.081 SA
BRANCH   6   7
HETATM    7  C   UNL     1       8.673  31.139  60.406  1.00  0.00     0.185 A 
HETATM    8  N   UNL     1       8.788  30.150  61.337  1.00  0.00    -0.254 N 
HETATM    9  N   UNL     1       8.538  30.614  62.576  1.00  0.00    -0.157 NA
HETATM   10  H   UNL     1       8.985  29.161  61.208  1.00  0.00     0.191 HD
HETATM   11  C   UNL     1       8.222  31.893  62.320  1.00  0.00     0.153 A 
HETATM   12  N   UNL     1       8.351  32.262  61.001  1.00  0.00    -0.206 NA
BRANCH  11  13
HETATM   13  C   UNL     1       7.759  32.836  63.373  1.00  0.00     0.120 C 
BRANCH  13  14
HETATM   14  C   UNL     1       6.398  33.320  62.925  1.00  0.00    -0.051 A 
HETATM   15  C   UNL     1       6.183  34.672  62.613  1.00  0.00     0.007 A 
HETATM   16  C   UNL     1       4.917  35.118  62.230  1.00  0.00     0.001 A 
HETATM   17  C   UNL     1       3.853  34.220  62.154  1.00  0.00     0.000 A 
HETATM   18  C   UNL     1       4.053  32.876  62.462  1.00  0.00     0.001 A 
HETATM   19  C   UNL     1       5.317  32.428  62.847  1.00  0.00     0.007 A 
ENDBRANCH  13  14
ENDBRANCH  11  13
ENDBRANCH   6   7
ENDBRANCH   5   6
ENDBRANCH   1   5
BRANCH   2  20
HETATM   20  N   UNL     1       6.413  27.181  56.288  1.00  0.00    -0.249 N 
HETATM   21  C   UNL     1       6.998  26.729  55.121  1.00  0.00     0.335 C 
HETATM   22  N   UNL     1       6.554  25.486  54.769  1.00  0.00    -0.338 N 
HETATM   23  O   UNL     1       7.806  27.396  54.483  1.00  0.00    -0.246 OA
HETATM   24  H   UNL     1       6.172  24.904  55.499  1.00  0.00     0.164 HD
HETATM   25  H   UNL     1       5.477  26.828  56.484  1.00  0.00     0.192 HD
BRANCH  22  26
HETATM   26  C   UNL     1       7.075  24.813  53.602  1.00  0.00     0.162 C 
BRANCH  26  27
HETATM   27  C   UNL     1       7.394  23.378  53.924  1.00  0.00    -0.040 A 
HETATM   28  C   UNL     1       7.394  22.942  55.257  1.00  0.00     0.009 A 
HETATM   29  C   UNL     1       7.712  21.620  55.571  1.00  0.00     0.001 A 
HETATM   30  C   UNL     1       8.040  20.723  54.557  1.00  0.00     0.000 A 
HETATM   31  C   UNL     1       8.054  21.147  53.229  1.00  0.00     0.001 A 
HETATM   32  C   UNL     1       7.736  22.470  52.912  1.00  0.00     0.009 A 
ENDBRANCH  26  27
ENDBRANCH  22  26
ENDBRANCH   2  20
TORSDOF 8
ENDMDL
MODEL 9
REMARK VINA RESULT:      -8.5      5.453      7.091
REMARK  8 active torsions:
REMARK  status: ('A' for Active; 'I' for Inactive)
REMARK    1  A    between atoms: C_4  and  C_5 
REMARK    2  A    between atoms: C_5  and  C_6 
REMARK    3  A    between atoms: C_10  and  S_11 
REMARK    4  A    between atoms: S_11  and  C_12 
REMARK    5  A    between atoms: C_12  and  C_13 
REMARK       I    between atoms: C_13  and  N_14 
REMARK    6  A    between atoms: N_14  and  N_15 
REMARK       I    between atoms: N_15  and  C_16 
REMARK       I    between atoms: C_16  and  N_17 
REMARK    7  A    between atoms: N_17  and  C_18 
REMARK    8  A    between atoms: C_18  and  C_19 
ROOT
HETATM    1  C   UNL     1       7.121  31.168  58.664  1.00  0.00     0.245 C 
HETATM    2  N   UNL     1       7.320  30.776  59.973  1.00  0.00    -0.265 N 
HETATM    3  O   UNL     1       6.656  32.271  58.364  1.00  0.00    -0.271 OA
HETATM    4  H   UNL     1       7.316  29.779  60.206  1.00  0.00     0.190 HD
ENDROOT
BRANCH   1   5
HETATM    5  C   UNL     1       7.448  30.132  57.614  1.00  0.00     0.187 C 
BRANCH   5   6
HETATM    6  S   UNL     1       6.034  29.888  56.517  1.00  0.00    -0.081 SA
BRANCH   6   7
HETATM    7  C   UNL     1       6.547  28.721  55.351  1.00  0.00     0.185 A 
HETATM    8  N   UNL     1       7.736  28.729  54.685  1.00  0.00    -0.254 N 
HETATM    9  N   UNL     1       7.786  27.748  53.764  1.00  0.00    -0.157 NA
HETATM   10  H   UNL     1       8.518  29.373  54.768  1.00  0.00     0.191 HD
HETATM   11  C   UNL     1       6.563  27.209  53.886  1.00  0.00     0.153 A 
HETATM   12  N   UNL     1       5.797  27.748  54.893  1.00  0.00    -0.206 NA
BRANCH  11  13
HETATM   13  C   UNL     1       6.069  26.122  52.998  1.00  0.00     0.120 C 
BRANCH  13  14
HETATM   14  C   UNL     1       6.778  24.866  53.451  1.00  0.00    -0.051 A 
HETATM   15  C   UNL     1       7.593  24.141  52.566  1.00  0.00     0.007 A 
HETATM   16  C   UNL     1       8.218  22.964  52.981  1.00  0.00     0.001 A 
HETATM   17  C   UNL     1       8.038  22.499  54.283  1.00  0.00     0.000 A 
HETATM   18  C   UNL     1       7.232  23.207  55.170  1.00  0.00     0.001 A 
HETATM   19  C   UNL     1       6.603  24.383  54.757  1.00  0.00     0.007 A 
ENDBRANCH  13  14
ENDBRANCH  11  13
ENDBRANCH   6   7
ENDBRANCH   5   6
ENDBRANCH   1   5
BRANCH   2  20
HETATM   20  N   UNL     1       6.710  31.593  60.962  1.00  0.00    -0.249 N 
HETATM   21  C   UNL     1       7.537  32.009  61.988  1.00  0.00     0.335 C 
HETATM   22  N   UNL     1       6.834  32.513  63.045  1.00  0.00    -0.338 N 
HETATM   23  O   UNL     1       8.758  31.906  61.938  1.00  0.00    -0.246 OA
HETATM   24  H   UNL     1       5.904  32.858  62.863  1.00  0.00     0.164 HD
HETATM   25  H   UNL     1       5.781  31.277  61.238  1.00  0.00     0.192 HD
BRANCH  22  26
HETATM   26  C   UNL     1       7.513  33.043  64.204  1.00  0.00     0.162 C 
BRANCH  26  27
HETATM   27  C   UNL     1       6.515  33.561  65.204  1.00  0.00    -0.040 A 
HETATM   28  C   UNL     1       6.953  34.040  66.447  1.00  0.00     0.009 A 
HETATM   29  C   UNL     1       6.037  34.501  67.393  1.00  0.00     0.001 A 
HETATM   30  C   UNL     1       4.673  34.481  67.109  1.00  0.00     0.000 A 
HETATM   31  C   UNL     1       4.224  33.998  65.881  1.00  0.00     0.001 A 
HETATM   32  C   UNL     1       5.140  33.536  64.932  1.00  0.00     0.009 A 
ENDBRANCH  26  27
ENDBRANCH  22  26
ENDBRANCH   2  20
TORSDOF 8
ENDMDL
MODEL 10
REMARK VINA RESULT:      -8.2      2.848      3.722
REMARK  8 active torsions:
REMARK  status: ('A' for Active; 'I' for Inactive)
REMARK    1  A    between atoms: C_4  and  C_5 
REMARK    2  A    between atoms: C_5  and  C_6 
REMARK    3  A    between atoms: C_10  and  S_11 
REMARK    4  A    between atoms: S_11  and  C_12 
REMARK    5  A    between atoms: C_12  and  C_13 
REMARK       I    between atoms: C_13  and  N_14 
REMARK    6  A    between atoms: N_14  and  N_15 
REMARK       I    between atoms: N_15  and  C_16 
REMARK       I    between atoms: C_16  and  N_17 
REMARK    7  A    between atoms: N_17  and  C_18 
REMARK    8  A    between atoms: C_18  and  C_19 
ROOT
HETATM    1  C   UNL     1       4.826  29.110  55.732  1.00  0.00     0.245 C 
HETATM    2  N   UNL     1       3.813  29.509  56.581  1.00  0.00    -0.265 N 
HETATM    3  O   UNL     1       5.957  28.826  56.135  1.00  0.00    -0.271 OA
HETATM    4  H   UNL     1       3.057  30.099  56.219  1.00  0.00     0.190 HD
ENDROOT
BRANCH   1   5
HETATM    5  C   UNL     1       4.484  29.105  54.260  1.00  0.00     0.187 C 
BRANCH   5   6
HETATM    6  S   UNL     1       5.806  28.322  53.313  1.00  0.00    -0.081 SA
BRANCH   6   7
HETATM    7  C   UNL     1       5.977  26.737  53.976  1.00  0.00     0.185 A 
HETATM    8  N   UNL     1       4.964  25.851  54.193  1.00  0.00    -0.254 N 
HETATM    9  N   UNL     1       5.408  24.747  54.823  1.00  0.00    -0.157 NA
HETATM   10  H   UNL     1       3.973  25.939  53.985  1.00  0.00     0.191 HD
HETATM   11  C   UNL     1       6.701  25.052  55.011  1.00  0.00     0.153 A 
HETATM   12  N   UNL     1       7.096  26.245  54.451  1.00  0.00    -0.206 NA
BRANCH  11  13
HETATM   13  C   UNL     1       7.633  24.178  55.772  1.00  0.00     0.120 C 
BRANCH  13  14
HETATM   14  C   UNL     1       7.777  22.915  54.953  1.00  0.00    -0.051 A 
HETATM   15  C   UNL     1       7.706  21.651  55.560  1.00  0.00     0.007 A 
HETATM   16  C   UNL     1       7.870  20.491  54.803  1.00  0.00     0.001 A 
HETATM   17  C   UNL     1       8.107  20.578  53.432  1.00  0.00     0.000 A 
HETATM   18  C   UNL     1       8.181  21.826  52.817  1.00  0.00     0.001 A 
HETATM   19  C   UNL     1       8.019  22.989  53.572  1.00  0.00     0.007 A 
ENDBRANCH  13  14
ENDBRANCH  11  13
ENDBRANCH   6   7
ENDBRANCH   5   6
ENDBRANCH   1   5
BRANCH   2  20
HETATM   20  N   UNL     1       4.210  29.842  57.903  1.00  0.00    -0.249 N 
HETATM   21  C   UNL     1       4.694  31.124  58.077  1.00  0.00     0.335 C 
HETATM   22  N   UNL     1       5.338  31.274  59.273  1.00  0.00    -0.338 N 
HETATM   23  O   UNL     1       4.566  32.002  57.231  1.00  0.00    -0.246 OA
HETATM   24  H   UNL     1       5.104  30.628  60.011  1.00  0.00     0.164 HD
HETATM   25  H   UNL     1       4.727  29.101  58.374  1.00  0.00     0.192 HD
BRANCH  22  26
HETATM   26  C   UNL     1       5.881  32.552  59.669  1.00  0.00     0.162 C 
BRANCH  26  27
HETATM   27  C   UNL     1       7.203  32.367  60.364  1.00  0.00    -0.040 A 
HETATM   28  C   UNL     1       8.370  32.177  59.610  1.00  0.00     0.009 A 
HETATM   29  C   UNL     1       9.599  31.979  60.241  1.00  0.00     0.001 A 
HETATM   30  C   UNL     1       9.672  31.964  61.632  1.00  0.00     0.000 A 
HETATM   31  C   UNL     1       8.517  32.142  62.393  1.00  0.00     0.001 A 
HETATM   32  C   UNL     1       7.286  32.339  61.763  1.00  0.00     0.009 A 
ENDBRANCH  26  27
ENDBRANCH  22  26
ENDBRANCH   2  20
TORSDOF 8
ENDMDL
