MODEL 1
REMARK VINA RESULT:     -10.6      0.000      0.000
REMARK  11 active torsions:
REMARK  status: ('A' for Active; 'I' for Inactive)
REMARK    1  A    between atoms: C_2  and  C_3 
REMARK    2  A    between atoms: C_3  and  C_4 
REMARK    3  A    between atoms: C_4  and  O_5 
REMARK    4  A    between atoms: O_5  and  C_6 
REMARK    5  A    between atoms: C_8  and  C_9 
REMARK       I    between atoms: C_9  and  N_10 
REMARK    6  A    between atoms: N_10  and  C_11 
REMARK    7  A    between atoms: C_11  and  N_12 
REMARK    8  A    between atoms: N_12  and  C_13 
REMARK    9  A    between atoms: C_15  and  O_16 
REMARK   10  A    between atoms: C_17  and  C_18 
REMARK   11  A    between atoms: C_25  and  C_26 
ROOT
HETATM    1  C   UNL     1       6.917  29.562  57.877  1.00  0.00     0.036 C 
HETATM    2  C   UNL     1       5.659  29.084  57.509  1.00  0.00     0.067 C 
HETATM    3  C   UNL     1       5.510  27.798  56.988  1.00  0.00     0.082 C 
HETATM    4  C   UNL     1       6.618  26.954  56.839  1.00  0.00     0.050 C 
HETATM    5  C   UNL     1       7.842  27.382  57.384  1.00  0.00     0.021 C 
HETATM    6  C   UNL     1       7.989  28.671  57.914  1.00  0.00     0.030 C 
ENDROOT
BRANCH   1   7
HETATM    7  N   UNL     1       7.161  30.918  58.180  1.00  0.00    -0.333 N 
HETATM    8  H   UNL     1       6.379  31.560  58.042  1.00  0.00     0.168 HD
BRANCH   7   9
HETATM    9  C   UNL     1       8.172  31.435  58.962  1.00  0.00     0.179 C 
HETATM   10  S   UNL     1       9.821  31.518  58.669  1.00  0.00    -0.040 SA
BRANCH   9  11
HETATM   11  N   UNL     1       7.790  31.915  60.195  1.00  0.00    -0.299 N 
HETATM   12  C   UNL     1       6.538  32.232  60.698  1.00  0.00     0.257 C 
HETATM   13  O   UNL     1       5.495  32.205  60.055  1.00  0.00    -0.267 OA
HETATM   14  H   UNL     1       8.585  32.028  60.811  1.00  0.00     0.171 HD
BRANCH  12  15
HETATM   15  C   UNL     1       6.566  32.667  62.121  1.00  0.00     0.035 A 
HETATM   16  C   UNL     1       5.370  32.908  62.808  1.00  0.00     0.053 A 
HETATM   17  C   UNL     1       5.404  33.181  64.174  1.00  0.00     0.069 A 
HETATM   18  C   UNL     1       6.623  33.291  64.839  1.00  0.00     0.037 A 
HETATM   19  C   UNL     1       7.817  33.088  64.143  1.00  0.00     0.004 A 
HETATM   20  C   UNL     1       7.793  32.773  62.781  1.00  0.00     0.017 A 
BRANCH  17  21
HETATM   21  O   UNL     1       4.254  33.398  64.879  1.00  0.00    -0.351 OA
BRANCH  21  22
HETATM   22  C   UNL     1       3.420  34.396  64.270  1.00  0.00     0.175 C 
BRANCH  22  23
HETATM   23  C   UNL     1       3.812  35.795  64.746  1.00  0.00     0.026 C 
BRANCH  23  24
HETATM   24  C   UNL     1       4.217  36.712  63.592  1.00  0.00    -0.002 C 
HETATM   25  C   UNL     1       5.731  36.810  63.468  1.00  0.00     0.005 C 
ENDBRANCH  23  24
ENDBRANCH  22  23
ENDBRANCH  21  22
ENDBRANCH  17  21
ENDBRANCH  12  15
ENDBRANCH   9  11
ENDBRANCH   7   9
ENDBRANCH   1   7
BRANCH   3  26
HETATM   26  O   UNL     1       4.261  27.395  56.596  1.00  0.00    -0.360 OA
HETATM   27  H   UNL     1       3.616  28.086  56.821  1.00  0.00     0.217 HD
ENDBRANCH   3  26
BRANCH   4  28
HETATM   28  C   UNL     1       6.608  25.744  56.013  1.00  0.00     0.183 A 
HETATM   29  O   UNL     1       6.735  25.927  54.659  1.00  0.00    -0.289 OA
HETATM   30  C   UNL     1       7.058  24.699  54.179  1.00  0.00     0.106 A 
HETATM   31  C   UNL     1       7.073  23.821  55.246  1.00  0.00     0.094 A 
HETATM   32  C   UNL     1       7.384  24.372  52.870  1.00  0.00     0.040 A 
HETATM   33  N   UNL     1       6.746  24.485  56.403  1.00  0.00    -0.221 NA
HETATM   34  C   UNL     1       7.456  22.492  55.020  1.00  0.00     0.041 A 
HETATM   35  C   UNL     1       7.844  22.116  53.717  1.00  0.00    -0.056 A 
HETATM   36  C   UNL     1       7.796  23.051  52.664  1.00  0.00     0.010 A 
BRANCH  35  37
HETATM   37  C   UNL     1       8.388  20.731  53.470  1.00  0.00     0.034 C 
HETATM   38  C   UNL     1       8.700  20.019  54.779  1.00  0.00     0.010 C 
ENDBRANCH  35  37
ENDBRANCH   4  28
TORSDOF 11
ENDMDL
MODEL 2
REMARK VINA RESULT:     -10.5      1.148      1.148
REMARK  11 active torsions:
REMARK  status: ('A' for Active; 'I' for Inactive)
REMARK    1  A    between atoms: C_2  and  C_3 
REMARK    2  A    between atoms: C_3  and  C_4 
REMARK    3  A    between atoms: C_4  and  O_5 
REMARK    4  A    between atoms: O_5  and  C_6 
REMARK    5  A    between atoms: C_8  and  C_9 
REMARK       I    between atoms: C_9  and  N_10 
REMARK    6  A    between atoms: N_10  and  C_11 
REMARK    7  A    between atoms: C_11  and  N_12 
REMARK    8  A    between atoms: N_12  and  C_13 
REMARK    9  A    between atoms: C_15  and  O_16 
REMARK   10  A    between atoms: C_17  and  C_18 
REMARK   11  A    between atoms: C_25  and  C_26 
ROOT
HETATM    1  C   UNL     1       6.808  29.532  57.851  1.00  0.00     0.036 C 
HETATM    2  C   UNL     1       5.563  29.041  57.457  1.00  0.00     0.067 C 
HETATM    3  C   UNL     1       5.433  27.740  56.967  1.00  0.00     0.082 C 
HETATM    4  C   UNL     1       6.546  26.896  56.877  1.00  0.00     0.050 C 
HETATM    5  C   UNL     1       7.752  27.342  57.448  1.00  0.00     0.021 C 
HETATM    6  C   UNL     1       7.879  28.646  57.947  1.00  0.00     0.030 C 
ENDROOT
BRANCH   1   7
HETATM    7  N   UNL     1       7.040  30.897  58.124  1.00  0.00    -0.333 N 
HETATM    8  H   UNL     1       7.867  31.310  57.690  1.00  0.00     0.168 HD
BRANCH   7   9
HETATM    9  C   UNL     1       6.135  31.826  58.591  1.00  0.00     0.179 C 
HETATM   10  S   UNL     1       4.965  32.697  57.763  1.00  0.00    -0.040 SA
BRANCH   9  11
HETATM   11  N   UNL     1       6.228  32.130  59.931  1.00  0.00    -0.299 N 
HETATM   12  C   UNL     1       7.236  31.887  60.851  1.00  0.00     0.257 C 
HETATM   13  O   UNL     1       8.256  31.248  60.621  1.00  0.00    -0.267 OA
HETATM   14  H   UNL     1       5.407  32.625  60.256  1.00  0.00     0.171 HD
BRANCH  12  15
HETATM   15  C   UNL     1       6.952  32.446  62.201  1.00  0.00     0.035 A 
HETATM   16  C   UNL     1       5.631  32.689  62.599  1.00  0.00     0.053 A 
HETATM   17  C   UNL     1       5.370  33.082  63.909  1.00  0.00     0.069 A 
HETATM   18  C   UNL     1       6.417  33.308  64.799  1.00  0.00     0.037 A 
HETATM   19  C   UNL     1       7.736  33.102  64.388  1.00  0.00     0.004 A 
HETATM   20  C   UNL     1       8.008  32.668  63.087  1.00  0.00     0.017 A 
BRANCH  17  21
HETATM   21  O   UNL     1       4.091  33.305  64.337  1.00  0.00    -0.351 OA
BRANCH  21  22
HETATM   22  C   UNL     1       3.985  34.482  65.154  1.00  0.00     0.175 C 
BRANCH  22  23
HETATM   23  C   UNL     1       3.710  35.716  64.295  1.00  0.00     0.026 C 
BRANCH  23  24
HETATM   24  C   UNL     1       4.843  36.740  64.362  1.00  0.00    -0.002 C 
HETATM   25  C   UNL     1       5.760  36.631  63.152  1.00  0.00     0.005 C 
ENDBRANCH  23  24
ENDBRANCH  22  23
ENDBRANCH  21  22
ENDBRANCH  17  21
ENDBRANCH  12  15
ENDBRANCH   9  11
ENDBRANCH   7   9
ENDBRANCH   1   7
BRANCH   3  26
HETATM   26  O   UNL     1       4.198  27.324  56.547  1.00  0.00    -0.360 OA
HETATM   27  H   UNL     1       3.538  27.541  57.226  1.00  0.00     0.217 HD
ENDBRANCH   3  26
BRANCH   4  28
HETATM   28  C   UNL     1       6.565  25.663  56.085  1.00  0.00     0.183 A 
HETATM   29  O   UNL     1       6.553  25.812  54.721  1.00  0.00    -0.289 OA
HETATM   30  C   UNL     1       6.935  24.600  54.243  1.00  0.00     0.106 A 
HETATM   31  C   UNL     1       7.121  23.761  55.326  1.00  0.00     0.094 A 
HETATM   32  C   UNL     1       7.167  24.259  52.919  1.00  0.00     0.040 A 
HETATM   33  N   UNL     1       6.844  24.433  56.492  1.00  0.00    -0.221 NA
HETATM   34  C   UNL     1       7.593  22.462  55.098  1.00  0.00     0.041 A 
HETATM   35  C   UNL     1       7.892  22.078  53.774  1.00  0.00    -0.056 A 
HETATM   36  C   UNL     1       7.670  22.971  52.707  1.00  0.00     0.010 A 
BRANCH  35  37
HETATM   37  C   UNL     1       8.527  20.734  53.512  1.00  0.00     0.034 C 
HETATM   38  C   UNL     1       8.827  20.001  54.812  1.00  0.00     0.010 C 
ENDBRANCH  35  37
ENDBRANCH   4  28
TORSDOF 11
ENDMDL
MODEL 3
REMARK VINA RESULT:     -10.3      1.693      2.063
REMARK  11 active torsions:
REMARK  status: ('A' for Active; 'I' for Inactive)
REMARK    1  A    between atoms: C_2  and  C_3 
REMARK    2  A    between atoms: C_3  and  C_4 
REMARK    3  A    between atoms: C_4  and  O_5 
REMARK    4  A    between atoms: O_5  and  C_6 
REMARK    5  A    between atoms: C_8  and  C_9 
REMARK       I    between atoms: C_9  and  N_10 
REMARK    6  A    between atoms: N_10  and  C_11 
REMARK    7  A    between atoms: C_11  and  N_12 
REMARK    8  A    between atoms: N_12  and  C_13 
REMARK    9  A    between atoms: C_15  and  O_16 
REMARK   10  A    between atoms: C_17  and  C_18 
REMARK   11  A    between atoms: C_25  and  C_26 
ROOT
HETATM    1  C   UNL     1       6.416  29.614  57.577  1.00  0.00     0.036 C 
HETATM    2  C   UNL     1       5.452  28.682  57.195  1.00  0.00     0.067 C 
HETATM    3  C   UNL     1       5.805  27.355  56.943  1.00  0.00     0.082 C 
HETATM    4  C   UNL     1       7.131  26.929  57.084  1.00  0.00     0.050 C 
HETATM    5  C   UNL     1       8.051  27.834  57.646  1.00  0.00     0.021 C 
HETATM    6  C   UNL     1       7.693  29.163  57.906  1.00  0.00     0.030 C 
ENDROOT
BRANCH   1   7
HETATM    7  N   UNL     1       6.166  31.003  57.612  1.00  0.00    -0.333 N 
HETATM    8  H   UNL     1       6.500  31.542  56.812  1.00  0.00     0.168 HD
BRANCH   7   9
HETATM    9  C   UNL     1       5.238  31.670  58.382  1.00  0.00     0.179 C 
HETATM   10  S   UNL     1       3.711  32.234  57.978  1.00  0.00    -0.040 SA
BRANCH   9  11
HETATM   11  N   UNL     1       5.630  31.967  59.669  1.00  0.00    -0.299 N 
HETATM   12  C   UNL     1       6.869  32.318  60.183  1.00  0.00     0.257 C 
HETATM   13  O   UNL     1       7.911  32.352  59.539  1.00  0.00    -0.267 OA
HETATM   14  H   UNL     1       4.851  31.923  60.313  1.00  0.00     0.171 HD
BRANCH  12  15
HETATM   15  C   UNL     1       6.841  32.619  61.640  1.00  0.00     0.035 A 
HETATM   16  C   UNL     1       5.619  32.818  62.294  1.00  0.00     0.053 A 
HETATM   17  C   UNL     1       5.596  32.963  63.679  1.00  0.00     0.069 A 
HETATM   18  C   UNL     1       6.786  32.987  64.404  1.00  0.00     0.037 A 
HETATM   19  C   UNL     1       8.007  32.826  63.744  1.00  0.00     0.004 A 
HETATM   20  C   UNL     1       8.038  32.640  62.359  1.00  0.00     0.017 A 
BRANCH  17  21
HETATM   21  O   UNL     1       4.419  33.136  64.352  1.00  0.00    -0.351 OA
BRANCH  21  22
HETATM   22  C   UNL     1       4.605  33.780  65.622  1.00  0.00     0.175 C 
BRANCH  22  23
HETATM   23  C   UNL     1       3.774  35.060  65.708  1.00  0.00     0.026 C 
BRANCH  23  24
HETATM   24  C   UNL     1       4.497  36.268  65.109  1.00  0.00    -0.002 C 
HETATM   25  C   UNL     1       3.946  36.616  63.734  1.00  0.00     0.005 C 
ENDBRANCH  23  24
ENDBRANCH  22  23
ENDBRANCH  21  22
ENDBRANCH  17  21
ENDBRANCH  12  15
ENDBRANCH   9  11
ENDBRANCH   7   9
ENDBRANCH   1   7
BRANCH   3  26
HETATM   26  O   UNL     1       4.829  26.491  56.522  1.00  0.00    -0.360 OA
HETATM   27  H   UNL     1       4.993  25.612  56.902  1.00  0.00     0.217 HD
ENDBRANCH   3  26
BRANCH   4  28
HETATM   28  C   UNL     1       7.640  25.670  56.533  1.00  0.00     0.183 A 
HETATM   29  O   UNL     1       8.039  24.722  57.442  1.00  0.00    -0.289 OA
HETATM   30  C   UNL     1       8.111  23.572  56.724  1.00  0.00     0.106 A 
HETATM   31  C   UNL     1       7.796  23.875  55.412  1.00  0.00     0.094 A 
HETATM   32  C   UNL     1       8.383  22.300  57.207  1.00  0.00     0.040 A 
HETATM   33  N   UNL     1       7.538  25.219  55.291  1.00  0.00    -0.221 NA
HETATM   34  C   UNL     1       7.728  22.833  54.479  1.00  0.00     0.041 A 
HETATM   35  C   UNL     1       7.948  21.513  54.925  1.00  0.00    -0.056 A 
HETATM   36  C   UNL     1       8.278  21.265  56.272  1.00  0.00     0.010 A 
BRANCH  35  37
HETATM   37  C   UNL     1       7.749  20.360  53.973  1.00  0.00     0.034 C 
HETATM   38  C   UNL     1       8.450  20.613  52.645  1.00  0.00     0.010 C 
ENDBRANCH  35  37
ENDBRANCH   4  28
TORSDOF 11
ENDMDL
MODEL 4
REMARK VINA RESULT:      -9.7      1.456      1.784
REMARK  11 active torsions:
REMARK  status: ('A' for Active; 'I' for Inactive)
REMARK    1  A    between atoms: C_2  and  C_3 
REMARK    2  A    between atoms: C_3  and  C_4 
REMARK    3  A    between atoms: C_4  and  O_5 
REMARK    4  A    between atoms: O_5  and  C_6 
REMARK    5  A    between atoms: C_8  and  C_9 
REMARK       I    between atoms: C_9  and  N_10 
REMARK    6  A    between atoms: N_10  and  C_11 
REMARK    7  A    between atoms: C_11  and  N_12 
REMARK    8  A    between atoms: N_12  and  C_13 
REMARK    9  A    between atoms: C_15  and  O_16 
REMARK   10  A    between atoms: C_17  and  C_18 
REMARK   11  A    between atoms: C_25  and  C_26 
ROOT
HETATM    1  C   UNL     1       6.316  30.080  57.580  1.00  0.00     0.036 C 
HETATM    2  C   UNL     1       7.238  29.941  56.543  1.00  0.00     0.067 C 
HETATM    3  C   UNL     1       7.207  28.825  55.706  1.00  0.00     0.082 C 
HETATM    4  C   UNL     1       6.238  27.829  55.879  1.00  0.00     0.050 C 
HETATM    5  C   UNL     1       5.208  28.074  56.806  1.00  0.00     0.021 C 
HETATM    6  C   UNL     1       5.237  29.199  57.641  1.00  0.00     0.030 C 
ENDROOT
BRANCH   1   7
HETATM    7  N   UNL     1       6.445  31.052  58.595  1.00  0.00    -0.333 N 
HETATM    8  H   UNL     1       5.591  31.545  58.859  1.00  0.00     0.168 HD
BRANCH   7   9
HETATM    9  C   UNL     1       7.466  31.178  59.512  1.00  0.00     0.179 C 
HETATM   10  S   UNL     1       9.075  30.719  59.399  1.00  0.00    -0.040 SA
BRANCH   9  11
HETATM   11  N   UNL     1       7.113  31.718  60.730  1.00  0.00    -0.299 N 
HETATM   12  C   UNL     1       7.635  31.516  61.998  1.00  0.00     0.257 C 
HETATM   13  O   UNL     1       8.514  30.709  62.275  1.00  0.00    -0.267 OA
HETATM   14  H   UNL     1       6.350  32.375  60.636  1.00  0.00     0.171 HD
BRANCH  12  15
HETATM   15  C   UNL     1       6.989  32.357  63.043  1.00  0.00     0.035 A 
HETATM   16  C   UNL     1       5.600  32.535  63.045  1.00  0.00     0.053 A 
HETATM   17  C   UNL     1       4.995  33.210  64.103  1.00  0.00     0.069 A 
HETATM   18  C   UNL     1       5.771  33.772  65.114  1.00  0.00     0.037 A 
HETATM   19  C   UNL     1       7.159  33.626  65.090  1.00  0.00     0.004 A 
HETATM   20  C   UNL     1       7.774  32.916  64.054  1.00  0.00     0.017 A 
BRANCH  17  21
HETATM   21  O   UNL     1       3.640  33.381  64.148  1.00  0.00    -0.351 OA
BRANCH  21  22
HETATM   22  C   UNL     1       3.130  34.015  62.964  1.00  0.00     0.175 C 
BRANCH  22  23
HETATM   23  C   UNL     1       3.373  35.524  63.009  1.00  0.00     0.026 C 
BRANCH  23  24
HETATM   24  C   UNL     1       4.216  36.016  61.832  1.00  0.00    -0.002 C 
HETATM   25  C   UNL     1       4.121  35.065  60.648  1.00  0.00     0.005 C 
ENDBRANCH  23  24
ENDBRANCH  22  23
ENDBRANCH  21  22
ENDBRANCH  17  21
ENDBRANCH  12  15
ENDBRANCH   9  11
ENDBRANCH   7   9
ENDBRANCH   1   7
BRANCH   3  26
HETATM   26  O   UNL     1       8.166  28.714  54.734  1.00  0.00    -0.360 OA
HETATM   27  H   UNL     1       8.659  27.886  54.863  1.00  0.00     0.217 HD
ENDBRANCH   3  26
BRANCH   4  28
HETATM   28  C   UNL     1       6.331  26.496  55.277  1.00  0.00     0.183 A 
HETATM   29  O   UNL     1       6.755  26.443  53.973  1.00  0.00    -0.289 OA
HETATM   30  C   UNL     1       7.098  25.143  53.781  1.00  0.00     0.106 A 
HETATM   31  C   UNL     1       6.831  24.460  54.953  1.00  0.00     0.094 A 
HETATM   32  C   UNL     1       7.675  24.590  52.647  1.00  0.00     0.040 A 
HETATM   33  N   UNL     1       6.305  25.319  55.886  1.00  0.00    -0.221 NA
HETATM   34  C   UNL     1       7.171  23.103  55.033  1.00  0.00     0.041 A 
HETATM   35  C   UNL     1       7.805  22.501  53.926  1.00  0.00    -0.056 A 
HETATM   36  C   UNL     1       8.040  23.243  52.752  1.00  0.00     0.010 A 
BRANCH  35  37
HETATM   37  C   UNL     1       8.303  21.081  54.032  1.00  0.00     0.034 C 
HETATM   38  C   UNL     1       8.332  20.402  52.669  1.00  0.00     0.010 C 
ENDBRANCH  35  37
ENDBRANCH   4  28
TORSDOF 11
ENDMDL
MODEL 5
REMARK VINA RESULT:      -9.5      1.972     12.448
REMARK  11 active torsions:
REMARK  status: ('A' for Active; 'I' for Inactive)
REMARK    1  A    between atoms: C_2  and  C_3 
REMARK    2  A    between atoms: C_3  and  C_4 
REMARK    3  A    between atoms: C_4  and  O_5 
REMARK    4  A    between atoms: O_5  and  C_6 
REMARK    5  A    between atoms: C_8  and  C_9 
REMARK       I    between atoms: C_9  and  N_10 
REMARK    6  A    between atoms: N_10  and  C_11 
REMARK    7  A    between atoms: C_11  and  N_12 
REMARK    8  A    between atoms: N_12  and  C_13 
REMARK    9  A    between atoms: C_15  and  O_16 
REMARK   10  A    between atoms: C_17  and  C_18 
REMARK   11  A    between atoms: C_25  and  C_26 
ROOT
HETATM    1  C   UNL     1       8.010  30.461  59.612  1.00  0.00     0.036 C 
HETATM    2  C   UNL     1       7.008  31.414  59.437  1.00  0.00     0.067 C 
HETATM    3  C   UNL     1       6.749  32.366  60.425  1.00  0.00     0.082 C 
HETATM    4  C   UNL     1       7.501  32.393  61.606  1.00  0.00     0.050 C 
HETATM    5  C   UNL     1       8.622  31.546  61.685  1.00  0.00     0.021 C 
HETATM    6  C   UNL     1       8.885  30.597  60.688  1.00  0.00     0.030 C 
ENDROOT
BRANCH   1   7
HETATM    7  N   UNL     1       8.157  29.340  58.766  1.00  0.00    -0.333 N 
HETATM    8  H   UNL     1       7.412  28.643  58.807  1.00  0.00     0.168 HD
BRANCH   7   9
HETATM    9  C   UNL     1       8.963  29.227  57.654  1.00  0.00     0.179 C 
HETATM   10  S   UNL     1      10.284  30.149  57.187  1.00  0.00    -0.040 SA
BRANCH   9  11
HETATM   11  N   UNL     1       8.612  28.242  56.758  1.00  0.00    -0.299 N 
HETATM   12  C   UNL     1       7.390  27.638  56.503  1.00  0.00     0.257 C 
HETATM   13  O   UNL     1       6.360  27.847  57.133  1.00  0.00    -0.267 OA
HETATM   14  H   UNL     1       9.405  27.947  56.203  1.00  0.00     0.171 HD
BRANCH  12  15
HETATM   15  C   UNL     1       7.440  26.649  55.393  1.00  0.00     0.035 A 
HETATM   16  C   UNL     1       7.279  25.283  55.659  1.00  0.00     0.053 A 
HETATM   17  C   UNL     1       7.191  24.383  54.599  1.00  0.00     0.069 A 
HETATM   18  C   UNL     1       7.340  24.824  53.287  1.00  0.00     0.037 A 
HETATM   19  C   UNL     1       7.540  26.182  53.026  1.00  0.00     0.004 A 
HETATM   20  C   UNL     1       7.588  27.100  54.079  1.00  0.00     0.017 A 
BRANCH  17  21
HETATM   21  O   UNL     1       7.010  23.047  54.822  1.00  0.00    -0.351 OA
BRANCH  21  22
HETATM   22  C   UNL     1       8.214  22.398  55.260  1.00  0.00     0.175 C 
BRANCH  22  23
HETATM   23  C   UNL     1       7.981  20.901  55.465  1.00  0.00     0.026 C 
BRANCH  23  24
HETATM   24  C   UNL     1       8.444  20.068  54.268  1.00  0.00    -0.002 C 
HETATM   25  C   UNL     1       8.456  20.895  52.990  1.00  0.00     0.005 C 
ENDBRANCH  23  24
ENDBRANCH  22  23
ENDBRANCH  21  22
ENDBRANCH  17  21
ENDBRANCH  12  15
ENDBRANCH   9  11
ENDBRANCH   7   9
ENDBRANCH   1   7
BRANCH   3  26
HETATM   26  O   UNL     1       5.721  33.249  60.224  1.00  0.00    -0.360 OA
HETATM   27  H   UNL     1       5.919  33.801  59.449  1.00  0.00     0.217 HD
ENDBRANCH   3  26
BRANCH   4  28
HETATM   28  C   UNL     1       7.092  33.122  62.809  1.00  0.00     0.183 A 
HETATM   29  O   UNL     1       5.745  33.335  62.966  1.00  0.00    -0.289 OA
HETATM   30  C   UNL     1       5.607  33.681  64.272  1.00  0.00     0.106 A 
HETATM   31  C   UNL     1       6.868  33.703  64.837  1.00  0.00     0.094 A 
HETATM   32  C   UNL     1       4.421  33.910  64.955  1.00  0.00     0.040 A 
HETATM   33  N   UNL     1       7.811  33.387  63.890  1.00  0.00    -0.221 NA
HETATM   34  C   UNL     1       6.987  33.963  66.209  1.00  0.00     0.041 A 
HETATM   35  C   UNL     1       5.809  34.155  66.962  1.00  0.00    -0.056 A 
HETATM   36  C   UNL     1       4.551  34.134  66.330  1.00  0.00     0.010 A 
BRANCH  35  37
HETATM   37  C   UNL     1       5.897  34.303  68.461  1.00  0.00     0.034 C 
HETATM   38  C   UNL     1       7.274  34.795  68.887  1.00  0.00     0.010 C 
ENDBRANCH  35  37
ENDBRANCH   4  28
TORSDOF 11
ENDMDL
MODEL 6
REMARK VINA RESULT:      -9.2      2.031     11.922
REMARK  11 active torsions:
REMARK  status: ('A' for Active; 'I' for Inactive)
REMARK    1  A    between atoms: C_2  and  C_3 
REMARK    2  A    between atoms: C_3  and  C_4 
REMARK    3  A    between atoms: C_4  and  O_5 
REMARK    4  A    between atoms: O_5  and  C_6 
REMARK    5  A    between atoms: C_8  and  C_9 
REMARK       I    between atoms: C_9  and  N_10 
REMARK    6  A    between atoms: N_10  and  C_11 
REMARK    7  A    between atoms: C_11  and  N_12 
REMARK    8  A    between atoms: N_12  and  C_13 
REMARK    9  A    between atoms: C_15  and  O_16 
REMARK   10  A    between atoms: C_17  and  C_18 
REMARK   11  A    between atoms: C_25  and  C_26 
ROOT
HETATM    1  C   UNL     1       7.326  30.196  58.455  1.00  0.00     0.036 C 
HETATM    2  C   UNL     1       6.446  31.273  58.353  1.00  0.00     0.067 C 
HETATM    3  C   UNL     1       6.370  32.230  59.367  1.00  0.00     0.082 C 
HETATM    4  C   UNL     1       7.189  32.138  60.499  1.00  0.00     0.050 C 
HETATM    5  C   UNL     1       8.195  31.154  60.498  1.00  0.00     0.021 C 
HETATM    6  C   UNL     1       8.275  30.199  59.476  1.00  0.00     0.030 C 
ENDROOT
BRANCH   1   7
HETATM    7  N   UNL     1       7.277  29.083  57.588  1.00  0.00    -0.333 N 
HETATM    8  H   UNL     1       6.347  28.765  57.314  1.00  0.00     0.168 HD
BRANCH   7   9
HETATM    9  C   UNL     1       8.289  28.597  56.788  1.00  0.00     0.179 C 
HETATM   10  S   UNL     1       9.568  29.403  56.064  1.00  0.00    -0.040 SA
BRANCH   9  11
HETATM   11  N   UNL     1       8.223  27.253  56.491  1.00  0.00    -0.299 N 
HETATM   12  C   UNL     1       7.954  26.156  57.295  1.00  0.00     0.257 C 
HETATM   13  O   UNL     1       7.790  26.200  58.508  1.00  0.00    -0.267 OA
HETATM   14  H   UNL     1       8.392  27.083  55.508  1.00  0.00     0.171 HD
BRANCH  12  15
HETATM   15  C   UNL     1       7.921  24.870  56.548  1.00  0.00     0.035 A 
HETATM   16  C   UNL     1       7.303  24.800  55.292  1.00  0.00     0.053 A 
HETATM   17  C   UNL     1       7.398  23.628  54.545  1.00  0.00     0.069 A 
HETATM   18  C   UNL     1       8.035  22.507  55.071  1.00  0.00     0.037 A 
HETATM   19  C   UNL     1       8.617  22.568  56.339  1.00  0.00     0.004 A 
HETATM   20  C   UNL     1       8.564  23.750  57.082  1.00  0.00     0.017 A 
BRANCH  17  21
HETATM   21  O   UNL     1       6.828  23.534  53.306  1.00  0.00    -0.351 OA
BRANCH  21  22
HETATM   22  C   UNL     1       7.663  24.086  52.277  1.00  0.00     0.175 C 
BRANCH  22  23
HETATM   23  C   UNL     1       7.210  25.499  51.910  1.00  0.00     0.026 C 
BRANCH  23  24
HETATM   24  C   UNL     1       5.726  25.561  51.545  1.00  0.00    -0.002 C 
HETATM   25  C   UNL     1       4.896  26.113  52.695  1.00  0.00     0.005 C 
ENDBRANCH  23  24
ENDBRANCH  22  23
ENDBRANCH  21  22
ENDBRANCH  17  21
ENDBRANCH  12  15
ENDBRANCH   9  11
ENDBRANCH   7   9
ENDBRANCH   1   7
BRANCH   3  26
HETATM   26  O   UNL     1       5.454  33.240  59.241  1.00  0.00    -0.360 OA
HETATM   27  H   UNL     1       4.675  33.037  59.785  1.00  0.00     0.217 HD
ENDBRANCH   3  26
BRANCH   4  28
HETATM   28  C   UNL     1       6.950  32.889  61.734  1.00  0.00     0.183 A 
HETATM   29  O   UNL     1       5.639  33.142  62.052  1.00  0.00    -0.289 OA
HETATM   30  C   UNL     1       5.671  33.503  63.360  1.00  0.00     0.106 A 
HETATM   31  C   UNL     1       6.992  33.494  63.767  1.00  0.00     0.094 A 
HETATM   32  C   UNL     1       4.583  33.772  64.179  1.00  0.00     0.040 A 
HETATM   33  N   UNL     1       7.803  33.143  62.716  1.00  0.00    -0.221 NA
HETATM   34  C   UNL     1       7.283  33.763  65.111  1.00  0.00     0.041 A 
HETATM   35  C   UNL     1       6.213  33.995  65.999  1.00  0.00    -0.056 A 
HETATM   36  C   UNL     1       4.886  34.005  65.525  1.00  0.00     0.010 A 
BRANCH  35  37
HETATM   37  C   UNL     1       6.487  34.154  67.474  1.00  0.00     0.034 C 
HETATM   38  C   UNL     1       5.409  34.992  68.149  1.00  0.00     0.010 C 
ENDBRANCH  35  37
ENDBRANCH   4  28
TORSDOF 11
ENDMDL
MODEL 7
REMARK VINA RESULT:      -9.1      2.985      5.070
REMARK  11 active torsions:
REMARK  status: ('A' for Active; 'I' for Inactive)
REMARK    1  A    between atoms: C_2  and  C_3 
REMARK    2  A    between atoms: C_3  and  C_4 
REMARK    3  A    between atoms: C_4  and  O_5 
REMARK    4  A    between atoms: O_5  and  C_6 
REMARK    5  A    between atoms: C_8  and  C_9 
REMARK       I    between atoms: C_9  and  N_10 
REMARK    6  A    between atoms: N_10  and  C_11 
REMARK    7  A    between atoms: C_11  and  N_12 
REMARK    8  A    between atoms: N_12  and  C_13 
REMARK    9  A    between atoms: C_15  and  O_16 
REMARK   10  A    between atoms: C_17  and  C_18 
REMARK   11  A    between atoms: C_25  and  C_26 
ROOT
HETATM    1  C   UNL     1       3.954  30.030  55.038  1.00  0.00     0.036 C 
HETATM    2  C   UNL     1       4.154  29.598  53.727  1.00  0.00     0.067 C 
HETATM    3  C   UNL     1       4.742  28.359  53.467  1.00  0.00     0.082 C 
HETATM    4  C   UNL     1       5.127  27.516  54.516  1.00  0.00     0.050 C 
HETATM    5  C   UNL     1       4.751  27.885  55.821  1.00  0.00     0.021 C 
HETATM    6  C   UNL     1       4.154  29.126  56.080  1.00  0.00     0.030 C 
ENDROOT
BRANCH   1   7
HETATM    7  N   UNL     1       3.590  31.355  55.361  1.00  0.00    -0.333 N 
HETATM    8  H   UNL     1       2.636  31.492  55.697  1.00  0.00     0.168 HD
BRANCH   7   9
HETATM    9  C   UNL     1       4.430  32.415  55.625  1.00  0.00     0.179 C 
HETATM   10  S   UNL     1       4.803  33.751  54.682  1.00  0.00    -0.040 SA
BRANCH   9  11
HETATM   11  N   UNL     1       5.109  32.357  56.822  1.00  0.00    -0.299 N 
HETATM   12  C   UNL     1       4.652  32.192  58.120  1.00  0.00     0.257 C 
HETATM   13  O   UNL     1       3.472  32.139  58.446  1.00  0.00    -0.267 OA
HETATM   14  H   UNL     1       6.108  32.441  56.684  1.00  0.00     0.171 HD
BRANCH  12  15
HETATM   15  C   UNL     1       5.745  32.124  59.127  1.00  0.00     0.035 A 
HETATM   16  C   UNL     1       6.892  31.363  58.872  1.00  0.00     0.053 A 
HETATM   17  C   UNL     1       7.964  31.417  59.760  1.00  0.00     0.069 A 
HETATM   18  C   UNL     1       7.869  32.160  60.934  1.00  0.00     0.037 A 
HETATM   19  C   UNL     1       6.708  32.888  61.205  1.00  0.00     0.004 A 
HETATM   20  C   UNL     1       5.642  32.874  60.302  1.00  0.00     0.017 A 
BRANCH  17  21
HETATM   21  O   UNL     1       9.108  30.706  59.529  1.00  0.00    -0.351 OA
BRANCH  21  22
HETATM   22  C   UNL     1       9.740  31.075  58.293  1.00  0.00     0.175 C 
BRANCH  22  23
HETATM   23  C   UNL     1      10.181  29.834  57.517  1.00  0.00     0.026 C 
BRANCH  23  24
HETATM   24  C   UNL     1       9.083  29.300  56.596  1.00  0.00    -0.002 C 
HETATM   25  C   UNL     1       8.366  28.113  57.221  1.00  0.00     0.005 C 
ENDBRANCH  23  24
ENDBRANCH  22  23
ENDBRANCH  21  22
ENDBRANCH  17  21
ENDBRANCH  12  15
ENDBRANCH   9  11
ENDBRANCH   7   9
ENDBRANCH   1   7
BRANCH   3  26
HETATM   26  O   UNL     1       4.961  28.005  52.162  1.00  0.00    -0.360 OA
HETATM   27  H   UNL     1       5.628  27.300  52.129  1.00  0.00     0.217 HD
ENDBRANCH   3  26
BRANCH   4  28
HETATM   28  C   UNL     1       6.031  26.375  54.348  1.00  0.00     0.183 A 
HETATM   29  O   UNL     1       6.367  25.688  55.487  1.00  0.00    -0.289 OA
HETATM   30  C   UNL     1       6.883  24.516  55.037  1.00  0.00     0.106 A 
HETATM   31  C   UNL     1       6.877  24.557  53.655  1.00  0.00     0.094 A 
HETATM   32  C   UNL     1       7.288  23.432  55.803  1.00  0.00     0.040 A 
HETATM   33  N   UNL     1       6.372  25.759  53.225  1.00  0.00    -0.221 NA
HETATM   34  C   UNL     1       7.296  23.424  52.946  1.00  0.00     0.041 A 
HETATM   35  C   UNL     1       7.673  22.276  53.674  1.00  0.00    -0.056 A 
HETATM   36  C   UNL     1       7.672  22.296  55.083  1.00  0.00     0.010 A 
BRANCH  35  37
HETATM   37  C   UNL     1       7.999  20.999  52.939  1.00  0.00     0.034 C 
HETATM   38  C   UNL     1       8.926  20.111  53.759  1.00  0.00     0.010 C 
ENDBRANCH  35  37
ENDBRANCH   4  28
TORSDOF 11
ENDMDL
MODEL 8
REMARK VINA RESULT:      -8.9      1.795      2.597
REMARK  11 active torsions:
REMARK  status: ('A' for Active; 'I' for Inactive)
REMARK    1  A    between atoms: C_2  and  C_3 
REMARK    2  A    between atoms: C_3  and  C_4 
REMARK    3  A    between atoms: C_4  and  O_5 
REMARK    4  A    between atoms: O_5  and  C_6 
REMARK    5  A    between atoms: C_8  and  C_9 
REMARK       I    between atoms: C_9  and  N_10 
REMARK    6  A    between atoms: N_10  and  C_11 
REMARK    7  A    between atoms: C_11  and  N_12 
REMARK    8  A    between atoms: N_12  and  C_13 
REMARK    9  A    between atoms: C_15  and  O_16 
REMARK   10  A    between atoms: C_17  and  C_18 
REMARK   11  A    between atoms: C_25  and  C_26 
ROOT
HETATM    1  C   UNL     1       6.194  29.769  57.170  1.00  0.00     0.036 C 
HETATM    2  C   UNL     1       7.018  29.846  56.047  1.00  0.00     0.067 C 
HETATM    3  C   UNL     1       7.365  28.694  55.338  1.00  0.00     0.082 C 
HETATM    4  C   UNL     1       6.880  27.441  55.730  1.00  0.00     0.050 C 
HETATM    5  C   UNL     1       5.908  27.405  56.746  1.00  0.00     0.021 C 
HETATM    6  C   UNL     1       5.554  28.563  57.452  1.00  0.00     0.030 C 
ENDROOT
BRANCH   1   7
HETATM    7  N   UNL     1       6.006  30.852  58.056  1.00  0.00    -0.333 N 
HETATM    8  H   UNL     1       5.066  31.250  58.089  1.00  0.00     0.168 HD
BRANCH   7   9
HETATM    9  C   UNL     1       6.798  31.209  59.125  1.00  0.00     0.179 C 
HETATM   10  S   UNL     1       8.357  30.728  59.516  1.00  0.00    -0.040 SA
BRANCH   9  11
HETATM   11  N   UNL     1       6.216  32.051  60.047  1.00  0.00    -0.299 N 
HETATM   12  C   UNL     1       4.884  32.332  60.306  1.00  0.00     0.257 C 
HETATM   13  O   UNL     1       3.937  31.901  59.660  1.00  0.00    -0.267 OA
HETATM   14  H   UNL     1       6.912  32.511  60.619  1.00  0.00     0.171 HD
BRANCH  12  15
HETATM   15  C   UNL     1       4.689  33.269  61.446  1.00  0.00     0.035 A 
HETATM   16  C   UNL     1       4.623  32.779  62.757  1.00  0.00     0.053 A 
HETATM   17  C   UNL     1       4.577  33.674  63.823  1.00  0.00     0.069 A 
HETATM   18  C   UNL     1       4.520  35.046  63.589  1.00  0.00     0.037 A 
HETATM   19  C   UNL     1       4.548  35.531  62.279  1.00  0.00     0.004 A 
HETATM   20  C   UNL     1       4.634  34.643  61.203  1.00  0.00     0.017 A 
BRANCH  17  21
HETATM   21  O   UNL     1       4.536  33.231  65.115  1.00  0.00    -0.351 OA
BRANCH  21  22
HETATM   22  C   UNL     1       4.252  34.287  66.046  1.00  0.00     0.175 C 
BRANCH  22  23
HETATM   23  C   UNL     1       4.901  34.005  67.402  1.00  0.00     0.026 C 
BRANCH  23  24
HETATM   24  C   UNL     1       6.386  34.370  67.427  1.00  0.00    -0.002 C 
HETATM   25  C   UNL     1       6.897  34.509  68.853  1.00  0.00     0.005 C 
ENDBRANCH  23  24
ENDBRANCH  22  23
ENDBRANCH  21  22
ENDBRANCH  17  21
ENDBRANCH  12  15
ENDBRANCH   9  11
ENDBRANCH   7   9
ENDBRANCH   1   7
BRANCH   3  26
HETATM   26  O   UNL     1       8.216  28.818  54.273  1.00  0.00    -0.360 OA
HETATM   27  H   UNL     1       7.839  29.442  53.631  1.00  0.00     0.217 HD
ENDBRANCH   3  26
BRANCH   4  28
HETATM   28  C   UNL     1       7.443  26.172  55.260  1.00  0.00     0.183 A 
HETATM   29  O   UNL     1       7.769  25.253  56.227  1.00  0.00    -0.289 OA
HETATM   30  C   UNL     1       7.911  24.085  55.550  1.00  0.00     0.106 A 
HETATM   31  C   UNL     1       7.708  24.349  54.208  1.00  0.00     0.094 A 
HETATM   32  C   UNL     1       8.150  22.830  56.090  1.00  0.00     0.040 A 
HETATM   33  N   UNL     1       7.452  25.686  54.028  1.00  0.00    -0.221 NA
HETATM   34  C   UNL     1       7.729  23.281  53.302  1.00  0.00     0.041 A 
HETATM   35  C   UNL     1       7.919  21.976  53.803  1.00  0.00    -0.056 A 
HETATM   36  C   UNL     1       8.134  21.768  55.179  1.00  0.00     0.010 A 
BRANCH  35  37
HETATM   37  C   UNL     1       7.812  20.795  52.870  1.00  0.00     0.034 C 
HETATM   38  C   UNL     1       8.936  19.796  53.112  1.00  0.00     0.010 C 
ENDBRANCH  35  37
ENDBRANCH   4  28
TORSDOF 11
ENDMDL
MODEL 9
REMARK VINA RESULT:      -8.9      2.251      3.598
REMARK  11 active torsions:
REMARK  status: ('A' for Active; 'I' for Inactive)
REMARK    1  A    between atoms: C_2  and  C_3 
REMARK    2  A    between atoms: C_3  and  C_4 
REMARK    3  A    between atoms: C_4  and  O_5 
REMARK    4  A    between atoms: O_5  and  C_6 
REMARK    5  A    between atoms: C_8  and  C_9 
REMARK       I    between atoms: C_9  and  N_10 
REMARK    6  A    between atoms: N_10  and  C_11 
REMARK    7  A    between atoms: C_11  and  N_12 
REMARK    8  A    between atoms: N_12  and  C_13 
REMARK    9  A    between atoms: C_15  and  O_16 
REMARK   10  A    between atoms: C_17  and  C_18 
REMARK   11  A    between atoms: C_25  and  C_26 
ROOT
HETATM    1  C   UNL     1       4.869  29.326  57.230  1.00  0.00     0.036 C 
HETATM    2  C   UNL     1       6.186  29.198  57.669  1.00  0.00     0.067 C 
HETATM    3  C   UNL     1       7.015  28.201  57.152  1.00  0.00     0.082 C 
HETATM    4  C   UNL     1       6.547  27.320  56.169  1.00  0.00     0.050 C 
HETATM    5  C   UNL     1       5.283  27.580  55.609  1.00  0.00     0.021 C 
HETATM    6  C   UNL     1       4.455  28.586  56.124  1.00  0.00     0.030 C 
ENDROOT
BRANCH   1   7
HETATM    7  N   UNL     1       3.923  30.149  57.879  1.00  0.00    -0.333 N 
HETATM    8  H   UNL     1       3.296  29.683  58.536  1.00  0.00     0.168 HD
BRANCH   7   9
HETATM    9  C   UNL     1       3.959  31.519  58.020  1.00  0.00     0.179 C 
HETATM   10  S   UNL     1       3.921  32.722  56.852  1.00  0.00    -0.040 SA
BRANCH   9  11
HETATM   11  N   UNL     1       4.095  31.985  59.310  1.00  0.00    -0.299 N 
HETATM   12  C   UNL     1       3.310  32.856  60.049  1.00  0.00     0.257 C 
HETATM   13  O   UNL     1       2.333  33.456  59.619  1.00  0.00    -0.267 OA
HETATM   14  H   UNL     1       4.910  31.590  59.761  1.00  0.00     0.171 HD
BRANCH  12  15
HETATM   15  C   UNL     1       3.792  33.044  61.445  1.00  0.00     0.035 A 
HETATM   16  C   UNL     1       4.896  32.321  61.913  1.00  0.00     0.053 A 
HETATM   17  C   UNL     1       5.419  32.604  63.173  1.00  0.00     0.069 A 
HETATM   18  C   UNL     1       4.805  33.546  63.994  1.00  0.00     0.037 A 
HETATM   19  C   UNL     1       3.680  34.239  63.540  1.00  0.00     0.004 A 
HETATM   20  C   UNL     1       3.171  33.992  62.262  1.00  0.00     0.017 A 
BRANCH  17  21
HETATM   21  O   UNL     1       6.510  31.934  63.650  1.00  0.00    -0.351 OA
BRANCH  21  22
HETATM   22  C   UNL     1       7.659  32.786  63.784  1.00  0.00     0.175 C 
BRANCH  22  23
HETATM   23  C   UNL     1       8.680  32.497  62.683  1.00  0.00     0.026 C 
BRANCH  23  24
HETATM   24  C   UNL     1       8.329  31.248  61.873  1.00  0.00    -0.002 C 
HETATM   25  C   UNL     1       9.301  30.112  62.159  1.00  0.00     0.005 C 
ENDBRANCH  23  24
ENDBRANCH  22  23
ENDBRANCH  21  22
ENDBRANCH  17  21
ENDBRANCH  12  15
ENDBRANCH   9  11
ENDBRANCH   7   9
ENDBRANCH   1   7
BRANCH   3  26
HETATM   26  O   UNL     1       8.285  28.086  57.652  1.00  0.00    -0.360 OA
HETATM   27  H   UNL     1       8.699  28.964  57.682  1.00  0.00     0.217 HD
ENDBRANCH   3  26
BRANCH   4  28
HETATM   28  C   UNL     1       7.220  26.066  55.819  1.00  0.00     0.183 A 
HETATM   29  O   UNL     1       7.772  25.358  56.857  1.00  0.00    -0.289 OA
HETATM   30  C   UNL     1       7.993  24.121  56.343  1.00  0.00     0.106 A 
HETATM   31  C   UNL     1       7.608  24.141  55.016  1.00  0.00     0.094 A 
HETATM   32  C   UNL     1       8.458  23.004  57.024  1.00  0.00     0.040 A 
HETATM   33  N   UNL     1       7.155  25.393  54.679  1.00  0.00    -0.221 NA
HETATM   34  C   UNL     1       7.669  22.951  54.280  1.00  0.00     0.041 A 
HETATM   35  C   UNL     1       8.089  21.774  54.935  1.00  0.00    -0.056 A 
HETATM   36  C   UNL     1       8.483  21.816  56.287  1.00  0.00     0.010 A 
BRANCH  35  37
HETATM   37  C   UNL     1       8.037  20.454  54.206  1.00  0.00     0.034 C 
HETATM   38  C   UNL     1       8.196  20.647  52.703  1.00  0.00     0.010 C 
ENDBRANCH  35  37
ENDBRANCH   4  28
TORSDOF 11
ENDMDL
MODEL 10
REMARK VINA RESULT:      -8.8      2.184      2.898
REMARK  11 active torsions:
REMARK  status: ('A' for Active; 'I' for Inactive)
REMARK    1  A    between atoms: C_2  and  C_3 
REMARK    2  A    between atoms: C_3  and  C_4 
REMARK    3  A    between atoms: C_4  and  O_5 
REMARK    4  A    between atoms: O_5  and  C_6 
REMARK    5  A    between atoms: C_8  and  C_9 
REMARK       I    between atoms: C_9  and  N_10 
REMARK    6  A    between atoms: N_10  and  C_11 
REMARK    7  A    between atoms: C_11  and  N_12 
REMARK    8  A    between atoms: N_12  and  C_13 
REMARK    9  A    between atoms: C_15  and  O_16 
REMARK   10  A    between atoms: C_17  and  C_18 
REMARK   11  A    between atoms: C_25  and  C_26 
ROOT
HETATM    1  C   UNL     1       6.476  30.093  57.842  1.00  0.00     0.036 C 
HETATM    2  C   UNL     1       5.496  29.244  57.329  1.00  0.00     0.067 C 
HETATM    3  C   UNL     1       5.819  27.949  56.918  1.00  0.00     0.082 C 
HETATM    4  C   UNL     1       7.130  27.471  57.028  1.00  0.00     0.050 C 
HETATM    5  C   UNL     1       8.062  28.272  57.714  1.00  0.00     0.021 C 
HETATM    6  C   UNL     1       7.734  29.568  58.133  1.00  0.00     0.030 C 
ENDROOT
BRANCH   1   7
HETATM    7  N   UNL     1       6.261  31.473  58.047  1.00  0.00    -0.333 N 
HETATM    8  H   UNL     1       7.086  32.029  58.279  1.00  0.00     0.168 HD
BRANCH   7   9
HETATM    9  C   UNL     1       5.182  32.226  57.635  1.00  0.00     0.179 C 
HETATM   10  S   UNL     1       4.667  32.606  56.085  1.00  0.00    -0.040 SA
BRANCH   9  11
HETATM   11  N   UNL     1       4.434  32.799  58.639  1.00  0.00    -0.299 N 
HETATM   12  C   UNL     1       3.507  32.248  59.510  1.00  0.00     0.257 C 
HETATM   13  O   UNL     1       3.119  31.086  59.478  1.00  0.00    -0.267 OA
HETATM   14  H   UNL     1       4.634  33.787  58.732  1.00  0.00     0.171 HD
BRANCH  12  15
HETATM   15  C   UNL     1       2.968  33.224  60.495  1.00  0.00     0.035 A 
HETATM   16  C   UNL     1       3.118  32.994  61.869  1.00  0.00     0.053 A 
HETATM   17  C   UNL     1       2.732  33.978  62.776  1.00  0.00     0.069 A 
HETATM   18  C   UNL     1       2.130  35.152  62.328  1.00  0.00     0.037 A 
HETATM   19  C   UNL     1       1.947  35.362  60.959  1.00  0.00     0.004 A 
HETATM   20  C   UNL     1       2.367  34.399  60.038  1.00  0.00     0.017 A 
BRANCH  17  21
HETATM   21  O   UNL     1       2.886  33.796  64.122  1.00  0.00    -0.351 OA
BRANCH  21  22
HETATM   22  C   UNL     1       4.142  34.302  64.601  1.00  0.00     0.175 C 
BRANCH  22  23
HETATM   23  C   UNL     1       3.969  35.690  65.217  1.00  0.00     0.026 C 
BRANCH  23  24
HETATM   24  C   UNL     1       4.903  36.728  64.591  1.00  0.00    -0.002 C 
HETATM   25  C   UNL     1       5.622  36.163  63.375  1.00  0.00     0.005 C 
ENDBRANCH  23  24
ENDBRANCH  22  23
ENDBRANCH  21  22
ENDBRANCH  17  21
ENDBRANCH  12  15
ENDBRANCH   9  11
ENDBRANCH   7   9
ENDBRANCH   1   7
BRANCH   3  26
HETATM   26  O   UNL     1       4.830  27.173  56.376  1.00  0.00    -0.360 OA
HETATM   27  H   UNL     1       4.461  27.620  55.596  1.00  0.00     0.217 HD
ENDBRANCH   3  26
BRANCH   4  28
HETATM   28  C   UNL     1       7.617  26.277  56.331  1.00  0.00     0.183 A 
HETATM   29  O   UNL     1       8.032  25.235  57.123  1.00  0.00    -0.289 OA
HETATM   30  C   UNL     1       8.079  24.170  56.283  1.00  0.00     0.106 A 
HETATM   31  C   UNL     1       7.734  24.614  55.020  1.00  0.00     0.094 A 
HETATM   32  C   UNL     1       8.355  22.852  56.619  1.00  0.00     0.040 A 
HETATM   33  N   UNL     1       7.482  25.963  55.051  1.00  0.00    -0.221 NA
HETATM   34  C   UNL     1       7.636  23.679  53.981  1.00  0.00     0.041 A 
HETATM   35  C   UNL     1       7.858  22.318  54.277  1.00  0.00    -0.056 A 
HETATM   36  C   UNL     1       8.220  21.924  55.581  1.00  0.00     0.010 A 
BRANCH  35  37
HETATM   37  C   UNL     1       7.629  21.274  53.212  1.00  0.00     0.034 C 
HETATM   38  C   UNL     1       8.781  20.279  53.156  1.00  0.00     0.010 C 
ENDBRANCH  35  37
ENDBRANCH   4  28
TORSDOF 11
ENDMDL
