MODEL 1
REMARK VINA RESULT:      -8.7      0.000      0.000
REMARK  6 active torsions:
REMARK  status: ('A' for Active; 'I' for Inactive)
REMARK    1  A    between atoms: C_3  and  C_4 
REMARK    2  A    between atoms: C_4  and  C_5 
REMARK    3  A    between atoms: C_5  and  C_6 
REMARK    4  A    between atoms: C_6  and  C_7 
REMARK       I    between atoms: C_7  and  N_8 
REMARK    5  A    between atoms: N_8  and  C_9 
REMARK    6  A    between atoms: C_11  and  C_12 
ROOT
HETATM    1  C   UNL     1       7.448  28.069  54.885  1.00  0.00     0.222 C 
HETATM    2  N   UNL     1       6.865  26.815  54.949  1.00  0.00    -0.327 N 
HETATM    3  O   UNL     1       8.429  28.385  54.221  1.00  0.00    -0.273 OA
HETATM    4  H   UNL     1       6.055  26.714  55.548  1.00  0.00     0.169 HD
ENDROOT
BRANCH   2   5
HETATM    5  C   UNL     1       7.259  25.647  54.259  1.00  0.00     0.035 A 
HETATM    6  C   UNL     1       7.629  24.453  54.887  1.00  0.00     0.042 A 
HETATM    7  C   UNL     1       8.005  23.321  54.141  1.00  0.00    -0.021 A 
HETATM    8  C   UNL     1       8.016  23.412  52.744  1.00  0.00     0.012 A 
HETATM    9  C   UNL     1       7.655  24.601  52.107  1.00  0.00     0.003 A 
HETATM   10  C   UNL     1       7.275  25.710  52.862  1.00  0.00     0.029 A 
BRANCH   7  11
HETATM   11  C   UNL     1       8.378  22.074  54.795  1.00  0.00     0.010 A 
HETATM   12  C   UNL     1       8.545  21.759  56.167  1.00  0.00     0.152 A 
HETATM   13  N   UNL     1       8.914  20.490  56.371  1.00  0.00    -0.187 NA
HETATM   14  N   UNL     1       8.983  19.984  55.131  1.00  0.00    -0.289 N 
HETATM   15  H   UNL     1       9.249  19.011  55.021  1.00  0.00     0.188 HD
HETATM   16  C   UNL     1       8.678  20.888  54.156  1.00  0.00     0.123 A 
ENDBRANCH   7  11
ENDBRANCH   2   5
BRANCH   1  17
HETATM   17  C   UNL     1       6.733  29.094  55.751  1.00  0.00     0.103 C 
BRANCH  17  18
HETATM   18  C   UNL     1       6.640  28.628  57.203  1.00  0.00     0.014 C 
BRANCH  18  19
HETATM   19  C   UNL     1       8.026  28.377  57.808  1.00  0.00     0.047 C 
BRANCH  19  20
HETATM   20  C   UNL     1       8.699  29.662  58.201  1.00  0.00    -0.012 A 
HETATM   21  C   UNL     1       9.891  30.189  57.725  1.00  0.00    -0.049 A 
HETATM   22  C   UNL     1      10.765  29.557  56.690  1.00  0.00     0.049 C 
HETATM   23  C   UNL     1      10.182  31.445  58.351  1.00  0.00     0.015 A 
HETATM   24  C   UNL     1       9.224  31.819  59.266  1.00  0.00     0.051 A 
HETATM   25  S   UNL     1       7.967  30.673  59.376  1.00  0.00    -0.106 SA
ENDBRANCH  19  20
ENDBRANCH  18  19
ENDBRANCH  17  18
ENDBRANCH   1  17
TORSDOF 6
ENDMDL
MODEL 2
REMARK VINA RESULT:      -8.6      3.780      8.823
REMARK  6 active torsions:
REMARK  status: ('A' for Active; 'I' for Inactive)
REMARK    1  A    between atoms: C_3  and  C_4 
REMARK    2  A    between atoms: C_4  and  C_5 
REMARK    3  A    between atoms: C_5  and  C_6 
REMARK    4  A    between atoms: C_6  and  C_7 
REMARK       I    between atoms: C_7  and  N_8 
REMARK    5  A    between atoms: N_8  and  C_9 
REMARK    6  A    between atoms: C_11  and  C_12 
ROOT
HETATM    1  C   UNL     1       7.796  26.441  57.097  1.00  0.00     0.222 C 
HETATM    2  N   UNL     1       8.097  27.689  56.579  1.00  0.00    -0.327 N 
HETATM    3  O   UNL     1       8.018  26.051  58.238  1.00  0.00    -0.273 OA
HETATM    4  H   UNL     1       7.849  27.858  55.613  1.00  0.00     0.169 HD
ENDROOT
BRANCH   2   5
HETATM    5  C   UNL     1       8.704  28.774  57.249  1.00  0.00     0.035 A 
HETATM    6  C   UNL     1       8.214  29.339  58.431  1.00  0.00     0.042 A 
HETATM    7  C   UNL     1       8.871  30.416  59.053  1.00  0.00    -0.021 A 
HETATM    8  C   UNL     1      10.030  30.929  58.458  1.00  0.00     0.012 A 
HETATM    9  C   UNL     1      10.524  30.377  57.276  1.00  0.00     0.003 A 
HETATM   10  C   UNL     1       9.866  29.303  56.677  1.00  0.00     0.029 A 
BRANCH   7  11
HETATM   11  C   UNL     1       8.366  30.997  60.291  1.00  0.00     0.010 A 
HETATM   12  C   UNL     1       7.264  31.856  60.532  1.00  0.00     0.152 A 
HETATM   13  N   UNL     1       7.132  32.187  61.820  1.00  0.00    -0.187 NA
HETATM   14  N   UNL     1       8.147  31.541  62.413  1.00  0.00    -0.289 N 
HETATM   15  H   UNL     1       8.261  31.638  63.417  1.00  0.00     0.188 HD
HETATM   16  C   UNL     1       8.915  30.822  61.545  1.00  0.00     0.123 A 
ENDBRANCH   7  11
ENDBRANCH   2   5
BRANCH   1  17
HETATM   17  C   UNL     1       7.120  25.532  56.083  1.00  0.00     0.103 C 
BRANCH  17  18
HETATM   18  C   UNL     1       7.437  24.063  56.355  1.00  0.00     0.014 C 
BRANCH  18  19
HETATM   19  C   UNL     1       8.778  23.648  55.740  1.00  0.00     0.047 C 
BRANCH  19  20
HETATM   20  C   UNL     1       8.636  22.430  54.871  1.00  0.00    -0.012 A 
HETATM   21  C   UNL     1       8.241  22.363  53.543  1.00  0.00    -0.049 A 
HETATM   22  C   UNL     1       7.871  23.533  52.690  1.00  0.00     0.049 C 
HETATM   23  C   UNL     1       8.243  21.007  53.076  1.00  0.00     0.015 A 
HETATM   24  C   UNL     1       8.626  20.110  54.046  1.00  0.00     0.051 A 
HETATM   25  S   UNL     1       8.993  20.884  55.520  1.00  0.00    -0.106 SA
ENDBRANCH  19  20
ENDBRANCH  18  19
ENDBRANCH  17  18
ENDBRANCH   1  17
TORSDOF 6
ENDMDL
MODEL 3
REMARK VINA RESULT:      -8.4      1.401      1.988
REMARK  6 active torsions:
REMARK  status: ('A' for Active; 'I' for Inactive)
REMARK    1  A    between atoms: C_3  and  C_4 
REMARK    2  A    between atoms: C_4  and  C_5 
REMARK    3  A    between atoms: C_5  and  C_6 
REMARK    4  A    between atoms: C_6  and  C_7 
REMARK       I    between atoms: C_7  and  N_8 
REMARK    5  A    between atoms: N_8  and  C_9 
REMARK    6  A    between atoms: C_11  and  C_12 
ROOT
HETATM    1  C   UNL     1       5.777  27.091  55.765  1.00  0.00     0.222 C 
HETATM    2  N   UNL     1       6.972  26.402  55.665  1.00  0.00    -0.327 N 
HETATM    3  O   UNL     1       4.836  27.039  54.980  1.00  0.00    -0.273 OA
HETATM    4  H   UNL     1       7.653  26.554  56.399  1.00  0.00     0.169 HD
ENDROOT
BRANCH   2   5
HETATM    5  C   UNL     1       7.357  25.488  54.659  1.00  0.00     0.035 A 
HETATM    6  C   UNL     1       7.704  24.155  54.902  1.00  0.00     0.042 A 
HETATM    7  C   UNL     1       8.072  23.293  53.853  1.00  0.00    -0.021 A 
HETATM    8  C   UNL     1       8.098  23.798  52.547  1.00  0.00     0.012 A 
HETATM    9  C   UNL     1       7.759  25.128  52.294  1.00  0.00     0.003 A 
HETATM   10  C   UNL     1       7.387  25.967  53.345  1.00  0.00     0.029 A 
BRANCH   7  11
HETATM   11  C   UNL     1       8.422  21.901  54.105  1.00  0.00     0.010 A 
HETATM   12  C   UNL     1       8.479  20.785  53.233  1.00  0.00     0.152 A 
HETATM   13  N   UNL     1       8.834  19.655  53.853  1.00  0.00    -0.187 NA
HETATM   14  N   UNL     1       9.010  20.041  55.126  1.00  0.00    -0.289 N 
HETATM   15  H   UNL     1       9.290  19.344  55.807  1.00  0.00     0.188 HD
HETATM   16  C   UNL     1       8.773  21.369  55.329  1.00  0.00     0.123 A 
ENDBRANCH   7  11
ENDBRANCH   2   5
BRANCH   1  17
HETATM   17  C   UNL     1       5.707  27.973  57.002  1.00  0.00     0.103 C 
BRANCH  17  18
HETATM   18  C   UNL     1       6.453  29.289  56.790  1.00  0.00     0.014 C 
BRANCH  18  19
HETATM   19  C   UNL     1       7.192  29.733  58.057  1.00  0.00     0.047 C 
BRANCH  19  20
HETATM   20  C   UNL     1       8.652  29.969  57.793  1.00  0.00    -0.012 A 
HETATM   21  C   UNL     1       9.496  30.893  58.391  1.00  0.00    -0.049 A 
HETATM   22  C   UNL     1       9.100  31.866  59.455  1.00  0.00     0.049 C 
HETATM   23  C   UNL     1      10.825  30.790  57.862  1.00  0.00     0.015 A 
HETATM   24  C   UNL     1      10.941  29.817  56.897  1.00  0.00     0.051 A 
HETATM   25  S   UNL     1       9.462  29.014  56.622  1.00  0.00    -0.106 SA
ENDBRANCH  19  20
ENDBRANCH  18  19
ENDBRANCH  17  18
ENDBRANCH   1  17
TORSDOF 6
ENDMDL
MODEL 4
REMARK VINA RESULT:      -8.2      1.587      2.190
REMARK  6 active torsions:
REMARK  status: ('A' for Active; 'I' for Inactive)
REMARK    1  A    between atoms: C_3  and  C_4 
REMARK    2  A    between atoms: C_4  and  C_5 
REMARK    3  A    between atoms: C_5  and  C_6 
REMARK    4  A    between atoms: C_6  and  C_7 
REMARK       I    between atoms: C_7  and  N_8 
REMARK    5  A    between atoms: N_8  and  C_9 
REMARK    6  A    between atoms: C_11  and  C_12 
ROOT
HETATM    1  C   UNL     1       6.118  27.005  55.997  1.00  0.00     0.222 C 
HETATM    2  N   UNL     1       7.345  26.547  55.550  1.00  0.00    -0.327 N 
HETATM    3  O   UNL     1       5.015  26.630  55.615  1.00  0.00    -0.273 OA
HETATM    4  H   UNL     1       8.170  26.960  55.966  1.00  0.00     0.169 HD
ENDROOT
BRANCH   2   5
HETATM    5  C   UNL     1       7.588  25.549  54.580  1.00  0.00     0.035 A 
HETATM    6  C   UNL     1       7.918  24.224  54.884  1.00  0.00     0.042 A 
HETATM    7  C   UNL     1       8.141  23.275  53.870  1.00  0.00    -0.021 A 
HETATM    8  C   UNL     1       8.040  23.685  52.534  1.00  0.00     0.012 A 
HETATM    9  C   UNL     1       7.718  25.005  52.220  1.00  0.00     0.003 A 
HETATM   10  C   UNL     1       7.490  25.931  53.238  1.00  0.00     0.029 A 
BRANCH   7  11
HETATM   11  C   UNL     1       8.474  21.892  54.187  1.00  0.00     0.010 A 
HETATM   12  C   UNL     1       8.488  20.731  53.375  1.00  0.00     0.152 A 
HETATM   13  N   UNL     1       8.839  19.629  54.045  1.00  0.00    -0.187 NA
HETATM   14  N   UNL     1       9.054  20.078  55.291  1.00  0.00    -0.289 N 
HETATM   15  H   UNL     1       9.338  19.412  56.002  1.00  0.00     0.188 HD
HETATM   16  C   UNL     1       8.845  21.419  55.429  1.00  0.00     0.123 A 
ENDBRANCH   7  11
ENDBRANCH   2   5
BRANCH   1  17
HETATM   17  C   UNL     1       6.246  28.074  57.071  1.00  0.00     0.103 C 
BRANCH  17  18
HETATM   18  C   UNL     1       7.695  28.231  57.529  1.00  0.00     0.014 C 
BRANCH  18  19
HETATM   19  C   UNL     1       8.198  29.667  57.339  1.00  0.00     0.047 C 
BRANCH  19  20
HETATM   20  C   UNL     1       7.808  30.547  58.493  1.00  0.00    -0.012 A 
HETATM   21  C   UNL     1       6.740  31.429  58.579  1.00  0.00    -0.049 A 
HETATM   22  C   UNL     1       5.735  31.679  57.502  1.00  0.00     0.049 C 
HETATM   23  C   UNL     1       6.712  32.075  59.859  1.00  0.00     0.015 A 
HETATM   24  C   UNL     1       7.740  31.674  60.681  1.00  0.00     0.051 A 
HETATM   25  S   UNL     1       8.742  30.517  59.930  1.00  0.00    -0.106 SA
ENDBRANCH  19  20
ENDBRANCH  18  19
ENDBRANCH  17  18
ENDBRANCH   1  17
TORSDOF 6
ENDMDL
MODEL 5
REMARK VINA RESULT:      -7.9      3.023      8.198
REMARK  6 active torsions:
REMARK  status: ('A' for Active; 'I' for Inactive)
REMARK    1  A    between atoms: C_3  and  C_4 
REMARK    2  A    between atoms: C_4  and  C_5 
REMARK    3  A    between atoms: C_5  and  C_6 
REMARK    4  A    between atoms: C_6  and  C_7 
REMARK       I    between atoms: C_7  and  N_8 
REMARK    5  A    between atoms: N_8  and  C_9 
REMARK    6  A    between atoms: C_11  and  C_12 
ROOT
HETATM    1  C   UNL     1       7.196  26.947  53.711  1.00  0.00     0.222 C 
HETATM    2  N   UNL     1       7.143  26.854  55.091  1.00  0.00    -0.327 N 
HETATM    3  O   UNL     1       6.961  27.945  53.037  1.00  0.00    -0.273 OA
HETATM    4  H   UNL     1       7.366  25.955  55.499  1.00  0.00     0.169 HD
ENDROOT
BRANCH   2   5
HETATM    5  C   UNL     1       6.825  27.877  56.011  1.00  0.00     0.035 A 
HETATM    6  C   UNL     1       7.769  28.726  56.596  1.00  0.00     0.042 A 
HETATM    7  C   UNL     1       7.385  29.732  57.502  1.00  0.00    -0.021 A 
HETATM    8  C   UNL     1       6.028  29.865  57.822  1.00  0.00     0.012 A 
HETATM    9  C   UNL     1       5.078  29.019  57.248  1.00  0.00     0.003 A 
HETATM   10  C   UNL     1       5.475  28.033  56.345  1.00  0.00     0.029 A 
BRANCH   7  11
HETATM   11  C   UNL     1       8.368  30.624  58.103  1.00  0.00     0.010 A 
HETATM   12  C   UNL     1       8.218  31.670  59.047  1.00  0.00     0.152 A 
HETATM   13  N   UNL     1       9.373  32.275  59.345  1.00  0.00    -0.187 NA
HETATM   14  N   UNL     1      10.270  31.619  58.595  1.00  0.00    -0.289 N 
HETATM   15  H   UNL     1      11.243  31.901  58.648  1.00  0.00     0.188 HD
HETATM   16  C   UNL     1       9.722  30.629  57.833  1.00  0.00     0.123 A 
ENDBRANCH   7  11
ENDBRANCH   2   5
BRANCH   1  17
HETATM   17  C   UNL     1       7.600  25.640  53.048  1.00  0.00     0.103 C 
BRANCH  17  18
HETATM   18  C   UNL     1       7.986  24.587  54.085  1.00  0.00     0.014 C 
BRANCH  18  19
HETATM   19  C   UNL     1       7.229  23.271  53.867  1.00  0.00     0.047 C 
BRANCH  19  20
HETATM   20  C   UNL     1       7.838  22.145  54.654  1.00  0.00    -0.012 A 
HETATM   21  C   UNL     1       8.250  20.902  54.197  1.00  0.00    -0.049 A 
HETATM   22  C   UNL     1       8.166  20.428  52.782  1.00  0.00     0.049 C 
HETATM   23  C   UNL     1       8.789  20.115  55.268  1.00  0.00     0.015 A 
HETATM   24  C   UNL     1       8.762  20.772  56.476  1.00  0.00     0.051 A 
HETATM   25  S   UNL     1       8.101  22.337  56.337  1.00  0.00    -0.106 SA
ENDBRANCH  19  20
ENDBRANCH  18  19
ENDBRANCH  17  18
ENDBRANCH   1  17
TORSDOF 6
ENDMDL
MODEL 6
REMARK VINA RESULT:      -7.9      1.734      2.402
REMARK  6 active torsions:
REMARK  status: ('A' for Active; 'I' for Inactive)
REMARK    1  A    between atoms: C_3  and  C_4 
REMARK    2  A    between atoms: C_4  and  C_5 
REMARK    3  A    between atoms: C_5  and  C_6 
REMARK    4  A    between atoms: C_6  and  C_7 
REMARK       I    between atoms: C_7  and  N_8 
REMARK    5  A    between atoms: N_8  and  C_9 
REMARK    6  A    between atoms: C_11  and  C_12 
ROOT
HETATM    1  C   UNL     1       5.673  27.301  56.038  1.00  0.00     0.222 C 
HETATM    2  N   UNL     1       6.905  26.850  55.597  1.00  0.00    -0.327 N 
HETATM    3  O   UNL     1       4.887  26.693  56.757  1.00  0.00    -0.273 OA
HETATM    4  H   UNL     1       7.438  27.474  55.005  1.00  0.00     0.169 HD
ENDROOT
BRANCH   2   5
HETATM    5  C   UNL     1       7.524  25.615  55.890  1.00  0.00     0.035 A 
HETATM    6  C   UNL     1       7.500  24.505  55.039  1.00  0.00     0.042 A 
HETATM    7  C   UNL     1       8.144  23.304  55.387  1.00  0.00    -0.021 A 
HETATM    8  C   UNL     1       8.806  23.230  56.619  1.00  0.00     0.012 A 
HETATM    9  C   UNL     1       8.830  24.329  57.479  1.00  0.00     0.003 A 
HETATM   10  C   UNL     1       8.196  25.516  57.114  1.00  0.00     0.029 A 
BRANCH   7  11
HETATM   11  C   UNL     1       8.130  22.152  54.495  1.00  0.00     0.010 A 
HETATM   12  C   UNL     1       8.330  20.773  54.756  1.00  0.00     0.152 A 
HETATM   13  N   UNL     1       8.251  20.017  53.657  1.00  0.00    -0.187 NA
HETATM   14  N   UNL     1       7.998  20.906  52.685  1.00  0.00    -0.289 N 
HETATM   15  H   UNL     1       7.893  20.566  51.735  1.00  0.00     0.188 HD
HETATM   16  C   UNL     1       7.921  22.192  53.132  1.00  0.00     0.123 A 
ENDBRANCH   7  11
ENDBRANCH   2   5
BRANCH   1  17
HETATM   17  C   UNL     1       5.345  28.699  55.536  1.00  0.00     0.103 C 
BRANCH  17  18
HETATM   18  C   UNL     1       6.271  29.743  56.156  1.00  0.00     0.014 C 
BRANCH  18  19
HETATM   19  C   UNL     1       6.495  29.488  57.650  1.00  0.00     0.047 C 
BRANCH  19  20
HETATM   20  C   UNL     1       7.685  30.245  58.169  1.00  0.00    -0.012 A 
HETATM   21  C   UNL     1       9.028  30.030  57.893  1.00  0.00    -0.049 A 
HETATM   22  C   UNL     1       9.567  28.966  56.992  1.00  0.00     0.049 C 
HETATM   23  C   UNL     1       9.851  30.980  58.583  1.00  0.00     0.015 A 
HETATM   24  C   UNL     1       9.121  31.861  59.347  1.00  0.00     0.051 A 
HETATM   25  S   UNL     1       7.446  31.563  59.238  1.00  0.00    -0.106 SA
ENDBRANCH  19  20
ENDBRANCH  18  19
ENDBRANCH  17  18
ENDBRANCH   1  17
TORSDOF 6
ENDMDL
MODEL 7
REMARK VINA RESULT:      -7.9      4.408      7.326
REMARK  6 active torsions:
REMARK  status: ('A' for Active; 'I' for Inactive)
REMARK    1  A    between atoms: C_3  and  C_4 
REMARK    2  A    between atoms: C_4  and  C_5 
REMARK    3  A    between atoms: C_5  and  C_6 
REMARK    4  A    between atoms: C_6  and  C_7 
REMARK       I    between atoms: C_7  and  N_8 
REMARK    5  A    between atoms: N_8  and  C_9 
REMARK    6  A    between atoms: C_11  and  C_12 
ROOT
HETATM    1  C   UNL     1       6.592  26.177  52.480  1.00  0.00     0.222 C 
HETATM    2  N   UNL     1       6.086  25.770  53.702  1.00  0.00    -0.327 N 
HETATM    3  O   UNL     1       7.712  25.942  52.038  1.00  0.00    -0.273 OA
HETATM    4  H   UNL     1       5.137  26.047  53.921  1.00  0.00     0.169 HD
ENDROOT
BRANCH   2   5
HETATM    5  C   UNL     1       6.735  24.993  54.686  1.00  0.00     0.035 A 
HETATM    6  C   UNL     1       7.160  23.675  54.491  1.00  0.00     0.042 A 
HETATM    7  C   UNL     1       7.809  22.958  55.512  1.00  0.00    -0.021 A 
HETATM    8  C   UNL     1       8.015  23.586  56.747  1.00  0.00     0.012 A 
HETATM    9  C   UNL     1       7.590  24.899  56.954  1.00  0.00     0.003 A 
HETATM   10  C   UNL     1       6.957  25.599  55.928  1.00  0.00     0.029 A 
BRANCH   7  11
HETATM   11  C   UNL     1       8.262  21.589  55.304  1.00  0.00     0.010 A 
HETATM   12  C   UNL     1       8.444  20.841  54.113  1.00  0.00     0.152 A 
HETATM   13  N   UNL     1       8.866  19.593  54.339  1.00  0.00    -0.187 NA
HETATM   14  N   UNL     1       8.959  19.533  55.675  1.00  0.00    -0.289 N 
HETATM   15  H   UNL     1       9.267  18.665  56.099  1.00  0.00     0.188 HD
HETATM   16  C   UNL     1       8.606  20.695  56.298  1.00  0.00     0.123 A 
ENDBRANCH   7  11
ENDBRANCH   2   5
BRANCH   1  17
HETATM   17  C   UNL     1       5.591  26.984  51.668  1.00  0.00     0.103 C 
BRANCH  17  18
HETATM   18  C   UNL     1       4.952  26.136  50.570  1.00  0.00     0.014 C 
BRANCH  18  19
HETATM   19  C   UNL     1       4.909  26.879  49.230  1.00  0.00     0.047 C 
BRANCH  19  20
HETATM   20  C   UNL     1       3.498  27.171  48.804  1.00  0.00    -0.012 A 
HETATM   21  C   UNL     1       2.659  26.394  48.019  1.00  0.00    -0.049 A 
HETATM   22  C   UNL     1       3.010  25.066  47.428  1.00  0.00     0.049 C 
HETATM   23  C   UNL     1       1.383  27.026  47.851  1.00  0.00     0.015 A 
HETATM   24  C   UNL     1       1.301  28.239  48.495  1.00  0.00     0.051 A 
HETATM   25  S   UNL     1       2.747  28.626  49.312  1.00  0.00    -0.106 SA
ENDBRANCH  19  20
ENDBRANCH  18  19
ENDBRANCH  17  18
ENDBRANCH   1  17
TORSDOF 6
ENDMDL
MODEL 8
REMARK VINA RESULT:      -7.8      5.089      7.395
REMARK  6 active torsions:
REMARK  status: ('A' for Active; 'I' for Inactive)
REMARK    1  A    between atoms: C_3  and  C_4 
REMARK    2  A    between atoms: C_4  and  C_5 
REMARK    3  A    between atoms: C_5  and  C_6 
REMARK    4  A    between atoms: C_6  and  C_7 
REMARK       I    between atoms: C_7  and  N_8 
REMARK    5  A    between atoms: N_8  and  C_9 
REMARK    6  A    between atoms: C_11  and  C_12 
ROOT
HETATM    1  C   UNL     1       9.262  31.793  60.261  1.00  0.00     0.222 C 
HETATM    2  N   UNL     1       9.159  30.477  59.847  1.00  0.00    -0.327 N 
HETATM    3  O   UNL     1       9.162  32.791  59.556  1.00  0.00    -0.273 OA
HETATM    4  H   UNL     1       9.267  29.762  60.556  1.00  0.00     0.169 HD
ENDROOT
BRANCH   2   5
HETATM    5  C   UNL     1       8.903  30.004  58.541  1.00  0.00     0.035 A 
HETATM    6  C   UNL     1       7.650  29.570  58.096  1.00  0.00     0.042 A 
HETATM    7  C   UNL     1       7.460  29.117  56.778  1.00  0.00    -0.021 A 
HETATM    8  C   UNL     1       8.560  29.094  55.911  1.00  0.00     0.012 A 
HETATM    9  C   UNL     1       9.815  29.519  56.346  1.00  0.00     0.003 A 
HETATM   10  C   UNL     1       9.984  29.975  57.653  1.00  0.00     0.029 A 
BRANCH   7  11
HETATM   11  C   UNL     1       6.152  28.675  56.311  1.00  0.00     0.010 A 
HETATM   12  C   UNL     1       5.428  28.998  55.136  1.00  0.00     0.152 A 
HETATM   13  N   UNL     1       4.238  28.393  55.073  1.00  0.00    -0.187 NA
HETATM   14  N   UNL     1       4.193  27.676  56.206  1.00  0.00    -0.289 N 
HETATM   15  H   UNL     1       3.368  27.116  56.391  1.00  0.00     0.188 HD
HETATM   16  C   UNL     1       5.307  27.814  56.981  1.00  0.00     0.123 A 
ENDBRANCH   7  11
ENDBRANCH   2   5
BRANCH   1  17
HETATM   17  C   UNL     1       9.521  31.921  61.754  1.00  0.00     0.103 C 
BRANCH  17  18
HETATM   18  C   UNL     1       8.235  31.738  62.559  1.00  0.00     0.014 C 
BRANCH  18  19
HETATM   19  C   UNL     1       7.210  32.835  62.247  1.00  0.00     0.047 C 
BRANCH  19  20
HETATM   20  C   UNL     1       6.427  33.224  63.470  1.00  0.00    -0.012 A 
HETATM   21  C   UNL     1       5.051  33.319  63.614  1.00  0.00    -0.049 A 
HETATM   22  C   UNL     1       4.046  33.039  62.543  1.00  0.00     0.049 C 
HETATM   23  C   UNL     1       4.702  33.714  64.948  1.00  0.00     0.015 A 
HETATM   24  C   UNL     1       5.802  33.907  65.751  1.00  0.00     0.051 A 
HETATM   25  S   UNL     1       7.260  33.610  64.917  1.00  0.00    -0.106 SA
ENDBRANCH  19  20
ENDBRANCH  18  19
ENDBRANCH  17  18
ENDBRANCH   1  17
TORSDOF 6
ENDMDL
MODEL 9
REMARK VINA RESULT:      -7.7      4.504      7.731
REMARK  6 active torsions:
REMARK  status: ('A' for Active; 'I' for Inactive)
REMARK    1  A    between atoms: C_3  and  C_4 
REMARK    2  A    between atoms: C_4  and  C_5 
REMARK    3  A    between atoms: C_5  and  C_6 
REMARK    4  A    between atoms: C_6  and  C_7 
REMARK       I    between atoms: C_7  and  N_8 
REMARK    5  A    between atoms: N_8  and  C_9 
REMARK    6  A    between atoms: C_11  and  C_12 
ROOT
HETATM    1  C   UNL     1       6.297  26.735  54.918  1.00  0.00     0.222 C 
HETATM    2  N   UNL     1       5.000  26.824  54.443  1.00  0.00    -0.327 N 
HETATM    3  O   UNL     1       7.294  27.243  54.417  1.00  0.00    -0.273 OA
HETATM    4  H   UNL     1       4.283  26.344  54.972  1.00  0.00     0.169 HD
ENDROOT
BRANCH   2   5
HETATM    5  C   UNL     1       4.548  27.524  53.302  1.00  0.00     0.035 A 
HETATM    6  C   UNL     1       4.783  27.113  51.986  1.00  0.00     0.042 A 
HETATM    7  C   UNL     1       4.297  27.853  50.893  1.00  0.00    -0.021 A 
HETATM    8  C   UNL     1       3.577  29.028  51.144  1.00  0.00     0.012 A 
HETATM    9  C   UNL     1       3.342  29.449  52.453  1.00  0.00     0.003 A 
HETATM   10  C   UNL     1       3.822  28.699  53.526  1.00  0.00     0.029 A 
BRANCH   7  11
HETATM   11  C   UNL     1       4.533  27.419  49.522  1.00  0.00     0.010 A 
HETATM   12  C   UNL     1       5.206  28.055  48.449  1.00  0.00     0.152 A 
HETATM   13  N   UNL     1       5.198  27.332  47.325  1.00  0.00    -0.187 NA
HETATM   14  N   UNL     1       4.520  26.227  47.670  1.00  0.00    -0.289 N 
HETATM   15  H   UNL     1       4.378  25.508  46.969  1.00  0.00     0.188 HD
HETATM   16  C   UNL     1       4.098  26.232  48.968  1.00  0.00     0.123 A 
ENDBRANCH   7  11
ENDBRANCH   2   5
BRANCH   1  17
HETATM   17  C   UNL     1       6.401  25.911  56.192  1.00  0.00     0.103 C 
BRANCH  17  18
HETATM   18  C   UNL     1       6.414  24.414  55.886  1.00  0.00     0.014 C 
BRANCH  18  19
HETATM   19  C   UNL     1       7.842  23.867  55.789  1.00  0.00     0.047 C 
BRANCH  19  20
HETATM   20  C   UNL     1       7.919  22.679  54.871  1.00  0.00    -0.012 A 
HETATM   21  C   UNL     1       7.942  22.664  53.484  1.00  0.00    -0.049 A 
HETATM   22  C   UNL     1       7.897  23.872  52.605  1.00  0.00     0.049 C 
HETATM   23  C   UNL     1       8.029  21.321  52.988  1.00  0.00     0.015 A 
HETATM   24  C   UNL     1       8.062  20.383  53.994  1.00  0.00     0.051 A 
HETATM   25  S   UNL     1       7.997  21.102  55.538  1.00  0.00    -0.106 SA
ENDBRANCH  19  20
ENDBRANCH  18  19
ENDBRANCH  17  18
ENDBRANCH   1  17
TORSDOF 6
ENDMDL
MODEL 10
REMARK VINA RESULT:      -7.6      4.866      8.269
REMARK  6 active torsions:
REMARK  status: ('A' for Active; 'I' for Inactive)
REMARK    1  A    between atoms: C_3  and  C_4 
REMARK    2  A    between atoms: C_4  and  C_5 
REMARK    3  A    between atoms: C_5  and  C_6 
REMARK    4  A    between atoms: C_6  and  C_7 
REMARK       I    between atoms: C_7  and  N_8 
REMARK    5  A    between atoms: N_8  and  C_9 
REMARK    6  A    between atoms: C_11  and  C_12 
ROOT
HETATM    1  C   UNL     1       5.806  26.156  53.301  1.00  0.00     0.222 C 
HETATM    2  N   UNL     1       6.199  27.200  52.483  1.00  0.00    -0.327 N 
HETATM    3  O   UNL     1       4.758  25.523  53.225  1.00  0.00    -0.273 OA
HETATM    4  H   UNL     1       7.099  27.622  52.676  1.00  0.00     0.169 HD
ENDROOT
BRANCH   2   5
HETATM    5  C   UNL     1       5.495  27.747  51.387  1.00  0.00     0.035 A 
HETATM    6  C   UNL     1       4.861  26.983  50.402  1.00  0.00     0.042 A 
HETATM    7  C   UNL     1       4.168  27.590  49.339  1.00  0.00    -0.021 A 
HETATM    8  C   UNL     1       4.133  28.989  49.273  1.00  0.00     0.012 A 
HETATM    9  C   UNL     1       4.767  29.761  50.248  1.00  0.00     0.003 A 
HETATM   10  C   UNL     1       5.441  29.143  51.300  1.00  0.00     0.029 A 
BRANCH   7  11
HETATM   11  C   UNL     1       3.499  26.794  48.319  1.00  0.00     0.010 A 
HETATM   12  C   UNL     1       3.420  25.389  48.141  1.00  0.00     0.152 A 
HETATM   13  N   UNL     1       2.714  25.039  47.062  1.00  0.00    -0.187 NA
HETATM   14  N   UNL     1       2.334  26.215  46.543  1.00  0.00    -0.289 N 
HETATM   15  H   UNL     1       1.772  26.212  45.698  1.00  0.00     0.188 HD
HETATM   16  C   UNL     1       2.779  27.292  47.252  1.00  0.00     0.123 A 
ENDBRANCH   7  11
ENDBRANCH   2   5
BRANCH   1  17
HETATM   17  C   UNL     1       6.837  25.824  54.367  1.00  0.00     0.103 C 
BRANCH  17  18
HETATM   18  C   UNL     1       6.717  24.371  54.824  1.00  0.00     0.014 C 
BRANCH  18  19
HETATM   19  C   UNL     1       7.593  23.437  53.982  1.00  0.00     0.047 C 
BRANCH  19  20
HETATM   20  C   UNL     1       8.020  22.225  54.762  1.00  0.00    -0.012 A 
HETATM   21  C   UNL     1       8.242  20.937  54.297  1.00  0.00    -0.049 A 
HETATM   22  C   UNL     1       8.095  20.493  52.878  1.00  0.00     0.049 C 
HETATM   23  C   UNL     1       8.648  20.071  55.364  1.00  0.00     0.015 A 
HETATM   24  C   UNL     1       8.714  20.715  56.578  1.00  0.00     0.051 A 
HETATM   25  S   UNL     1       8.298  22.363  56.448  1.00  0.00    -0.106 SA
ENDBRANCH  19  20
ENDBRANCH  18  19
ENDBRANCH  17  18
ENDBRANCH   1  17
TORSDOF 6
ENDMDL
