MODEL 1
REMARK VINA RESULT:      -8.5      0.000      0.000
REMARK  6 active torsions:
REMARK  status: ('A' for Active; 'I' for Inactive)
REMARK    1  A    between atoms: C_2  and  N_3 
REMARK    2  A    between atoms: C_2  and  C_16 
REMARK    3  A    between atoms: N_3  and  C_6 
REMARK    4  A    between atoms: C_16  and  C_17 
REMARK       I    between atoms: C_17  and  N_18 
REMARK    5  A    between atoms: N_18  and  C_19 
REMARK    6  A    between atoms: C_22  and  O_23 
ROOT
HETATM    1  C   UNL     1       6.050  25.514  54.543  1.00  0.00     0.040 C 
HETATM    2  C   UNL     1       6.106  26.368  55.801  1.00  0.00     0.191 C 
ENDROOT
BRANCH   2   3
HETATM    3  N   UNL     1       7.343  27.248  55.815  1.00  0.00    -0.063 N 
HETATM    4  H   UNL     1       7.884  26.901  56.632  1.00  0.00     0.278 HD
HETATM    5  H   UNL     1       7.939  27.041  55.005  1.00  0.00     0.278 HD
BRANCH   3   6
HETATM    6  C   UNL     1       7.260  28.750  56.003  1.00  0.00     0.221 C 
HETATM    7  C   UNL     1       8.463  29.383  56.664  1.00  0.00    -0.011 A 
HETATM    8  C   UNL     1       8.346  30.313  57.711  1.00  0.00     0.009 A 
HETATM    9  C   UNL     1       9.754  29.098  56.165  1.00  0.00     0.011 A 
HETATM   10  C   UNL     1       9.496  30.876  58.281  1.00  0.00     0.019 A 
HETATM   11  S   UNL     1       6.781  30.861  58.361  1.00  0.00    -0.129 SA
HETATM   12  C   UNL     1      10.763  30.555  57.798  1.00  0.00     0.001 A 
HETATM   13  C   UNL     1      10.892  29.673  56.734  1.00  0.00     0.001 A 
HETATM   14  C   UNL     1       5.726  30.543  56.928  1.00  0.00     0.082 C 
HETATM   15  C   UNL     1       5.863  29.081  56.552  1.00  0.00     0.048 C 
ENDBRANCH   3   6
ENDBRANCH   2   3
BRANCH   2  16
HETATM   16  C   UNL     1       6.123  25.462  57.054  1.00  0.00     0.135 C 
BRANCH  16  17
HETATM   17  C   UNL     1       7.495  25.417  57.680  1.00  0.00     0.224 C 
HETATM   18  N   UNL     1       8.389  24.430  57.424  1.00  0.00    -0.327 N 
HETATM   19  H   UNL     1       9.244  24.565  57.960  1.00  0.00     0.169 HD
HETATM   20  O   UNL     1       7.846  26.359  58.405  1.00  0.00    -0.273 OA
BRANCH  18  21
HETATM   21  C   UNL     1       8.429  23.345  56.525  1.00  0.00     0.034 A 
HETATM   22  C   UNL     1       8.710  23.416  55.164  1.00  0.00     0.032 A 
HETATM   23  C   UNL     1       8.794  22.246  54.396  1.00  0.00     0.039 A 
HETATM   24  C   UNL     1       8.602  20.989  54.969  1.00  0.00     0.068 A 
HETATM   25  C   UNL     1       8.288  20.910  56.319  1.00  0.00     0.039 A 
HETATM   26  C   UNL     1       8.201  22.079  57.088  1.00  0.00     0.032 A 
BRANCH  24  27
HETATM   27  O   UNL     1       8.744  19.938  54.110  1.00  0.00    -0.356 OA
HETATM   28  C   UNL     1       8.513  20.198  52.730  1.00  0.00     0.210 C 
ENDBRANCH  24  27
ENDBRANCH  18  21
ENDBRANCH  16  17
ENDBRANCH   2  16
TORSDOF 6
ENDMDL
MODEL 2
REMARK VINA RESULT:      -8.3      2.432      3.542
REMARK  6 active torsions:
REMARK  status: ('A' for Active; 'I' for Inactive)
REMARK    1  A    between atoms: C_2  and  N_3 
REMARK    2  A    between atoms: C_2  and  C_16 
REMARK    3  A    between atoms: N_3  and  C_6 
REMARK    4  A    between atoms: C_16  and  C_17 
REMARK       I    between atoms: C_17  and  N_18 
REMARK    5  A    between atoms: N_18  and  C_19 
REMARK    6  A    between atoms: C_22  and  O_23 
ROOT
HETATM    1  C   UNL     1       9.762  29.132  57.017  1.00  0.00     0.040 C 
HETATM    2  C   UNL     1       8.278  28.823  57.146  1.00  0.00     0.191 C 
ENDROOT
BRANCH   2   3
HETATM    3  N   UNL     1       7.719  29.340  58.461  1.00  0.00    -0.063 N 
HETATM    4  H   UNL     1       6.803  28.856  58.547  1.00  0.00     0.278 HD
HETATM    5  H   UNL     1       8.273  28.985  59.249  1.00  0.00     0.278 HD
BRANCH   3   6
HETATM    6  C   UNL     1       7.415  30.809  58.684  1.00  0.00     0.221 C 
HETATM    7  C   UNL     1       7.734  31.327  60.067  1.00  0.00    -0.011 A 
HETATM    8  C   UNL     1       6.836  32.123  60.799  1.00  0.00     0.009 A 
HETATM    9  C   UNL     1       9.010  31.079  60.622  1.00  0.00     0.011 A 
HETATM   10  C   UNL     1       7.188  32.585  62.075  1.00  0.00     0.019 A 
HETATM   11  S   UNL     1       5.241  32.620  60.180  1.00  0.00    -0.129 SA
HETATM   12  C   UNL     1       8.438  32.299  62.619  1.00  0.00     0.001 A 
HETATM   13  C   UNL     1       9.353  31.554  61.888  1.00  0.00     0.001 A 
HETATM   14  C   UNL     1       5.555  32.506  58.404  1.00  0.00     0.082 C 
HETATM   15  C   UNL     1       6.027  31.099  58.093  1.00  0.00     0.048 C 
ENDBRANCH   3   6
ENDBRANCH   2   3
BRANCH   2  16
HETATM   16  C   UNL     1       8.048  27.296  57.072  1.00  0.00     0.135 C 
BRANCH  16  17
HETATM   17  C   UNL     1       6.630  26.972  56.672  1.00  0.00     0.224 C 
HETATM   18  N   UNL     1       6.311  25.920  55.878  1.00  0.00    -0.327 N 
HETATM   19  H   UNL     1       5.309  25.886  55.704  1.00  0.00     0.169 HD
HETATM   20  O   UNL     1       5.710  27.654  57.147  1.00  0.00    -0.273 OA
BRANCH  18  21
HETATM   21  C   UNL     1       7.034  24.837  55.339  1.00  0.00     0.034 A 
HETATM   22  C   UNL     1       7.484  23.721  56.037  1.00  0.00     0.032 A 
HETATM   23  C   UNL     1       8.127  22.674  55.362  1.00  0.00     0.039 A 
HETATM   24  C   UNL     1       8.332  22.720  53.984  1.00  0.00     0.068 A 
HETATM   25  C   UNL     1       7.918  23.845  53.283  1.00  0.00     0.039 A 
HETATM   26  C   UNL     1       7.276  24.893  53.957  1.00  0.00     0.032 A 
BRANCH  24  27
HETATM   27  O   UNL     1       8.943  21.619  53.456  1.00  0.00    -0.356 OA
HETATM   28  C   UNL     1       8.097  20.568  53.005  1.00  0.00     0.210 C 
ENDBRANCH  24  27
ENDBRANCH  18  21
ENDBRANCH  16  17
ENDBRANCH   2  16
TORSDOF 6
ENDMDL
MODEL 3
REMARK VINA RESULT:      -8.1      3.205      7.529
REMARK  6 active torsions:
REMARK  status: ('A' for Active; 'I' for Inactive)
REMARK    1  A    between atoms: C_2  and  N_3 
REMARK    2  A    between atoms: C_2  and  C_16 
REMARK    3  A    between atoms: N_3  and  C_6 
REMARK    4  A    between atoms: C_16  and  C_17 
REMARK       I    between atoms: C_17  and  N_18 
REMARK    5  A    between atoms: N_18  and  C_19 
REMARK    6  A    between atoms: C_22  and  O_23 
ROOT
HETATM    1  C   UNL     1       6.353  25.599  51.441  1.00  0.00     0.040 C 
HETATM    2  C   UNL     1       6.053  25.773  52.922  1.00  0.00     0.191 C 
ENDROOT
BRANCH   2   3
HETATM    3  N   UNL     1       6.214  24.463  53.674  1.00  0.00    -0.063 N 
HETATM    4  H   UNL     1       5.479  24.508  54.409  1.00  0.00     0.278 HD
HETATM    5  H   UNL     1       5.938  23.673  53.081  1.00  0.00     0.278 HD
BRANCH   3   6
HETATM    6  C   UNL     1       7.491  24.111  54.412  1.00  0.00     0.221 C 
HETATM    7  C   UNL     1       7.893  22.656  54.342  1.00  0.00    -0.011 A 
HETATM    8  C   UNL     1       8.294  21.929  55.477  1.00  0.00     0.009 A 
HETATM    9  C   UNL     1       7.951  22.014  53.084  1.00  0.00     0.011 A 
HETATM   10  C   UNL     1       8.665  20.583  55.352  1.00  0.00     0.019 A 
HETATM   11  S   UNL     1       8.389  22.637  57.108  1.00  0.00    -0.129 SA
HETATM   12  C   UNL     1       8.682  19.959  54.107  1.00  0.00     0.001 A 
HETATM   13  C   UNL     1       8.333  20.677  52.971  1.00  0.00     0.001 A 
HETATM   14  C   UNL     1       8.604  24.378  56.673  1.00  0.00     0.082 C 
HETATM   15  C   UNL     1       7.446  24.794  55.788  1.00  0.00     0.048 C 
ENDBRANCH   3   6
ENDBRANCH   2   3
BRANCH   2  16
HETATM   16  C   UNL     1       4.606  26.283  53.111  1.00  0.00     0.135 C 
BRANCH  16  17
HETATM   17  C   UNL     1       4.511  27.769  52.872  1.00  0.00     0.224 C 
HETATM   18  N   UNL     1       5.016  28.687  53.733  1.00  0.00    -0.327 N 
HETATM   19  H   UNL     1       4.830  29.633  53.407  1.00  0.00     0.169 HD
HETATM   20  O   UNL     1       4.013  28.167  51.809  1.00  0.00    -0.273 OA
BRANCH  18  21
HETATM   21  C   UNL     1       5.808  28.616  54.896  1.00  0.00     0.034 A 
HETATM   22  C   UNL     1       7.198  28.636  54.947  1.00  0.00     0.032 A 
HETATM   23  C   UNL     1       7.864  28.637  56.181  1.00  0.00     0.039 A 
HETATM   24  C   UNL     1       7.158  28.620  57.383  1.00  0.00     0.068 A 
HETATM   25  C   UNL     1       5.771  28.567  57.344  1.00  0.00     0.039 A 
HETATM   26  C   UNL     1       5.105  28.564  56.111  1.00  0.00     0.032 A 
BRANCH  24  27
HETATM   27  O   UNL     1       7.933  28.655  58.506  1.00  0.00    -0.356 OA
HETATM   28  C   UNL     1       8.492  29.914  58.864  1.00  0.00     0.210 C 
ENDBRANCH  24  27
ENDBRANCH  18  21
ENDBRANCH  16  17
ENDBRANCH   2  16
TORSDOF 6
ENDMDL
MODEL 4
REMARK VINA RESULT:      -8.0      3.597      8.538
REMARK  6 active torsions:
REMARK  status: ('A' for Active; 'I' for Inactive)
REMARK    1  A    between atoms: C_2  and  N_3 
REMARK    2  A    between atoms: C_2  and  C_16 
REMARK    3  A    between atoms: N_3  and  C_6 
REMARK    4  A    between atoms: C_16  and  C_17 
REMARK       I    between atoms: C_17  and  N_18 
REMARK    5  A    between atoms: N_18  and  C_19 
REMARK    6  A    between atoms: C_22  and  O_23 
ROOT
HETATM    1  C   UNL     1       5.555  29.168  57.081  1.00  0.00     0.040 C 
HETATM    2  C   UNL     1       6.808  28.386  56.721  1.00  0.00     0.191 C 
ENDROOT
BRANCH   2   3
HETATM    3  N   UNL     1       6.484  26.933  56.420  1.00  0.00    -0.063 N 
HETATM    4  H   UNL     1       6.008  26.602  57.283  1.00  0.00     0.278 HD
HETATM    5  H   UNL     1       5.766  26.871  55.689  1.00  0.00     0.278 HD
BRANCH   3   6
HETATM    6  C   UNL     1       7.567  25.908  56.145  1.00  0.00     0.221 C 
HETATM    7  C   UNL     1       7.582  25.351  54.739  1.00  0.00    -0.011 A 
HETATM    8  C   UNL     1       7.694  23.975  54.475  1.00  0.00     0.009 A 
HETATM    9  C   UNL     1       7.567  26.242  53.643  1.00  0.00     0.011 A 
HETATM   10  C   UNL     1       7.712  23.515  53.151  1.00  0.00     0.019 A 
HETATM   11  S   UNL     1       7.845  22.743  55.752  1.00  0.00    -0.129 SA
HETATM   12  C   UNL     1       7.661  24.408  52.083  1.00  0.00     0.001 A 
HETATM   13  C   UNL     1       7.597  25.773  52.329  1.00  0.00     0.001 A 
HETATM   14  C   UNL     1       8.536  23.760  57.077  1.00  0.00     0.082 C 
HETATM   15  C   UNL     1       7.595  24.923  57.324  1.00  0.00     0.048 C 
ENDBRANCH   3   6
ENDBRANCH   2   3
BRANCH   2  16
HETATM   16  C   UNL     1       7.818  28.439  57.891  1.00  0.00     0.135 C 
BRANCH  16  17
HETATM   17  C   UNL     1       8.860  29.506  57.670  1.00  0.00     0.224 C 
HETATM   18  N   UNL     1       9.033  30.553  58.514  1.00  0.00    -0.327 N 
HETATM   19  H   UNL     1       9.766  31.175  58.179  1.00  0.00     0.169 HD
HETATM   20  O   UNL     1       9.639  29.384  56.713  1.00  0.00    -0.273 OA
BRANCH  18  21
HETATM   21  C   UNL     1       8.501  30.903  59.772  1.00  0.00     0.034 A 
HETATM   22  C   UNL     1       9.035  30.567  61.012  1.00  0.00     0.032 A 
HETATM   23  C   UNL     1       8.446  31.046  62.191  1.00  0.00     0.039 A 
HETATM   24  C   UNL     1       7.321  31.868  62.155  1.00  0.00     0.068 A 
HETATM   25  C   UNL     1       6.761  32.183  60.924  1.00  0.00     0.039 A 
HETATM   26  C   UNL     1       7.347  31.702  59.744  1.00  0.00     0.032 A 
BRANCH  24  27
HETATM   27  O   UNL     1       6.874  32.286  63.375  1.00  0.00    -0.356 OA
HETATM   28  C   UNL     1       7.750  33.110  64.135  1.00  0.00     0.210 C 
ENDBRANCH  24  27
ENDBRANCH  18  21
ENDBRANCH  16  17
ENDBRANCH   2  16
TORSDOF 6
ENDMDL
MODEL 5
REMARK VINA RESULT:      -8.0      3.598      8.560
REMARK  6 active torsions:
REMARK  status: ('A' for Active; 'I' for Inactive)
REMARK    1  A    between atoms: C_2  and  N_3 
REMARK    2  A    between atoms: C_2  and  C_16 
REMARK    3  A    between atoms: N_3  and  C_6 
REMARK    4  A    between atoms: C_16  and  C_17 
REMARK       I    between atoms: C_17  and  N_18 
REMARK    5  A    between atoms: N_18  and  C_19 
REMARK    6  A    between atoms: C_22  and  O_23 
ROOT
HETATM    1  C   UNL     1       5.628  28.010  56.937  1.00  0.00     0.040 C 
HETATM    2  C   UNL     1       7.036  28.529  56.688  1.00  0.00     0.191 C 
ENDROOT
BRANCH   2   3
HETATM    3  N   UNL     1       7.789  27.635  55.718  1.00  0.00    -0.063 N 
HETATM    4  H   UNL     1       8.249  28.306  55.070  1.00  0.00     0.278 HD
HETATM    5  H   UNL     1       8.566  27.163  56.195  1.00  0.00     0.278 HD
BRANCH   3   6
HETATM    6  C   UNL     1       7.076  26.642  54.821  1.00  0.00     0.221 C 
HETATM    7  C   UNL     1       7.554  25.212  54.938  1.00  0.00    -0.011 A 
HETATM    8  C   UNL     1       7.829  24.415  53.814  1.00  0.00     0.009 A 
HETATM    9  C   UNL     1       7.653  24.619  56.217  1.00  0.00     0.011 A 
HETATM   10  C   UNL     1       8.261  23.092  53.981  1.00  0.00     0.019 A 
HETATM   11  S   UNL     1       7.632  24.986  52.138  1.00  0.00    -0.129 SA
HETATM   12  C   UNL     1       8.387  22.537  55.252  1.00  0.00     0.001 A 
HETATM   13  C   UNL     1       8.074  23.298  56.370  1.00  0.00     0.001 A 
HETATM   14  C   UNL     1       6.408  26.289  52.402  1.00  0.00     0.082 C 
HETATM   15  C   UNL     1       6.964  27.265  53.421  1.00  0.00     0.048 C 
ENDBRANCH   3   6
ENDBRANCH   2   3
BRANCH   2  16
HETATM   16  C   UNL     1       7.819  28.592  58.019  1.00  0.00     0.135 C 
BRANCH  16  17
HETATM   17  C   UNL     1       9.027  29.488  57.904  1.00  0.00     0.224 C 
HETATM   18  N   UNL     1       9.253  30.530  58.743  1.00  0.00    -0.327 N 
HETATM   19  H   UNL     1      10.105  31.025  58.487  1.00  0.00     0.169 HD
HETATM   20  O   UNL     1       9.886  29.218  57.052  1.00  0.00    -0.273 OA
BRANCH  18  21
HETATM   21  C   UNL     1       8.636  31.000  59.919  1.00  0.00     0.034 A 
HETATM   22  C   UNL     1       9.093  30.808  61.220  1.00  0.00     0.032 A 
HETATM   23  C   UNL     1       8.423  31.398  62.301  1.00  0.00     0.039 A 
HETATM   24  C   UNL     1       7.290  32.187  62.106  1.00  0.00     0.068 A 
HETATM   25  C   UNL     1       6.807  32.357  60.815  1.00  0.00     0.039 A 
HETATM   26  C   UNL     1       7.475  31.766  59.734  1.00  0.00     0.032 A 
BRANCH  24  27
HETATM   27  O   UNL     1       6.759  32.722  63.244  1.00  0.00    -0.356 OA
HETATM   28  C   UNL     1       7.672  33.080  64.275  1.00  0.00     0.210 C 
ENDBRANCH  24  27
ENDBRANCH  18  21
ENDBRANCH  16  17
ENDBRANCH   2  16
TORSDOF 6
ENDMDL
MODEL 6
REMARK VINA RESULT:      -7.9      5.386      8.462
REMARK  6 active torsions:
REMARK  status: ('A' for Active; 'I' for Inactive)
REMARK    1  A    between atoms: C_2  and  N_3 
REMARK    2  A    between atoms: C_2  and  C_16 
REMARK    3  A    between atoms: N_3  and  C_6 
REMARK    4  A    between atoms: C_16  and  C_17 
REMARK       I    between atoms: C_17  and  N_18 
REMARK    5  A    between atoms: N_18  and  C_19 
REMARK    6  A    between atoms: C_22  and  O_23 
ROOT
HETATM    1  C   UNL     1       7.382  27.724  53.888  1.00  0.00     0.040 C 
HETATM    2  C   UNL     1       6.227  26.797  53.540  1.00  0.00     0.191 C 
ENDROOT
BRANCH   2   3
HETATM    3  N   UNL     1       6.212  25.574  54.439  1.00  0.00    -0.063 N 
HETATM    4  H   UNL     1       5.681  25.888  55.276  1.00  0.00     0.278 HD
HETATM    5  H   UNL     1       5.632  24.834  54.028  1.00  0.00     0.278 HD
BRANCH   3   6
HETATM    6  C   UNL     1       7.488  24.962  54.986  1.00  0.00     0.221 C 
HETATM    7  C   UNL     1       7.721  23.517  54.606  1.00  0.00    -0.011 A 
HETATM    8  C   UNL     1       8.112  22.545  55.544  1.00  0.00     0.009 A 
HETATM    9  C   UNL     1       7.627  23.135  53.249  1.00  0.00     0.011 A 
HETATM   10  C   UNL     1       8.324  21.221  55.134  1.00  0.00     0.019 A 
HETATM   11  S   UNL     1       8.389  22.904  57.266  1.00  0.00    -0.129 SA
HETATM   12  C   UNL     1       8.191  20.857  53.796  1.00  0.00     0.001 A 
HETATM   13  C   UNL     1       7.851  21.817  52.852  1.00  0.00     0.001 A 
HETATM   14  C   UNL     1       8.767  24.668  57.154  1.00  0.00     0.082 C 
HETATM   15  C   UNL     1       7.606  25.360  56.466  1.00  0.00     0.048 C 
ENDBRANCH   3   6
ENDBRANCH   2   3
BRANCH   2  16
HETATM   16  C   UNL     1       6.345  26.335  52.070  1.00  0.00     0.135 C 
BRANCH  16  17
HETATM   17  C   UNL     1       5.094  25.627  51.614  1.00  0.00     0.224 C 
HETATM   18  N   UNL     1       4.356  26.044  50.555  1.00  0.00    -0.327 N 
HETATM   19  H   UNL     1       3.540  25.451  50.424  1.00  0.00     0.169 HD
HETATM   20  O   UNL     1       4.764  24.579  52.187  1.00  0.00    -0.273 OA
BRANCH  18  21
HETATM   21  C   UNL     1       4.525  27.032  49.565  1.00  0.00     0.034 A 
HETATM   22  C   UNL     1       4.970  26.823  48.263  1.00  0.00     0.032 A 
HETATM   23  C   UNL     1       5.019  27.887  47.351  1.00  0.00     0.039 A 
HETATM   24  C   UNL     1       4.625  29.173  47.718  1.00  0.00     0.068 A 
HETATM   25  C   UNL     1       4.210  29.399  49.024  1.00  0.00     0.039 A 
HETATM   26  C   UNL     1       4.163  28.337  49.937  1.00  0.00     0.032 A 
BRANCH  24  27
HETATM   27  O   UNL     1       4.696  30.103  46.721  1.00  0.00    -0.356 OA
HETATM   28  C   UNL     1       3.861  31.248  46.848  1.00  0.00     0.210 C 
ENDBRANCH  24  27
ENDBRANCH  18  21
ENDBRANCH  16  17
ENDBRANCH   2  16
TORSDOF 6
ENDMDL
MODEL 7
REMARK VINA RESULT:      -7.8      3.180      7.851
REMARK  6 active torsions:
REMARK  status: ('A' for Active; 'I' for Inactive)
REMARK    1  A    between atoms: C_2  and  N_3 
REMARK    2  A    between atoms: C_2  and  C_16 
REMARK    3  A    between atoms: N_3  and  C_6 
REMARK    4  A    between atoms: C_16  and  C_17 
REMARK       I    between atoms: C_17  and  N_18 
REMARK    5  A    between atoms: N_18  and  C_19 
REMARK    6  A    between atoms: C_22  and  O_23 
ROOT
HETATM    1  C   UNL     1       6.008  27.608  52.654  1.00  0.00     0.040 C 
HETATM    2  C   UNL     1       6.657  27.771  54.020  1.00  0.00     0.191 C 
ENDROOT
BRANCH   2   3
HETATM    3  N   UNL     1       6.490  26.519  54.863  1.00  0.00    -0.063 N 
HETATM    4  H   UNL     1       6.073  26.870  55.748  1.00  0.00     0.278 HD
HETATM    5  H   UNL     1       5.768  25.910  54.461  1.00  0.00     0.278 HD
BRANCH   3   6
HETATM    6  C   UNL     1       7.674  25.673  55.291  1.00  0.00     0.221 C 
HETATM    7  C   UNL     1       7.788  24.332  54.602  1.00  0.00    -0.011 A 
HETATM    8  C   UNL     1       8.039  23.143  55.306  1.00  0.00     0.009 A 
HETATM    9  C   UNL     1       7.724  24.272  53.192  1.00  0.00     0.011 A 
HETATM   10  C   UNL     1       8.145  21.927  54.615  1.00  0.00     0.019 A 
HETATM   11  S   UNL     1       8.265  23.080  57.072  1.00  0.00    -0.129 SA
HETATM   12  C   UNL     1       8.044  21.884  53.226  1.00  0.00     0.001 A 
HETATM   13  C   UNL     1       7.842  23.059  52.513  1.00  0.00     0.001 A 
HETATM   14  C   UNL     1       8.813  24.777  57.369  1.00  0.00     0.082 C 
HETATM   15  C   UNL     1       7.758  25.719  56.824  1.00  0.00     0.048 C 
ENDBRANCH   3   6
ENDBRANCH   2   3
BRANCH   2  16
HETATM   16  C   UNL     1       6.021  28.965  54.769  1.00  0.00     0.135 C 
BRANCH  16  17
HETATM   17  C   UNL     1       5.161  28.498  55.917  1.00  0.00     0.224 C 
HETATM   18  N   UNL     1       5.420  28.819  57.209  1.00  0.00    -0.327 N 
HETATM   19  H   UNL     1       4.741  28.389  57.834  1.00  0.00     0.169 HD
HETATM   20  O   UNL     1       4.134  27.853  55.663  1.00  0.00    -0.273 OA
BRANCH  18  21
HETATM   21  C   UNL     1       6.339  29.676  57.846  1.00  0.00     0.034 A 
HETATM   22  C   UNL     1       7.659  29.375  58.165  1.00  0.00     0.032 A 
HETATM   23  C   UNL     1       8.493  30.350  58.731  1.00  0.00     0.039 A 
HETATM   24  C   UNL     1       8.027  31.639  58.987  1.00  0.00     0.068 A 
HETATM   25  C   UNL     1       6.701  31.941  58.704  1.00  0.00     0.039 A 
HETATM   26  C   UNL     1       5.867  30.965  58.140  1.00  0.00     0.032 A 
BRANCH  24  27
HETATM   27  O   UNL     1       8.955  32.493  59.511  1.00  0.00    -0.356 OA
HETATM   28  C   UNL     1       9.704  32.024  60.626  1.00  0.00     0.210 C 
ENDBRANCH  24  27
ENDBRANCH  18  21
ENDBRANCH  16  17
ENDBRANCH   2  16
TORSDOF 6
ENDMDL
MODEL 8
REMARK VINA RESULT:      -7.6      4.907      8.256
REMARK  6 active torsions:
REMARK  status: ('A' for Active; 'I' for Inactive)
REMARK    1  A    between atoms: C_2  and  N_3 
REMARK    2  A    between atoms: C_2  and  C_16 
REMARK    3  A    between atoms: N_3  and  C_6 
REMARK    4  A    between atoms: C_16  and  C_17 
REMARK       I    between atoms: C_17  and  N_18 
REMARK    5  A    between atoms: N_18  and  C_19 
REMARK    6  A    between atoms: C_22  and  O_23 
ROOT
HETATM    1  C   UNL     1       5.365  25.483  51.430  1.00  0.00     0.040 C 
HETATM    2  C   UNL     1       5.985  25.805  52.781  1.00  0.00     0.191 C 
ENDROOT
BRANCH   2   3
HETATM    3  N   UNL     1       6.118  24.559  53.638  1.00  0.00    -0.063 N 
HETATM    4  H   UNL     1       5.412  24.698  54.388  1.00  0.00     0.278 HD
HETATM    5  H   UNL     1       5.789  23.733  53.124  1.00  0.00     0.278 HD
BRANCH   3   6
HETATM    6  C   UNL     1       7.405  24.215  54.363  1.00  0.00     0.221 C 
HETATM    7  C   UNL     1       7.807  22.759  54.301  1.00  0.00    -0.011 A 
HETATM    8  C   UNL     1       8.223  22.043  55.437  1.00  0.00     0.009 A 
HETATM    9  C   UNL     1       7.850  22.106  53.049  1.00  0.00     0.011 A 
HETATM   10  C   UNL     1       8.595  20.696  55.320  1.00  0.00     0.019 A 
HETATM   11  S   UNL     1       8.337  22.766  57.061  1.00  0.00    -0.129 SA
HETATM   12  C   UNL     1       8.596  20.061  54.081  1.00  0.00     0.001 A 
HETATM   13  C   UNL     1       8.233  20.769  52.943  1.00  0.00     0.001 A 
HETATM   14  C   UNL     1       8.545  24.503  56.608  1.00  0.00     0.082 C 
HETATM   15  C   UNL     1       7.375  24.910  55.733  1.00  0.00     0.048 C 
ENDBRANCH   3   6
ENDBRANCH   2   3
BRANCH   2  16
HETATM   16  C   UNL     1       5.110  26.835  53.531  1.00  0.00     0.135 C 
BRANCH  16  17
HETATM   17  C   UNL     1       5.749  28.202  53.532  1.00  0.00     0.224 C 
HETATM   18  N   UNL     1       5.683  29.046  52.473  1.00  0.00    -0.327 N 
HETATM   19  H   UNL     1       6.196  29.906  52.659  1.00  0.00     0.169 HD
HETATM   20  O   UNL     1       6.297  28.599  54.571  1.00  0.00    -0.273 OA
BRANCH  18  21
HETATM   21  C   UNL     1       4.994  29.033  51.244  1.00  0.00     0.034 A 
HETATM   22  C   UNL     1       5.568  28.927  49.981  1.00  0.00     0.032 A 
HETATM   23  C   UNL     1       4.759  28.848  48.838  1.00  0.00     0.039 A 
HETATM   24  C   UNL     1       3.368  28.872  48.934  1.00  0.00     0.068 A 
HETATM   25  C   UNL     1       2.786  29.011  50.187  1.00  0.00     0.039 A 
HETATM   26  C   UNL     1       3.594  29.093  51.330  1.00  0.00     0.032 A 
BRANCH  24  27
HETATM   27  O   UNL     1       2.707  28.756  47.745  1.00  0.00    -0.356 OA
HETATM   28  C   UNL     1       2.505  27.438  47.247  1.00  0.00     0.210 C 
ENDBRANCH  24  27
ENDBRANCH  18  21
ENDBRANCH  16  17
ENDBRANCH   2  16
TORSDOF 6
ENDMDL
MODEL 9
REMARK VINA RESULT:      -7.6      5.617      8.444
REMARK  6 active torsions:
REMARK  status: ('A' for Active; 'I' for Inactive)
REMARK    1  A    between atoms: C_2  and  N_3 
REMARK    2  A    between atoms: C_2  and  C_16 
REMARK    3  A    between atoms: N_3  and  C_6 
REMARK    4  A    between atoms: C_16  and  C_17 
REMARK       I    between atoms: C_17  and  N_18 
REMARK    5  A    between atoms: N_18  and  C_19 
REMARK    6  A    between atoms: C_22  and  O_23 
ROOT
HETATM    1  C   UNL     1       4.769  24.864  53.242  1.00  0.00     0.040 C 
HETATM    2  C   UNL     1       5.303  25.826  52.191  1.00  0.00     0.191 C 
ENDROOT
BRANCH   2   3
HETATM    3  N   UNL     1       6.816  25.931  52.259  1.00  0.00    -0.063 N 
HETATM    4  H   UNL     1       7.143  25.260  51.535  1.00  0.00     0.278 HD
HETATM    5  H   UNL     1       7.127  26.849  51.919  1.00  0.00     0.278 HD
BRANCH   3   6
HETATM    6  C   UNL     1       7.592  25.573  53.512  1.00  0.00     0.221 C 
HETATM    7  C   UNL     1       7.650  24.097  53.831  1.00  0.00    -0.011 A 
HETATM    8  C   UNL     1       7.405  23.595  55.121  1.00  0.00     0.009 A 
HETATM    9  C   UNL     1       8.045  23.187  52.825  1.00  0.00     0.011 A 
HETATM   10  C   UNL     1       7.481  22.217  55.363  1.00  0.00     0.019 A 
HETATM   11  S   UNL     1       7.017  24.632  56.517  1.00  0.00    -0.129 SA
HETATM   12  C   UNL     1       7.838  21.331  54.348  1.00  0.00     0.001 A 
HETATM   13  C   UNL     1       8.128  21.818  53.081  1.00  0.00     0.001 A 
HETATM   14  C   UNL     1       7.771  26.179  55.966  1.00  0.00     0.082 C 
HETATM   15  C   UNL     1       7.172  26.549  54.622  1.00  0.00     0.048 C 
ENDBRANCH   3   6
ENDBRANCH   2   3
BRANCH   2  16
HETATM   16  C   UNL     1       4.695  27.231  52.405  1.00  0.00     0.135 C 
BRANCH  16  17
HETATM   17  C   UNL     1       5.369  28.260  51.532  1.00  0.00     0.224 C 
HETATM   18  N   UNL     1       4.946  28.551  50.276  1.00  0.00    -0.327 N 
HETATM   19  H   UNL     1       5.544  29.252  49.844  1.00  0.00     0.169 HD
HETATM   20  O   UNL     1       6.305  28.919  52.007  1.00  0.00    -0.273 OA
BRANCH  18  21
HETATM   21  C   UNL     1       3.829  28.178  49.502  1.00  0.00     0.034 A 
HETATM   22  C   UNL     1       3.809  27.211  48.502  1.00  0.00     0.032 A 
HETATM   23  C   UNL     1       2.608  26.881  47.859  1.00  0.00     0.039 A 
HETATM   24  C   UNL     1       1.409  27.507  48.199  1.00  0.00     0.068 A 
HETATM   25  C   UNL     1       1.425  28.498  49.172  1.00  0.00     0.039 A 
HETATM   26  C   UNL     1       2.626  28.830  49.814  1.00  0.00     0.032 A 
BRANCH  24  27
HETATM   27  O   UNL     1       0.314  27.066  47.513  1.00  0.00    -0.356 OA
HETATM   28  C   UNL     1       0.227  27.427  46.139  1.00  0.00     0.210 C 
ENDBRANCH  24  27
ENDBRANCH  18  21
ENDBRANCH  16  17
ENDBRANCH   2  16
TORSDOF 6
ENDMDL
MODEL 10
REMARK VINA RESULT:      -7.5      2.850      4.709
REMARK  6 active torsions:
REMARK  status: ('A' for Active; 'I' for Inactive)
REMARK    1  A    between atoms: C_2  and  N_3 
REMARK    2  A    between atoms: C_2  and  C_16 
REMARK    3  A    between atoms: N_3  and  C_6 
REMARK    4  A    between atoms: C_16  and  C_17 
REMARK       I    between atoms: C_17  and  N_18 
REMARK    5  A    between atoms: N_18  and  C_19 
REMARK    6  A    between atoms: C_22  and  O_23 
ROOT
HETATM    1  C   UNL     1       6.705  28.820  55.875  1.00  0.00     0.040 C 
HETATM    2  C   UNL     1       5.822  27.593  55.706  1.00  0.00     0.191 C 
ENDROOT
BRANCH   2   3
HETATM    3  N   UNL     1       4.375  27.985  55.464  1.00  0.00    -0.063 N 
HETATM    4  H   UNL     1       3.837  27.154  55.783  1.00  0.00     0.278 HD
HETATM    5  H   UNL     1       4.094  28.735  56.105  1.00  0.00     0.278 HD
BRANCH   3   6
HETATM    6  C   UNL     1       3.846  28.290  54.075  1.00  0.00     0.221 C 
HETATM    7  C   UNL     1       4.448  27.462  52.962  1.00  0.00    -0.011 A 
HETATM    8  C   UNL     1       4.899  28.032  51.760  1.00  0.00     0.009 A 
HETATM    9  C   UNL     1       4.487  26.056  53.091  1.00  0.00     0.011 A 
HETATM   10  C   UNL     1       5.441  27.216  50.757  1.00  0.00     0.019 A 
HETATM   11  S   UNL     1       4.801  29.775  51.405  1.00  0.00    -0.129 SA
HETATM   12  C   UNL     1       5.504  25.833  50.917  1.00  0.00     0.001 A 
HETATM   13  C   UNL     1       5.018  25.252  52.082  1.00  0.00     0.001 A 
HETATM   14  C   UNL     1       3.437  30.232  52.500  1.00  0.00     0.082 C 
HETATM   15  C   UNL     1       3.801  29.817  53.912  1.00  0.00     0.048 C 
ENDBRANCH   3   6
ENDBRANCH   2   3
BRANCH   2  16
HETATM   16  C   UNL     1       5.894  26.711  56.973  1.00  0.00     0.135 C 
BRANCH  16  17
HETATM   17  C   UNL     1       7.322  26.487  57.406  1.00  0.00     0.224 C 
HETATM   18  N   UNL     1       8.112  25.525  56.867  1.00  0.00    -0.327 N 
HETATM   19  H   UNL     1       9.029  25.518  57.308  1.00  0.00     0.169 HD
HETATM   20  O   UNL     1       7.817  27.260  58.239  1.00  0.00    -0.273 OA
BRANCH  18  21
HETATM   21  C   UNL     1       7.976  24.627  55.790  1.00  0.00     0.034 A 
HETATM   22  C   UNL     1       7.933  24.962  54.441  1.00  0.00     0.032 A 
HETATM   23  C   UNL     1       7.872  23.960  53.462  1.00  0.00     0.039 A 
HETATM   24  C   UNL     1       7.854  22.610  53.810  1.00  0.00     0.068 A 
HETATM   25  C   UNL     1       7.863  22.265  55.155  1.00  0.00     0.039 A 
HETATM   26  C   UNL     1       7.921  23.267  56.134  1.00  0.00     0.032 A 
BRANCH  24  27
HETATM   27  O   UNL     1       7.825  21.744  52.755  1.00  0.00    -0.356 OA
HETATM   28  C   UNL     1       8.109  20.378  53.035  1.00  0.00     0.210 C 
ENDBRANCH  24  27
ENDBRANCH  18  21
ENDBRANCH  16  17
ENDBRANCH   2  16
TORSDOF 6
ENDMDL
