MODEL 1
REMARK VINA RESULT:     -11.6      0.000      0.000
REMARK  4 active torsions:
REMARK  status: ('A' for Active; 'I' for Inactive)
REMARK       I    between atoms: N_10  and  C_11 
REMARK    1  A    between atoms: C_11  and  C_12 
REMARK    2  A    between atoms: C_14  and  O_15 
REMARK    3  A    between atoms: O_15  and  C_16 
REMARK    4  A    between atoms: C_16  and  C_17 
ROOT
HETATM    1  C   UNL     1       7.668  29.176  56.337  1.00  0.00     0.034 A 
HETATM    2  C   UNL     1       7.492  29.396  57.709  1.00  0.00     0.053 A 
HETATM    3  C   UNL     1       8.591  29.730  58.500  1.00  0.00     0.070 A 
HETATM    4  C   UNL     1       9.857  29.825  57.910  1.00  0.00     0.037 A 
HETATM    5  C   UNL     1      10.036  29.574  56.549  1.00  0.00     0.004 A 
HETATM    6  C   UNL     1       8.940  29.239  55.759  1.00  0.00     0.017 A 
ENDROOT
BRANCH   1   7
HETATM    7  C   UNL     1       6.492  28.794  55.525  1.00  0.00     0.254 C 
HETATM    8  N   UNL     1       6.265  27.450  55.248  1.00  0.00    -0.343 N 
HETATM    9  C   UNL     1       7.202  26.360  55.603  1.00  0.00     0.167 C 
HETATM   10  C   UNL     1       4.966  27.068  54.657  1.00  0.00     0.132 C 
HETATM   11  C   UNL     1       7.071  25.216  54.650  1.00  0.00    -0.005 A 
HETATM   12  C   UNL     1       7.821  24.006  54.579  1.00  0.00     0.000 A 
HETATM   13  C   UNL     1       6.124  25.159  53.650  1.00  0.00     0.020 A 
HETATM   14  C   UNL     1       8.897  23.471  55.316  1.00  0.00     0.014 A 
HETATM   15  C   UNL     1       7.292  23.255  53.524  1.00  0.00     0.043 A 
HETATM   16  C   UNL     1       9.403  22.210  54.977  1.00  0.00     0.001 A 
HETATM   17  C   UNL     1       8.854  21.483  53.923  1.00  0.00     0.002 A 
HETATM   18  C   UNL     1       7.788  21.992  53.175  1.00  0.00     0.030 A 
HETATM   19  N   UNL     1       6.265  23.988  52.967  1.00  0.00    -0.358 N 
HETATM   20  H   UNL     1       5.706  23.688  52.181  1.00  0.00     0.166 HD
HETATM   21  C   UNL     1       5.122  26.222  53.379  1.00  0.00     0.077 C 
HETATM   22  O   UNL     1       5.765  29.705  55.133  1.00  0.00    -0.267 OA
ENDBRANCH   1   7
BRANCH   3  23
HETATM   23  O   UNL     1       8.574  29.983  59.842  1.00  0.00    -0.345 OA
BRANCH  23  24
HETATM   24  C   UNL     1       9.036  31.269  60.276  1.00  0.00     0.236 C 
BRANCH  24  25
HETATM   25  C   UNL     1       8.156  31.817  61.355  1.00  0.00     0.077 A 
HETATM   26  N   UNL     1       8.704  32.337  62.513  1.00  0.00    -0.232 NA
HETATM   27  C   UNL     1       7.680  32.705  63.254  1.00  0.00     0.134 A 
HETATM   28  N   UNL     1       6.472  32.453  62.613  1.00  0.00    -0.316 N 
HETATM   29  C   UNL     1       7.615  33.284  64.554  1.00  0.00     0.051 A 
HETATM   30  C   UNL     1       6.777  31.901  61.397  1.00  0.00     0.127 A 
HETATM   31  C   UNL     1       5.228  32.735  63.174  1.00  0.00     0.098 A 
HETATM   32  C   UNL     1       5.173  33.278  64.402  1.00  0.00     0.018 A 
HETATM   33  C   UNL     1       6.416  33.558  65.105  1.00  0.00     0.005 A 
ENDBRANCH  24  25
ENDBRANCH  23  24
ENDBRANCH   3  23
TORSDOF 4
ENDMDL
MODEL 2
REMARK VINA RESULT:     -11.5      1.737      2.759
REMARK  4 active torsions:
REMARK  status: ('A' for Active; 'I' for Inactive)
REMARK       I    between atoms: N_10  and  C_11 
REMARK    1  A    between atoms: C_11  and  C_12 
REMARK    2  A    between atoms: C_14  and  O_15 
REMARK    3  A    between atoms: O_15  and  C_16 
REMARK    4  A    between atoms: C_16  and  C_17 
ROOT
HETATM    1  C   UNL     1       6.038  27.833  54.972  1.00  0.00     0.034 A 
HETATM    2  C   UNL     1       7.103  27.871  55.882  1.00  0.00     0.053 A 
HETATM    3  C   UNL     1       6.889  28.356  57.172  1.00  0.00     0.070 A 
HETATM    4  C   UNL     1       5.616  28.812  57.531  1.00  0.00     0.037 A 
HETATM    5  C   UNL     1       4.564  28.803  56.614  1.00  0.00     0.004 A 
HETATM    6  C   UNL     1       4.775  28.322  55.326  1.00  0.00     0.017 A 
ENDROOT
BRANCH   1   7
HETATM    7  C   UNL     1       6.296  27.342  53.601  1.00  0.00     0.254 C 
HETATM    8  N   UNL     1       6.434  25.974  53.385  1.00  0.00    -0.343 N 
HETATM    9  C   UNL     1       6.472  24.963  54.465  1.00  0.00     0.167 C 
HETATM   10  C   UNL     1       6.440  25.485  51.991  1.00  0.00     0.132 C 
HETATM   11  C   UNL     1       7.271  23.770  54.048  1.00  0.00    -0.005 A 
HETATM   12  C   UNL     1       7.619  22.607  54.795  1.00  0.00     0.000 A 
HETATM   13  C   UNL     1       7.799  23.608  52.785  1.00  0.00     0.020 A 
HETATM   14  C   UNL     1       7.375  22.175  56.114  1.00  0.00     0.014 A 
HETATM   15  C   UNL     1       8.356  21.777  53.944  1.00  0.00     0.043 A 
HETATM   16  C   UNL     1       7.868  20.935  56.534  1.00  0.00     0.001 A 
HETATM   17  C   UNL     1       8.597  20.127  55.664  1.00  0.00     0.002 A 
HETATM   18  C   UNL     1       8.856  20.533  54.351  1.00  0.00     0.030 A 
HETATM   19  N   UNL     1       8.460  22.418  52.727  1.00  0.00    -0.358 N 
HETATM   20  H   UNL     1       8.947  22.047  51.923  1.00  0.00     0.166 HD
HETATM   21  C   UNL     1       7.657  24.592  51.681  1.00  0.00     0.077 C 
HETATM   22  O   UNL     1       6.374  28.186  52.711  1.00  0.00    -0.267 OA
ENDBRANCH   1   7
BRANCH   3  23
HETATM   23  O   UNL     1       7.821  28.444  58.167  1.00  0.00    -0.345 OA
BRANCH  23  24
HETATM   24  C   UNL     1       8.648  29.614  58.194  1.00  0.00     0.236 C 
BRANCH  24  25
HETATM   25  C   UNL     1       8.283  30.501  59.342  1.00  0.00     0.077 A 
HETATM   26  N   UNL     1       8.901  30.355  60.570  1.00  0.00    -0.232 NA
HETATM   27  C   UNL     1       8.346  31.254  61.355  1.00  0.00     0.134 A 
HETATM   28  N   UNL     1       7.387  31.998  60.677  1.00  0.00    -0.316 N 
HETATM   29  C   UNL     1       8.555  31.565  62.729  1.00  0.00     0.051 A 
HETATM   30  C   UNL     1       7.357  31.527  59.391  1.00  0.00     0.127 A 
HETATM   31  C   UNL     1       6.636  33.011  61.270  1.00  0.00     0.098 A 
HETATM   32  C   UNL     1       6.836  33.298  62.568  1.00  0.00     0.018 A 
HETATM   33  C   UNL     1       7.832  32.542  63.312  1.00  0.00     0.005 A 
ENDBRANCH  24  25
ENDBRANCH  23  24
ENDBRANCH   3  23
TORSDOF 4
ENDMDL
MODEL 3
REMARK VINA RESULT:     -11.0      2.262     10.421
REMARK  4 active torsions:
REMARK  status: ('A' for Active; 'I' for Inactive)
REMARK       I    between atoms: N_10  and  C_11 
REMARK    1  A    between atoms: C_11  and  C_12 
REMARK    2  A    between atoms: C_14  and  O_15 
REMARK    3  A    between atoms: O_15  and  C_16 
REMARK    4  A    between atoms: C_16  and  C_17 
ROOT
HETATM    1  C   UNL     1       6.839  29.726  57.193  1.00  0.00     0.034 A 
HETATM    2  C   UNL     1       6.420  28.404  57.390  1.00  0.00     0.053 A 
HETATM    3  C   UNL     1       7.364  27.377  57.397  1.00  0.00     0.070 A 
HETATM    4  C   UNL     1       8.714  27.683  57.190  1.00  0.00     0.037 A 
HETATM    5  C   UNL     1       9.126  28.997  56.962  1.00  0.00     0.004 A 
HETATM    6  C   UNL     1       8.185  30.023  56.953  1.00  0.00     0.017 A 
ENDROOT
BRANCH   1   7
HETATM    7  C   UNL     1       5.817  30.795  57.161  1.00  0.00     0.254 C 
HETATM    8  N   UNL     1       5.859  31.803  58.118  1.00  0.00    -0.343 N 
HETATM    9  C   UNL     1       6.791  31.818  59.268  1.00  0.00     0.167 C 
HETATM   10  C   UNL     1       4.994  32.985  57.925  1.00  0.00     0.132 C 
HETATM   11  C   UNL     1       6.200  32.564  60.420  1.00  0.00    -0.005 A 
HETATM   12  C   UNL     1       6.720  32.761  61.734  1.00  0.00     0.000 A 
HETATM   13  C   UNL     1       4.997  33.233  60.361  1.00  0.00     0.020 A 
HETATM   14  C   UNL     1       7.891  32.348  62.400  1.00  0.00     0.014 A 
HETATM   15  C   UNL     1       5.796  33.550  62.427  1.00  0.00     0.043 A 
HETATM   16  C   UNL     1       8.100  32.739  63.728  1.00  0.00     0.001 A 
HETATM   17  C   UNL     1       7.164  33.528  64.393  1.00  0.00     0.002 A 
HETATM   18  C   UNL     1       5.993  33.948  63.756  1.00  0.00     0.030 A 
HETATM   19  N   UNL     1       4.749  33.814  61.569  1.00  0.00    -0.358 N 
HETATM   20  H   UNL     1       3.935  34.361  61.810  1.00  0.00     0.166 HD
HETATM   21  C   UNL     1       4.125  33.293  59.160  1.00  0.00     0.077 C 
HETATM   22  O   UNL     1       4.971  30.731  56.271  1.00  0.00    -0.267 OA
ENDBRANCH   1   7
BRANCH   3  23
HETATM   23  O   UNL     1       7.110  26.047  57.587  1.00  0.00    -0.345 OA
BRANCH  23  24
HETATM   24  C   UNL     1       8.237  25.163  57.642  1.00  0.00     0.236 C 
BRANCH  24  25
HETATM   25  C   UNL     1       8.155  24.125  56.568  1.00  0.00     0.077 A 
HETATM   26  N   UNL     1       8.243  22.781  56.880  1.00  0.00    -0.232 NA
HETATM   27  C   UNL     1       8.162  22.145  55.731  1.00  0.00     0.134 A 
HETATM   28  N   UNL     1       8.011  23.030  54.669  1.00  0.00    -0.316 N 
HETATM   29  C   UNL     1       8.211  20.757  55.415  1.00  0.00     0.051 A 
HETATM   30  C   UNL     1       7.992  24.290  55.205  1.00  0.00     0.127 A 
HETATM   31  C   UNL     1       7.911  22.628  53.339  1.00  0.00     0.098 A 
HETATM   32  C   UNL     1       7.962  21.318  53.046  1.00  0.00     0.018 A 
HETATM   33  C   UNL     1       8.118  20.359  54.130  1.00  0.00     0.005 A 
ENDBRANCH  24  25
ENDBRANCH  23  24
ENDBRANCH   3  23
TORSDOF 4
ENDMDL
MODEL 4
REMARK VINA RESULT:     -10.7      2.114     10.598
REMARK  4 active torsions:
REMARK  status: ('A' for Active; 'I' for Inactive)
REMARK       I    between atoms: N_10  and  C_11 
REMARK    1  A    between atoms: C_11  and  C_12 
REMARK    2  A    between atoms: C_14  and  O_15 
REMARK    3  A    between atoms: O_15  and  C_16 
REMARK    4  A    between atoms: C_16  and  C_17 
ROOT
HETATM    1  C   UNL     1       6.693  29.735  57.209  1.00  0.00     0.034 A 
HETATM    2  C   UNL     1       6.159  28.443  57.119  1.00  0.00     0.053 A 
HETATM    3  C   UNL     1       7.015  27.342  57.142  1.00  0.00     0.070 A 
HETATM    4  C   UNL     1       8.396  27.548  57.240  1.00  0.00     0.037 A 
HETATM    5  C   UNL     1       8.928  28.837  57.298  1.00  0.00     0.004 A 
HETATM    6  C   UNL     1       8.076  29.937  57.272  1.00  0.00     0.017 A 
ENDROOT
BRANCH   1   7
HETATM    7  C   UNL     1       5.768  30.888  57.153  1.00  0.00     0.254 C 
HETATM    8  N   UNL     1       5.877  31.894  58.108  1.00  0.00    -0.343 N 
HETATM    9  C   UNL     1       6.783  31.832  59.277  1.00  0.00     0.167 C 
HETATM   10  C   UNL     1       5.122  33.145  57.894  1.00  0.00     0.132 C 
HETATM   11  C   UNL     1       6.236  32.632  60.415  1.00  0.00    -0.005 A 
HETATM   12  C   UNL     1       6.743  32.789  61.739  1.00  0.00     0.000 A 
HETATM   13  C   UNL     1       5.096  33.403  60.329  1.00  0.00     0.020 A 
HETATM   14  C   UNL     1       7.860  32.279  62.431  1.00  0.00     0.014 A 
HETATM   15  C   UNL     1       5.877  33.658  62.411  1.00  0.00     0.043 A 
HETATM   16  C   UNL     1       8.074  32.656  63.762  1.00  0.00     0.001 A 
HETATM   17  C   UNL     1       7.197  33.527  64.405  1.00  0.00     0.002 A 
HETATM   18  C   UNL     1       6.080  34.043  63.742  1.00  0.00     0.030 A 
HETATM   19  N   UNL     1       4.875  34.008  61.531  1.00  0.00    -0.358 N 
HETATM   20  H   UNL     1       4.106  34.625  61.752  1.00  0.00     0.166 HD
HETATM   21  C   UNL     1       4.258  33.533  59.110  1.00  0.00     0.077 C 
HETATM   22  O   UNL     1       4.938  30.894  56.246  1.00  0.00    -0.267 OA
ENDBRANCH   1   7
BRANCH   3  23
HETATM   23  O   UNL     1       6.644  26.028  57.075  1.00  0.00    -0.345 OA
BRANCH  23  24
HETATM   24  C   UNL     1       6.163  25.544  55.815  1.00  0.00     0.236 C 
BRANCH  24  25
HETATM   25  C   UNL     1       6.843  24.266  55.438  1.00  0.00     0.077 A 
HETATM   26  N   UNL     1       6.841  23.828  54.127  1.00  0.00    -0.232 NA
HETATM   27  C   UNL     1       7.490  22.682  54.136  1.00  0.00     0.134 A 
HETATM   28  N   UNL     1       7.931  22.357  55.414  1.00  0.00    -0.316 N 
HETATM   29  C   UNL     1       7.791  21.760  53.093  1.00  0.00     0.051 A 
HETATM   30  C   UNL     1       7.530  23.374  56.240  1.00  0.00     0.127 A 
HETATM   31  C   UNL     1       8.636  21.194  55.713  1.00  0.00     0.098 A 
HETATM   32  C   UNL     1       8.914  20.326  54.726  1.00  0.00     0.018 A 
HETATM   33  C   UNL     1       8.471  20.631  53.374  1.00  0.00     0.005 A 
ENDBRANCH  24  25
ENDBRANCH  23  24
ENDBRANCH   3  23
TORSDOF 4
ENDMDL
MODEL 5
REMARK VINA RESULT:     -10.3      2.557      9.940
REMARK  4 active torsions:
REMARK  status: ('A' for Active; 'I' for Inactive)
REMARK       I    between atoms: N_10  and  C_11 
REMARK    1  A    between atoms: C_11  and  C_12 
REMARK    2  A    between atoms: C_14  and  O_15 
REMARK    3  A    between atoms: O_15  and  C_16 
REMARK    4  A    between atoms: C_16  and  C_17 
ROOT
HETATM    1  C   UNL     1       4.158  29.884  55.655  1.00  0.00     0.034 A 
HETATM    2  C   UNL     1       4.403  28.667  56.306  1.00  0.00     0.053 A 
HETATM    3  C   UNL     1       4.975  27.611  55.599  1.00  0.00     0.070 A 
HETATM    4  C   UNL     1       5.282  27.780  54.243  1.00  0.00     0.037 A 
HETATM    5  C   UNL     1       5.008  28.981  53.588  1.00  0.00     0.004 A 
HETATM    6  C   UNL     1       4.434  30.036  54.293  1.00  0.00     0.017 A 
ENDROOT
BRANCH   1   7
HETATM    7  C   UNL     1       3.522  30.980  56.420  1.00  0.00     0.254 C 
HETATM    8  N   UNL     1       4.294  31.725  57.307  1.00  0.00    -0.343 N 
HETATM    9  C   UNL     1       5.700  31.414  57.646  1.00  0.00     0.167 C 
HETATM   10  C   UNL     1       3.713  32.961  57.868  1.00  0.00     0.132 C 
HETATM   11  C   UNL     1       6.031  31.890  59.024  1.00  0.00    -0.005 A 
HETATM   12  C   UNL     1       7.237  31.737  59.770  1.00  0.00     0.000 A 
HETATM   13  C   UNL     1       5.162  32.614  59.811  1.00  0.00     0.020 A 
HETATM   14  C   UNL     1       8.477  31.116  59.519  1.00  0.00     0.014 A 
HETATM   15  C   UNL     1       7.047  32.382  60.996  1.00  0.00     0.043 A 
HETATM   16  C   UNL     1       9.480  31.164  60.494  1.00  0.00     0.001 A 
HETATM   17  C   UNL     1       9.263  31.817  61.706  1.00  0.00     0.002 A 
HETATM   18  C   UNL     1       8.042  32.438  61.981  1.00  0.00     0.030 A 
HETATM   19  N   UNL     1       5.768  32.899  60.999  1.00  0.00    -0.358 N 
HETATM   20  H   UNL     1       5.358  33.413  61.766  1.00  0.00     0.166 HD
HETATM   21  C   UNL     1       3.788  33.007  59.406  1.00  0.00     0.077 C 
HETATM   22  O   UNL     1       2.325  31.176  56.224  1.00  0.00    -0.267 OA
ENDBRANCH   1   7
BRANCH   3  23
HETATM   23  O   UNL     1       5.282  26.376  56.097  1.00  0.00    -0.345 OA
BRANCH  23  24
HETATM   24  C   UNL     1       6.670  26.051  56.242  1.00  0.00     0.236 C 
BRANCH  24  25
HETATM   25  C   UNL     1       6.989  24.752  55.571  1.00  0.00     0.077 A 
HETATM   26  N   UNL     1       7.202  23.608  56.316  1.00  0.00    -0.232 NA
HETATM   27  C   UNL     1       7.479  22.663  55.442  1.00  0.00     0.134 A 
HETATM   28  N   UNL     1       7.443  23.148  54.140  1.00  0.00    -0.316 N 
HETATM   29  C   UNL     1       7.804  21.287  55.612  1.00  0.00     0.051 A 
HETATM   30  C   UNL     1       7.116  24.476  54.222  1.00  0.00     0.127 A 
HETATM   31  C   UNL     1       7.707  22.366  53.018  1.00  0.00     0.098 A 
HETATM   32  C   UNL     1       8.017  21.069  53.184  1.00  0.00     0.018 A 
HETATM   33  C   UNL     1       8.064  20.523  54.533  1.00  0.00     0.005 A 
ENDBRANCH  24  25
ENDBRANCH  23  24
ENDBRANCH   3  23
TORSDOF 4
ENDMDL
MODEL 6
REMARK VINA RESULT:     -10.0      2.125     10.731
REMARK  4 active torsions:
REMARK  status: ('A' for Active; 'I' for Inactive)
REMARK       I    between atoms: N_10  and  C_11 
REMARK    1  A    between atoms: C_11  and  C_12 
REMARK    2  A    between atoms: C_14  and  O_15 
REMARK    3  A    between atoms: O_15  and  C_16 
REMARK    4  A    between atoms: C_16  and  C_17 
ROOT
HETATM    1  C   UNL     1       6.488  30.726  58.086  1.00  0.00     0.034 A 
HETATM    2  C   UNL     1       6.429  29.527  57.362  1.00  0.00     0.053 A 
HETATM    3  C   UNL     1       7.588  28.772  57.186  1.00  0.00     0.070 A 
HETATM    4  C   UNL     1       8.795  29.232  57.724  1.00  0.00     0.037 A 
HETATM    5  C   UNL     1       8.859  30.442  58.417  1.00  0.00     0.004 A 
HETATM    6  C   UNL     1       7.703  31.199  58.592  1.00  0.00     0.017 A 
ENDROOT
BRANCH   1   7
HETATM    7  C   UNL     1       5.251  31.524  58.234  1.00  0.00     0.254 C 
HETATM    8  N   UNL     1       5.145  32.422  59.292  1.00  0.00    -0.343 N 
HETATM    9  C   UNL     1       6.144  32.547  60.377  1.00  0.00     0.167 C 
HETATM   10  C   UNL     1       4.023  33.382  59.283  1.00  0.00     0.132 C 
HETATM   11  C   UNL     1       5.501  33.025  61.638  1.00  0.00    -0.005 A 
HETATM   12  C   UNL     1       6.072  33.216  62.931  1.00  0.00     0.000 A 
HETATM   13  C   UNL     1       4.177  33.398  61.727  1.00  0.00     0.020 A 
HETATM   14  C   UNL     1       7.359  33.028  63.475  1.00  0.00     0.014 A 
HETATM   15  C   UNL     1       5.057  33.700  63.762  1.00  0.00     0.043 A 
HETATM   16  C   UNL     1       7.586  33.332  64.822  1.00  0.00     0.001 A 
HETATM   17  C   UNL     1       6.556  33.816  65.626  1.00  0.00     0.002 A 
HETATM   18  C   UNL     1       5.271  34.008  65.112  1.00  0.00     0.030 A 
HETATM   19  N   UNL     1       3.908  33.790  63.004  1.00  0.00    -0.358 N 
HETATM   20  H   UNL     1       3.014  34.107  63.353  1.00  0.00     0.166 HD
HETATM   21  C   UNL     1       3.215  33.363  60.595  1.00  0.00     0.077 C 
HETATM   22  O   UNL     1       4.369  31.347  57.397  1.00  0.00    -0.267 OA
ENDBRANCH   1   7
BRANCH   3  23
HETATM   23  O   UNL     1       7.685  27.584  56.518  1.00  0.00    -0.345 OA
BRANCH  23  24
HETATM   24  C   UNL     1       7.936  26.408  57.298  1.00  0.00     0.236 C 
BRANCH  24  25
HETATM   25  C   UNL     1       8.105  25.209  56.420  1.00  0.00     0.077 A 
HETATM   26  N   UNL     1       7.617  25.209  55.127  1.00  0.00    -0.232 NA
HETATM   27  C   UNL     1       7.902  24.019  54.642  1.00  0.00     0.134 A 
HETATM   28  N   UNL     1       8.575  23.237  55.573  1.00  0.00    -0.316 N 
HETATM   29  C   UNL     1       7.633  23.428  53.373  1.00  0.00     0.051 A 
HETATM   30  C   UNL     1       8.717  24.002  56.701  1.00  0.00     0.127 A 
HETATM   31  C   UNL     1       8.988  21.930  55.328  1.00  0.00     0.098 A 
HETATM   32  C   UNL     1       8.729  21.376  54.132  1.00  0.00     0.018 A 
HETATM   33  C   UNL     1       8.027  22.162  53.128  1.00  0.00     0.005 A 
ENDBRANCH  24  25
ENDBRANCH  23  24
ENDBRANCH   3  23
TORSDOF 4
ENDMDL
MODEL 7
REMARK VINA RESULT:     -10.0      2.012      2.999
REMARK  4 active torsions:
REMARK  status: ('A' for Active; 'I' for Inactive)
REMARK       I    between atoms: N_10  and  C_11 
REMARK    1  A    between atoms: C_11  and  C_12 
REMARK    2  A    between atoms: C_14  and  O_15 
REMARK    3  A    between atoms: O_15  and  C_16 
REMARK    4  A    between atoms: C_16  and  C_17 
ROOT
HETATM    1  C   UNL     1       4.458  29.841  55.071  1.00  0.00     0.034 A 
HETATM    2  C   UNL     1       5.620  29.593  55.813  1.00  0.00     0.053 A 
HETATM    3  C   UNL     1       5.633  29.860  57.181  1.00  0.00     0.070 A 
HETATM    4  C   UNL     1       4.488  30.387  57.789  1.00  0.00     0.037 A 
HETATM    5  C   UNL     1       3.341  30.663  57.043  1.00  0.00     0.004 A 
HETATM    6  C   UNL     1       3.327  30.399  55.676  1.00  0.00     0.017 A 
ENDROOT
BRANCH   1   7
HETATM    7  C   UNL     1       4.478  29.577  53.615  1.00  0.00     0.254 C 
HETATM    8  N   UNL     1       4.727  28.285  53.163  1.00  0.00    -0.343 N 
HETATM    9  C   UNL     1       5.110  27.158  54.042  1.00  0.00     0.167 C 
HETATM   10  C   UNL     1       4.497  27.990  51.734  1.00  0.00     0.132 C 
HETATM   11  C   UNL     1       5.937  26.161  53.297  1.00  0.00    -0.005 A 
HETATM   12  C   UNL     1       6.569  24.974  53.770  1.00  0.00     0.000 A 
HETATM   13  C   UNL     1       6.203  26.245  51.947  1.00  0.00     0.020 A 
HETATM   14  C   UNL     1       6.660  24.341  55.026  1.00  0.00     0.014 A 
HETATM   15  C   UNL     1       7.203  24.380  52.674  1.00  0.00     0.043 A 
HETATM   16  C   UNL     1       7.373  23.142  55.142  1.00  0.00     0.001 A 
HETATM   17  C   UNL     1       7.991  22.572  54.032  1.00  0.00     0.002 A 
HETATM   18  C   UNL     1       7.919  23.180  52.776  1.00  0.00     0.030 A 
HETATM   19  N   UNL     1       6.973  25.183  51.576  1.00  0.00    -0.358 N 
HETATM   20  H   UNL     1       7.320  24.997  50.646  1.00  0.00     0.166 HD
HETATM   21  C   UNL     1       5.718  27.334  51.060  1.00  0.00     0.077 C 
HETATM   22  O   UNL     1       4.267  30.533  52.872  1.00  0.00    -0.267 OA
ENDBRANCH   1   7
BRANCH   3  23
HETATM   23  O   UNL     1       6.682  29.661  58.034  1.00  0.00    -0.345 OA
BRANCH  23  24
HETATM   24  C   UNL     1       7.626  30.730  58.179  1.00  0.00     0.236 C 
BRANCH  24  25
HETATM   25  C   UNL     1       7.573  31.307  59.558  1.00  0.00     0.077 A 
HETATM   26  N   UNL     1       6.722  32.357  59.850  1.00  0.00    -0.232 NA
HETATM   27  C   UNL     1       6.932  32.640  61.118  1.00  0.00     0.134 A 
HETATM   28  N   UNL     1       7.889  31.799  61.676  1.00  0.00    -0.316 N 
HETATM   29  C   UNL     1       6.367  33.633  61.969  1.00  0.00     0.051 A 
HETATM   30  C   UNL     1       8.286  30.941  60.685  1.00  0.00     0.127 A 
HETATM   31  C   UNL     1       8.312  31.884  63.000  1.00  0.00     0.098 A 
HETATM   32  C   UNL     1       7.778  32.825  63.797  1.00  0.00     0.018 A 
HETATM   33  C   UNL     1       6.773  33.724  63.252  1.00  0.00     0.005 A 
ENDBRANCH  24  25
ENDBRANCH  23  24
ENDBRANCH   3  23
TORSDOF 4
ENDMDL
MODEL 8
REMARK VINA RESULT:      -9.8      3.918     12.000
REMARK  4 active torsions:
REMARK  status: ('A' for Active; 'I' for Inactive)
REMARK       I    between atoms: N_10  and  C_11 
REMARK    1  A    between atoms: C_11  and  C_12 
REMARK    2  A    between atoms: C_14  and  O_15 
REMARK    3  A    between atoms: O_15  and  C_16 
REMARK    4  A    between atoms: C_16  and  C_17 
ROOT
HETATM    1  C   UNL     1       4.738  33.205  61.018  1.00  0.00     0.034 A 
HETATM    2  C   UNL     1       5.822  32.317  60.995  1.00  0.00     0.053 A 
HETATM    3  C   UNL     1       6.366  31.927  59.772  1.00  0.00     0.070 A 
HETATM    4  C   UNL     1       5.810  32.418  58.586  1.00  0.00     0.037 A 
HETATM    5  C   UNL     1       4.711  33.278  58.609  1.00  0.00     0.004 A 
HETATM    6  C   UNL     1       4.165  33.666  59.829  1.00  0.00     0.017 A 
ENDROOT
BRANCH   1   7
HETATM    7  C   UNL     1       4.159  33.581  62.327  1.00  0.00     0.254 C 
HETATM    8  N   UNL     1       4.221  34.908  62.741  1.00  0.00    -0.343 N 
HETATM    9  C   UNL     1       4.953  35.970  62.014  1.00  0.00     0.167 C 
HETATM   10  C   UNL     1       3.427  35.309  63.919  1.00  0.00     0.132 C 
HETATM   11  C   UNL     1       5.415  37.035  62.956  1.00  0.00    -0.005 A 
HETATM   12  C   UNL     1       6.206  38.192  62.696  1.00  0.00     0.000 A 
HETATM   13  C   UNL     1       5.098  37.060  64.297  1.00  0.00     0.020 A 
HETATM   14  C   UNL     1       6.819  38.727  61.544  1.00  0.00     0.014 A 
HETATM   15  C   UNL     1       6.340  38.879  63.907  1.00  0.00     0.043 A 
HETATM   16  C   UNL     1       7.536  39.925  61.641  1.00  0.00     0.001 A 
HETATM   17  C   UNL     1       7.651  40.590  62.860  1.00  0.00     0.002 A 
HETATM   18  C   UNL     1       7.055  40.079  64.018  1.00  0.00     0.030 A 
HETATM   19  N   UNL     1       5.664  38.160  64.869  1.00  0.00    -0.358 N 
HETATM   20  H   UNL     1       5.598  38.423  65.843  1.00  0.00     0.166 HD
HETATM   21  C   UNL     1       4.271  36.035  64.985  1.00  0.00     0.077 C 
HETATM   22  O   UNL     1       3.644  32.682  62.988  1.00  0.00    -0.267 OA
ENDBRANCH   1   7
BRANCH   3  23
HETATM   23  O   UNL     1       7.424  31.081  59.591  1.00  0.00    -0.345 OA
BRANCH  23  24
HETATM   24  C   UNL     1       7.772  30.740  58.243  1.00  0.00     0.236 C 
BRANCH  24  25
HETATM   25  C   UNL     1       7.292  29.366  57.898  1.00  0.00     0.077 A 
HETATM   26  N   UNL     1       8.124  28.272  58.042  1.00  0.00    -0.232 NA
HETATM   27  C   UNL     1       7.420  27.236  57.638  1.00  0.00     0.134 A 
HETATM   28  N   UNL     1       6.142  27.613  57.241  1.00  0.00    -0.316 N 
HETATM   29  C   UNL     1       7.749  25.853  57.536  1.00  0.00     0.051 A 
HETATM   30  C   UNL     1       6.056  28.968  57.421  1.00  0.00     0.127 A 
HETATM   31  C   UNL     1       5.190  26.718  56.758  1.00  0.00     0.098 A 
HETATM   32  C   UNL     1       5.506  25.416  56.661  1.00  0.00     0.018 A 
HETATM   33  C   UNL     1       6.834  24.981  57.068  1.00  0.00     0.005 A 
ENDBRANCH  24  25
ENDBRANCH  23  24
ENDBRANCH   3  23
TORSDOF 4
ENDMDL
MODEL 9
REMARK VINA RESULT:      -9.6      2.238     10.142
REMARK  4 active torsions:
REMARK  status: ('A' for Active; 'I' for Inactive)
REMARK       I    between atoms: N_10  and  C_11 
REMARK    1  A    between atoms: C_11  and  C_12 
REMARK    2  A    between atoms: C_14  and  O_15 
REMARK    3  A    between atoms: O_15  and  C_16 
REMARK    4  A    between atoms: C_16  and  C_17 
ROOT
HETATM    1  C   UNL     1       6.870  29.745  57.315  1.00  0.00     0.034 A 
HETATM    2  C   UNL     1       6.395  28.451  57.566  1.00  0.00     0.053 A 
HETATM    3  C   UNL     1       7.294  27.385  57.611  1.00  0.00     0.070 A 
HETATM    4  C   UNL     1       8.655  27.626  57.390  1.00  0.00     0.037 A 
HETATM    5  C   UNL     1       9.122  28.911  57.110  1.00  0.00     0.004 A 
HETATM    6  C   UNL     1       8.226  29.975  57.062  1.00  0.00     0.017 A 
ENDROOT
BRANCH   1   7
HETATM    7  C   UNL     1       5.894  30.855  57.243  1.00  0.00     0.254 C 
HETATM    8  N   UNL     1       5.950  31.871  58.192  1.00  0.00    -0.343 N 
HETATM    9  C   UNL     1       6.848  31.859  59.369  1.00  0.00     0.167 C 
HETATM   10  C   UNL     1       5.141  33.086  57.962  1.00  0.00     0.132 C 
HETATM   11  C   UNL     1       6.255  32.641  60.497  1.00  0.00    -0.005 A 
HETATM   12  C   UNL     1       6.744  32.830  61.823  1.00  0.00     0.000 A 
HETATM   13  C   UNL     1       5.083  33.359  60.396  1.00  0.00     0.020 A 
HETATM   14  C   UNL     1       7.877  32.376  62.527  1.00  0.00     0.014 A 
HETATM   15  C   UNL     1       5.834  33.663  62.481  1.00  0.00     0.043 A 
HETATM   16  C   UNL     1       8.063  32.772  63.857  1.00  0.00     0.001 A 
HETATM   17  C   UNL     1       7.142  33.606  64.487  1.00  0.00     0.002 A 
HETATM   18  C   UNL     1       6.009  34.067  63.812  1.00  0.00     0.030 A 
HETATM   19  N   UNL     1       4.825  33.961  61.591  1.00  0.00    -0.358 N 
HETATM   20  H   UNL     1       4.027  34.545  61.802  1.00  0.00     0.166 HD
HETATM   21  C   UNL     1       4.250  33.442  59.168  1.00  0.00     0.077 C 
HETATM   22  O   UNL     1       5.072  30.817  56.330  1.00  0.00    -0.267 OA
ENDBRANCH   1   7
BRANCH   3  23
HETATM   23  O   UNL     1       6.985  26.077  57.854  1.00  0.00    -0.345 OA
BRANCH  23  24
HETATM   24  C   UNL     1       7.585  25.089  57.006  1.00  0.00     0.236 C 
BRANCH  24  25
HETATM   25  C   UNL     1       7.098  25.224  55.598  1.00  0.00     0.077 A 
HETATM   26  N   UNL     1       5.798  24.891  55.268  1.00  0.00    -0.232 NA
HETATM   27  C   UNL     1       5.698  25.096  53.972  1.00  0.00     0.134 A 
HETATM   28  N   UNL     1       6.893  25.567  53.438  1.00  0.00    -0.316 N 
HETATM   29  C   UNL     1       4.613  24.911  53.067  1.00  0.00     0.051 A 
HETATM   30  C   UNL     1       7.779  25.662  54.478  1.00  0.00     0.127 A 
HETATM   31  C   UNL     1       7.072  25.857  52.088  1.00  0.00     0.098 A 
HETATM   32  C   UNL     1       6.046  25.678  51.239  1.00  0.00     0.018 A 
HETATM   33  C   UNL     1       4.778  25.188  51.759  1.00  0.00     0.005 A 
ENDBRANCH  24  25
ENDBRANCH  23  24
ENDBRANCH   3  23
TORSDOF 4
ENDMDL
MODEL 10
REMARK VINA RESULT:      -9.6      5.914      8.421
REMARK  4 active torsions:
REMARK  status: ('A' for Active; 'I' for Inactive)
REMARK       I    between atoms: N_10  and  C_11 
REMARK    1  A    between atoms: C_11  and  C_12 
REMARK    2  A    between atoms: C_14  and  O_15 
REMARK    3  A    between atoms: O_15  and  C_16 
REMARK    4  A    between atoms: C_16  and  C_17 
ROOT
HETATM    1  C   UNL     1       5.587  27.188  52.497  1.00  0.00     0.034 A 
HETATM    2  C   UNL     1       5.746  28.332  51.703  1.00  0.00     0.053 A 
HETATM    3  C   UNL     1       5.394  28.288  50.354  1.00  0.00     0.070 A 
HETATM    4  C   UNL     1       4.900  27.096  49.812  1.00  0.00     0.037 A 
HETATM    5  C   UNL     1       4.771  25.949  50.597  1.00  0.00     0.004 A 
HETATM    6  C   UNL     1       5.125  25.990  51.942  1.00  0.00     0.017 A 
ENDROOT
BRANCH   1   7
HETATM    7  C   UNL     1       5.995  27.251  53.917  1.00  0.00     0.254 C 
HETATM    8  N   UNL     1       6.851  26.276  54.421  1.00  0.00    -0.343 N 
HETATM    9  C   UNL     1       7.289  25.084  53.662  1.00  0.00     0.167 C 
HETATM   10  C   UNL     1       7.443  26.490  55.757  1.00  0.00     0.132 C 
HETATM   11  C   UNL     1       7.592  23.948  54.585  1.00  0.00    -0.005 A 
HETATM   12  C   UNL     1       7.973  22.608  54.278  1.00  0.00     0.000 A 
HETATM   13  C   UNL     1       7.565  24.052  55.959  1.00  0.00     0.020 A 
HETATM   14  C   UNL     1       8.181  21.894  53.081  1.00  0.00     0.014 A 
HETATM   15  C   UNL     1       8.162  21.946  55.496  1.00  0.00     0.043 A 
HETATM   16  C   UNL     1       8.573  20.552  53.141  1.00  0.00     0.001 A 
HETATM   17  C   UNL     1       8.758  19.918  54.368  1.00  0.00     0.002 A 
HETATM   18  C   UNL     1       8.555  20.603  55.570  1.00  0.00     0.030 A 
HETATM   19  N   UNL     1       7.895  22.848  56.505  1.00  0.00    -0.358 N 
HETATM   20  H   UNL     1       7.948  22.637  57.492  1.00  0.00     0.166 HD
HETATM   21  C   UNL     1       7.224  25.292  56.702  1.00  0.00     0.077 C 
HETATM   22  O   UNL     1       5.548  28.180  54.586  1.00  0.00    -0.267 OA
ENDBRANCH   1   7
BRANCH   3  23
HETATM   23  O   UNL     1       5.481  29.320  49.462  1.00  0.00    -0.345 OA
BRANCH  23  24
HETATM   24  C   UNL     1       4.486  30.348  49.544  1.00  0.00     0.236 C 
BRANCH  24  25
HETATM   25  C   UNL     1       5.116  31.687  49.761  1.00  0.00     0.077 A 
HETATM   26  N   UNL     1       5.144  32.256  51.021  1.00  0.00    -0.232 NA
HETATM   27  C   UNL     1       5.734  33.422  50.869  1.00  0.00     0.134 A 
HETATM   28  N   UNL     1       6.108  33.635  49.547  1.00  0.00    -0.316 N 
HETATM   29  C   UNL     1       6.029  34.459  51.800  1.00  0.00     0.051 A 
HETATM   30  C   UNL     1       5.726  32.523  48.844  1.00  0.00     0.127 A 
HETATM   31  C   UNL     1       6.742  34.793  49.102  1.00  0.00     0.098 A 
HETATM   32  C   UNL     1       7.014  35.769  49.984  1.00  0.00     0.018 A 
HETATM   33  C   UNL     1       6.640  35.584  51.378  1.00  0.00     0.005 A 
ENDBRANCH  24  25
ENDBRANCH  23  24
ENDBRANCH   3  23
TORSDOF 4
ENDMDL
