MODEL 1
REMARK VINA RESULT:      -9.4      0.000      0.000
REMARK  10 active torsions:
REMARK  status: ('A' for Active; 'I' for Inactive)
REMARK    1  A    between atoms: O_2  and  C_3 
REMARK    2  A    between atoms: C_6  and  C_7 
REMARK    3  A    between atoms: C_7  and  C_8 
REMARK    4  A    between atoms: C_8  and  N_9 
REMARK    5  A    between atoms: N_12  and  C_13 
REMARK    6  A    between atoms: C_16  and  O_17 
REMARK    7  A    between atoms: C_23  and  C_24 
REMARK    8  A    between atoms: C_24  and  C_25 
REMARK       I    between atoms: C_25  and  N_26 
REMARK    9  A    between atoms: N_26  and  C_27 
REMARK   10  A    between atoms: C_30  and  O_31 
ROOT
HETATM    1  N   UNL     1       6.240  28.244  56.488  1.00  0.00    -0.319 N 
HETATM    2  C   UNL     1       6.071  27.173  55.602  1.00  0.00     0.332 C 
HETATM    3  O   UNL     1       5.130  27.105  54.824  1.00  0.00    -0.246 OA
HETATM    4  N   UNL     1       7.071  26.250  55.832  1.00  0.00    -0.232 N 
HETATM    5  C   UNL     1       7.707  26.592  56.999  1.00  0.00     0.256 C 
HETATM    6  O   UNL     1       8.507  25.943  57.669  1.00  0.00    -0.270 OA
HETATM    7  C   UNL     1       7.355  28.023  57.388  1.00  0.00     0.190 C 
ENDROOT
BRANCH   7   8
HETATM    8  C   UNL     1       8.565  28.892  57.049  1.00  0.00     0.138 C 
BRANCH   8   9
HETATM    9  C   UNL     1       8.856  30.000  58.051  1.00  0.00     0.224 C 
HETATM   10  N   UNL     1       7.943  30.116  59.077  1.00  0.00    -0.327 N 
HETATM   11  H   UNL     1       7.049  29.632  58.995  1.00  0.00     0.169 HD
HETATM   12  O   UNL     1       9.882  30.666  57.931  1.00  0.00    -0.273 OA
BRANCH  10  13
HETATM   13  C   UNL     1       8.086  30.845  60.275  1.00  0.00     0.034 A 
HETATM   14  C   UNL     1       7.187  31.895  60.490  1.00  0.00     0.032 A 
HETATM   15  C   UNL     1       7.221  32.624  61.681  1.00  0.00     0.039 A 
HETATM   16  C   UNL     1       8.121  32.284  62.688  1.00  0.00     0.068 A 
HETATM   17  C   UNL     1       9.033  31.251  62.472  1.00  0.00     0.039 A 
HETATM   18  C   UNL     1       9.021  30.539  61.265  1.00  0.00     0.032 A 
BRANCH  16  19
HETATM   19  O   UNL     1       8.042  33.041  63.824  1.00  0.00    -0.356 OA
HETATM   20  C   UNL     1       6.719  33.368  64.240  1.00  0.00     0.210 C 
ENDBRANCH  16  19
ENDBRANCH  10  13
ENDBRANCH   8   9
ENDBRANCH   7   8
BRANCH   1  21
HETATM   21  C   UNL     1       5.124  29.135  56.802  1.00  0.00     0.133 C 
BRANCH  21  22
HETATM   22  C   UNL     1       5.344  30.604  56.438  1.00  0.00     0.058 C 
BRANCH  22  23
HETATM   23  C   UNL     1       4.808  31.532  57.500  1.00  0.00    -0.057 A 
HETATM   24  C   UNL     1       5.100  32.902  57.472  1.00  0.00     0.010 A 
HETATM   25  C   UNL     1       4.614  33.757  58.469  1.00  0.00     0.037 A 
HETATM   26  C   UNL     1       3.829  33.252  59.505  1.00  0.00     0.068 A 
HETATM   27  C   UNL     1       3.544  31.887  59.539  1.00  0.00     0.037 A 
HETATM   28  C   UNL     1       4.028  31.031  58.546  1.00  0.00     0.010 A 
BRANCH  26  29
HETATM   29  O   UNL     1       3.290  33.974  60.534  1.00  0.00    -0.356 OA
HETATM   30  C   UNL     1       3.290  33.364  61.818  1.00  0.00     0.210 C 
ENDBRANCH  26  29
ENDBRANCH  22  23
ENDBRANCH  21  22
ENDBRANCH   1  21
BRANCH   4  31
HETATM   31  C   UNL     1       7.360  25.099  55.036  1.00  0.00     0.047 A 
HETATM   32  C   UNL     1       7.218  23.796  55.532  1.00  0.00     0.033 A 
HETATM   33  C   UNL     1       7.424  22.674  54.714  1.00  0.00     0.039 A 
HETATM   34  C   UNL     1       7.757  22.818  53.372  1.00  0.00     0.068 A 
HETATM   35  C   UNL     1       7.928  24.097  52.862  1.00  0.00     0.039 A 
HETATM   36  C   UNL     1       7.730  25.219  53.684  1.00  0.00     0.033 A 
BRANCH  34  37
HETATM   37  O   UNL     1       7.893  21.652  52.674  1.00  0.00    -0.356 OA
HETATM   38  C   UNL     1       8.229  20.496  53.432  1.00  0.00     0.210 C 
ENDBRANCH  34  37
ENDBRANCH   4  31
TORSDOF 10
ENDMDL
MODEL 2
REMARK VINA RESULT:      -9.3      2.758      7.005
REMARK  10 active torsions:
REMARK  status: ('A' for Active; 'I' for Inactive)
REMARK    1  A    between atoms: O_2  and  C_3 
REMARK    2  A    between atoms: C_6  and  C_7 
REMARK    3  A    between atoms: C_7  and  C_8 
REMARK    4  A    between atoms: C_8  and  N_9 
REMARK    5  A    between atoms: N_12  and  C_13 
REMARK    6  A    between atoms: C_16  and  O_17 
REMARK    7  A    between atoms: C_23  and  C_24 
REMARK    8  A    between atoms: C_24  and  C_25 
REMARK       I    between atoms: C_25  and  N_26 
REMARK    9  A    between atoms: N_26  and  C_27 
REMARK   10  A    between atoms: C_30  and  O_31 
ROOT
HETATM    1  N   UNL     1       6.579  26.454  55.935  1.00  0.00    -0.319 N 
HETATM    2  C   UNL     1       5.933  26.191  54.720  1.00  0.00     0.332 C 
HETATM    3  O   UNL     1       5.159  25.256  54.576  1.00  0.00    -0.246 OA
HETATM    4  N   UNL     1       6.384  27.094  53.779  1.00  0.00    -0.232 N 
HETATM    5  C   UNL     1       7.472  27.748  54.301  1.00  0.00     0.256 C 
HETATM    6  O   UNL     1       8.288  28.474  53.738  1.00  0.00    -0.270 OA
HETATM    7  C   UNL     1       7.539  27.532  55.808  1.00  0.00     0.190 C 
ENDROOT
BRANCH   7   8
HETATM    8  C   UNL     1       7.063  28.824  56.470  1.00  0.00     0.138 C 
BRANCH   8   9
HETATM    9  C   UNL     1       7.683  29.113  57.829  1.00  0.00     0.224 C 
HETATM   10  N   UNL     1       7.775  30.449  58.158  1.00  0.00    -0.327 N 
HETATM   11  H   UNL     1       7.641  31.144  57.425  1.00  0.00     0.169 HD
HETATM   12  O   UNL     1       7.999  28.176  58.559  1.00  0.00    -0.273 OA
BRANCH  10  13
HETATM   13  C   UNL     1       8.041  31.003  59.426  1.00  0.00     0.034 A 
HETATM   14  C   UNL     1       7.045  31.809  59.988  1.00  0.00     0.032 A 
HETATM   15  C   UNL     1       7.204  32.343  61.268  1.00  0.00     0.039 A 
HETATM   16  C   UNL     1       8.337  32.041  62.021  1.00  0.00     0.068 A 
HETATM   17  C   UNL     1       9.342  31.254  61.460  1.00  0.00     0.039 A 
HETATM   18  C   UNL     1       9.198  30.743  60.162  1.00  0.00     0.032 A 
BRANCH  16  19
HETATM   19  O   UNL     1       8.371  32.587  63.273  1.00  0.00    -0.356 OA
HETATM   20  C   UNL     1       7.101  32.939  63.813  1.00  0.00     0.210 C 
ENDBRANCH  16  19
ENDBRANCH  10  13
ENDBRANCH   8   9
ENDBRANCH   7   8
BRANCH   1  21
HETATM   21  C   UNL     1       6.664  25.426  56.972  1.00  0.00     0.133 C 
BRANCH  21  22
HETATM   22  C   UNL     1       8.052  24.814  57.167  1.00  0.00     0.058 C 
BRANCH  22  23
HETATM   23  C   UNL     1       8.210  23.526  56.396  1.00  0.00    -0.057 A 
HETATM   24  C   UNL     1       8.238  22.292  57.058  1.00  0.00     0.010 A 
HETATM   25  C   UNL     1       8.400  21.100  56.340  1.00  0.00     0.037 A 
HETATM   26  C   UNL     1       8.535  21.128  54.953  1.00  0.00     0.068 A 
HETATM   27  C   UNL     1       8.514  22.358  54.293  1.00  0.00     0.037 A 
HETATM   28  C   UNL     1       8.353  23.549  55.007  1.00  0.00     0.010 A 
BRANCH  26  29
HETATM   29  O   UNL     1       8.695  20.044  54.135  1.00  0.00    -0.356 OA
HETATM   30  C   UNL     1       8.458  20.242  52.748  1.00  0.00     0.210 C 
ENDBRANCH  26  29
ENDBRANCH  22  23
ENDBRANCH  21  22
ENDBRANCH   1  21
BRANCH   4  31
HETATM   31  C   UNL     1       5.858  27.279  52.464  1.00  0.00     0.047 A 
HETATM   32  C   UNL     1       5.790  26.230  51.535  1.00  0.00     0.033 A 
HETATM   33  C   UNL     1       5.193  26.404  50.276  1.00  0.00     0.039 A 
HETATM   34  C   UNL     1       4.627  27.621  49.914  1.00  0.00     0.068 A 
HETATM   35  C   UNL     1       4.704  28.682  50.806  1.00  0.00     0.039 A 
HETATM   36  C   UNL     1       5.309  28.509  52.061  1.00  0.00     0.033 A 
BRANCH  34  37
HETATM   37  O   UNL     1       4.045  27.653  48.679  1.00  0.00    -0.356 OA
HETATM   38  C   UNL     1       2.642  27.424  48.635  1.00  0.00     0.210 C 
ENDBRANCH  34  37
ENDBRANCH   4  31
TORSDOF 10
ENDMDL
MODEL 3
REMARK VINA RESULT:      -9.0      3.567     10.623
REMARK  10 active torsions:
REMARK  status: ('A' for Active; 'I' for Inactive)
REMARK    1  A    between atoms: O_2  and  C_3 
REMARK    2  A    between atoms: C_6  and  C_7 
REMARK    3  A    between atoms: C_7  and  C_8 
REMARK    4  A    between atoms: C_8  and  N_9 
REMARK    5  A    between atoms: N_12  and  C_13 
REMARK    6  A    between atoms: C_16  and  O_17 
REMARK    7  A    between atoms: C_23  and  C_24 
REMARK    8  A    between atoms: C_24  and  C_25 
REMARK       I    between atoms: C_25  and  N_26 
REMARK    9  A    between atoms: N_26  and  C_27 
REMARK   10  A    between atoms: C_30  and  O_31 
ROOT
HETATM    1  N   UNL     1       7.003  28.433  54.667  1.00  0.00    -0.319 N 
HETATM    2  C   UNL     1       7.747  28.999  55.710  1.00  0.00     0.332 C 
HETATM    3  O   UNL     1       8.969  29.025  55.708  1.00  0.00    -0.246 OA
HETATM    4  N   UNL     1       6.874  29.416  56.695  1.00  0.00    -0.232 N 
HETATM    5  C   UNL     1       5.634  28.902  56.412  1.00  0.00     0.256 C 
HETATM    6  O   UNL     1       4.630  28.856  57.119  1.00  0.00    -0.270 OA
HETATM    7  C   UNL     1       5.586  28.413  54.970  1.00  0.00     0.190 C 
ENDROOT
BRANCH   7   8
HETATM    8  C   UNL     1       4.798  29.447  54.169  1.00  0.00     0.138 C 
BRANCH   8   9
HETATM    9  C   UNL     1       4.157  28.917  52.895  1.00  0.00     0.224 C 
HETATM   10  N   UNL     1       4.894  29.110  51.745  1.00  0.00    -0.327 N 
HETATM   11  H   UNL     1       5.679  29.760  51.770  1.00  0.00     0.169 HD
HETATM   12  O   UNL     1       3.089  28.314  52.964  1.00  0.00    -0.273 OA
BRANCH  10  13
HETATM   13  C   UNL     1       4.697  28.502  50.489  1.00  0.00     0.034 A 
HETATM   14  C   UNL     1       4.917  27.123  50.410  1.00  0.00     0.032 A 
HETATM   15  C   UNL     1       4.681  26.435  49.218  1.00  0.00     0.039 A 
HETATM   16  C   UNL     1       4.180  27.106  48.105  1.00  0.00     0.068 A 
HETATM   17  C   UNL     1       3.976  28.484  48.172  1.00  0.00     0.039 A 
HETATM   18  C   UNL     1       4.242  29.182  49.358  1.00  0.00     0.032 A 
BRANCH  16  19
HETATM   19  O   UNL     1       3.952  26.328  47.005  1.00  0.00    -0.356 OA
HETATM   20  C   UNL     1       2.856  25.426  47.119  1.00  0.00     0.210 C 
ENDBRANCH  16  19
ENDBRANCH  10  13
ENDBRANCH   8   9
ENDBRANCH   7   8
BRANCH   1  21
HETATM   21  C   UNL     1       7.631  27.517  53.716  1.00  0.00     0.133 C 
BRANCH  21  22
HETATM   22  C   UNL     1       6.792  26.293  53.343  1.00  0.00     0.058 C 
BRANCH  22  23
HETATM   23  C   UNL     1       7.424  25.011  53.828  1.00  0.00    -0.057 A 
HETATM   24  C   UNL     1       7.716  24.823  55.185  1.00  0.00     0.010 A 
HETATM   25  C   UNL     1       8.317  23.638  55.628  1.00  0.00     0.037 A 
HETATM   26  C   UNL     1       8.632  22.628  54.720  1.00  0.00     0.068 A 
HETATM   27  C   UNL     1       8.348  22.817  53.367  1.00  0.00     0.037 A 
HETATM   28  C   UNL     1       7.749  23.999  52.921  1.00  0.00     0.010 A 
BRANCH  26  29
HETATM   29  O   UNL     1       9.213  21.427  55.019  1.00  0.00    -0.356 OA
HETATM   30  C   UNL     1       8.727  20.285  54.327  1.00  0.00     0.210 C 
ENDBRANCH  26  29
ENDBRANCH  22  23
ENDBRANCH  21  22
ENDBRANCH   1  21
BRANCH   4  31
HETATM   31  C   UNL     1       7.208  30.193  57.847  1.00  0.00     0.047 A 
HETATM   32  C   UNL     1       6.547  31.391  58.154  1.00  0.00     0.033 A 
HETATM   33  C   UNL     1       6.825  32.100  59.333  1.00  0.00     0.039 A 
HETATM   34  C   UNL     1       7.755  31.626  60.251  1.00  0.00     0.068 A 
HETATM   35  C   UNL     1       8.441  30.455  59.959  1.00  0.00     0.039 A 
HETATM   36  C   UNL     1       8.168  29.751  58.775  1.00  0.00     0.033 A 
BRANCH  34  37
HETATM   37  O   UNL     1       7.909  32.386  61.375  1.00  0.00    -0.356 OA
HETATM   38  C   UNL     1       8.243  31.689  62.570  1.00  0.00     0.210 C 
ENDBRANCH  34  37
ENDBRANCH   4  31
TORSDOF 10
ENDMDL
MODEL 4
REMARK VINA RESULT:      -8.9      4.641      8.354
REMARK  10 active torsions:
REMARK  status: ('A' for Active; 'I' for Inactive)
REMARK    1  A    between atoms: O_2  and  C_3 
REMARK    2  A    between atoms: C_6  and  C_7 
REMARK    3  A    between atoms: C_7  and  C_8 
REMARK    4  A    between atoms: C_8  and  N_9 
REMARK    5  A    between atoms: N_12  and  C_13 
REMARK    6  A    between atoms: C_16  and  O_17 
REMARK    7  A    between atoms: C_23  and  C_24 
REMARK    8  A    between atoms: C_24  and  C_25 
REMARK       I    between atoms: C_25  and  N_26 
REMARK    9  A    between atoms: N_26  and  C_27 
REMARK   10  A    between atoms: C_30  and  O_31 
ROOT
HETATM    1  N   UNL     1       5.686  27.363  52.270  1.00  0.00    -0.319 N 
HETATM    2  C   UNL     1       5.054  26.797  51.156  1.00  0.00     0.332 C 
HETATM    3  O   UNL     1       5.124  25.605  50.896  1.00  0.00    -0.246 OA
HETATM    4  N   UNL     1       4.451  27.806  50.434  1.00  0.00    -0.232 N 
HETATM    5  C   UNL     1       4.898  29.008  50.923  1.00  0.00     0.256 C 
HETATM    6  O   UNL     1       4.776  30.135  50.450  1.00  0.00    -0.270 OA
HETATM    7  C   UNL     1       5.559  28.806  52.282  1.00  0.00     0.190 C 
ENDROOT
BRANCH   7   8
HETATM    8  C   UNL     1       4.574  29.301  53.339  1.00  0.00     0.138 C 
BRANCH   8   9
HETATM    9  C   UNL     1       5.002  29.052  54.778  1.00  0.00     0.224 C 
HETATM   10  N   UNL     1       6.232  29.574  55.121  1.00  0.00    -0.327 N 
HETATM   11  H   UNL     1       6.857  29.885  54.378  1.00  0.00     0.169 HD
HETATM   12  O   UNL     1       4.234  28.477  55.545  1.00  0.00    -0.273 OA
BRANCH  10  13
HETATM   13  C   UNL     1       6.761  29.741  56.416  1.00  0.00     0.034 A 
HETATM   14  C   UNL     1       7.768  28.853  56.810  1.00  0.00     0.032 A 
HETATM   15  C   UNL     1       8.391  28.993  58.052  1.00  0.00     0.039 A 
HETATM   16  C   UNL     1       8.047  30.046  58.897  1.00  0.00     0.068 A 
HETATM   17  C   UNL     1       7.031  30.923  58.519  1.00  0.00     0.039 A 
HETATM   18  C   UNL     1       6.384  30.766  57.285  1.00  0.00     0.032 A 
BRANCH  16  19
HETATM   19  O   UNL     1       8.744  30.107  60.071  1.00  0.00    -0.356 OA
HETATM   20  C   UNL     1       8.461  31.242  60.882  1.00  0.00     0.210 C 
ENDBRANCH  16  19
ENDBRANCH  10  13
ENDBRANCH   8   9
ENDBRANCH   7   8
BRANCH   1  21
HETATM   21  C   UNL     1       6.761  26.650  52.960  1.00  0.00     0.133 C 
BRANCH  21  22
HETATM   22  C   UNL     1       6.321  25.830  54.175  1.00  0.00     0.058 C 
BRANCH  22  23
HETATM   23  C   UNL     1       6.905  24.439  54.154  1.00  0.00    -0.057 A 
HETATM   24  C   UNL     1       7.059  23.707  55.338  1.00  0.00     0.010 A 
HETATM   25  C   UNL     1       7.616  22.422  55.317  1.00  0.00     0.037 A 
HETATM   26  C   UNL     1       8.025  21.854  54.111  1.00  0.00     0.068 A 
HETATM   27  C   UNL     1       7.879  22.585  52.931  1.00  0.00     0.037 A 
HETATM   28  C   UNL     1       7.324  23.868  52.949  1.00  0.00     0.010 A 
BRANCH  26  29
HETATM   29  O   UNL     1       8.577  20.614  53.949  1.00  0.00    -0.356 OA
HETATM   30  C   UNL     1       8.800  19.849  55.127  1.00  0.00     0.210 C 
ENDBRANCH  26  29
ENDBRANCH  22  23
ENDBRANCH  21  22
ENDBRANCH   1  21
BRANCH   4  31
HETATM   31  C   UNL     1       3.564  27.640  49.326  1.00  0.00     0.047 A 
HETATM   32  C   UNL     1       3.874  26.805  48.243  1.00  0.00     0.033 A 
HETATM   33  C   UNL     1       2.958  26.584  47.202  1.00  0.00     0.039 A 
HETATM   34  C   UNL     1       1.699  27.173  47.220  1.00  0.00     0.068 A 
HETATM   35  C   UNL     1       1.377  28.024  48.268  1.00  0.00     0.039 A 
HETATM   36  C   UNL     1       2.297  28.250  49.304  1.00  0.00     0.033 A 
BRANCH  34  37
HETATM   37  O   UNL     1       0.887  26.852  46.170  1.00  0.00    -0.356 OA
HETATM   38  C   UNL     1      -0.300  27.624  46.029  1.00  0.00     0.210 C 
ENDBRANCH  34  37
ENDBRANCH   4  31
TORSDOF 10
ENDMDL
MODEL 5
REMARK VINA RESULT:      -8.8      5.016      8.623
REMARK  10 active torsions:
REMARK  status: ('A' for Active; 'I' for Inactive)
REMARK    1  A    between atoms: O_2  and  C_3 
REMARK    2  A    between atoms: C_6  and  C_7 
REMARK    3  A    between atoms: C_7  and  C_8 
REMARK    4  A    between atoms: C_8  and  N_9 
REMARK    5  A    between atoms: N_12  and  C_13 
REMARK    6  A    between atoms: C_16  and  O_17 
REMARK    7  A    between atoms: C_23  and  C_24 
REMARK    8  A    between atoms: C_24  and  C_25 
REMARK       I    between atoms: C_25  and  N_26 
REMARK    9  A    between atoms: N_26  and  C_27 
REMARK   10  A    between atoms: C_30  and  O_31 
ROOT
HETATM    1  N   UNL     1       5.306  26.554  51.383  1.00  0.00    -0.319 N 
HETATM    2  C   UNL     1       4.670  26.825  50.165  1.00  0.00     0.332 C 
HETATM    3  O   UNL     1       4.302  25.941  49.404  1.00  0.00    -0.246 OA
HETATM    4  N   UNL     1       4.623  28.193  49.989  1.00  0.00    -0.232 N 
HETATM    5  C   UNL     1       5.430  28.773  50.934  1.00  0.00     0.256 C 
HETATM    6  O   UNL     1       5.831  29.932  51.011  1.00  0.00    -0.270 OA
HETATM    7  C   UNL     1       5.756  27.769  52.033  1.00  0.00     0.190 C 
ENDROOT
BRANCH   7   8
HETATM    8  C   UNL     1       4.904  28.136  53.246  1.00  0.00     0.138 C 
BRANCH   8   9
HETATM    9  C   UNL     1       5.617  28.026  54.586  1.00  0.00     0.224 C 
HETATM   10  N   UNL     1       6.657  28.913  54.770  1.00  0.00    -0.327 N 
HETATM   11  H   UNL     1       7.022  29.415  53.960  1.00  0.00     0.169 HD
HETATM   12  O   UNL     1       5.206  27.227  55.424  1.00  0.00    -0.273 OA
BRANCH  10  13
HETATM   13  C   UNL     1       7.310  29.230  55.978  1.00  0.00     0.034 A 
HETATM   14  C   UNL     1       6.561  29.913  56.943  1.00  0.00     0.032 A 
HETATM   15  C   UNL     1       7.114  30.206  58.191  1.00  0.00     0.039 A 
HETATM   16  C   UNL     1       8.403  29.783  58.507  1.00  0.00     0.068 A 
HETATM   17  C   UNL     1       9.161  29.120  57.543  1.00  0.00     0.039 A 
HETATM   18  C   UNL     1       8.619  28.851  56.278  1.00  0.00     0.032 A 
BRANCH  16  19
HETATM   19  O   UNL     1       8.829  30.093  59.768  1.00  0.00    -0.356 OA
HETATM   20  C   UNL     1       9.321  31.420  59.929  1.00  0.00     0.210 C 
ENDBRANCH  16  19
ENDBRANCH  10  13
ENDBRANCH   8   9
ENDBRANCH   7   8
BRANCH   1  21
HETATM   21  C   UNL     1       5.903  25.243  51.637  1.00  0.00     0.133 C 
BRANCH  21  22
HETATM   22  C   UNL     1       7.383  25.267  52.021  1.00  0.00     0.058 C 
BRANCH  22  23
HETATM   23  C   UNL     1       7.680  24.331  53.167  1.00  0.00    -0.057 A 
HETATM   24  C   UNL     1       7.960  22.978  52.934  1.00  0.00     0.010 A 
HETATM   25  C   UNL     1       8.220  22.108  54.001  1.00  0.00     0.037 A 
HETATM   26  C   UNL     1       8.204  22.581  55.312  1.00  0.00     0.068 A 
HETATM   27  C   UNL     1       7.918  23.927  55.546  1.00  0.00     0.037 A 
HETATM   28  C   UNL     1       7.658  24.798  54.483  1.00  0.00     0.010 A 
BRANCH  26  29
HETATM   29  O   UNL     1       8.443  21.844  56.439  1.00  0.00    -0.356 OA
HETATM   30  C   UNL     1       8.198  20.446  56.358  1.00  0.00     0.210 C 
ENDBRANCH  26  29
ENDBRANCH  22  23
ENDBRANCH  21  22
ENDBRANCH   1  21
BRANCH   4  31
HETATM   31  C   UNL     1       3.912  28.890  48.964  1.00  0.00     0.047 A 
HETATM   32  C   UNL     1       4.555  29.403  47.829  1.00  0.00     0.033 A 
HETATM   33  C   UNL     1       3.833  30.011  46.789  1.00  0.00     0.039 A 
HETATM   34  C   UNL     1       2.446  30.106  46.842  1.00  0.00     0.068 A 
HETATM   35  C   UNL     1       1.788  29.628  47.966  1.00  0.00     0.039 A 
HETATM   36  C   UNL     1       2.513  29.029  49.009  1.00  0.00     0.033 A 
BRANCH  34  37
HETATM   37  O   UNL     1       1.858  30.685  45.753  1.00  0.00    -0.356 OA
HETATM   38  C   UNL     1       0.448  30.866  45.818  1.00  0.00     0.210 C 
ENDBRANCH  34  37
ENDBRANCH   4  31
TORSDOF 10
ENDMDL
MODEL 6
REMARK VINA RESULT:      -8.6      2.330      9.629
REMARK  10 active torsions:
REMARK  status: ('A' for Active; 'I' for Inactive)
REMARK    1  A    between atoms: O_2  and  C_3 
REMARK    2  A    between atoms: C_6  and  C_7 
REMARK    3  A    between atoms: C_7  and  C_8 
REMARK    4  A    between atoms: C_8  and  N_9 
REMARK    5  A    between atoms: N_12  and  C_13 
REMARK    6  A    between atoms: C_16  and  O_17 
REMARK    7  A    between atoms: C_23  and  C_24 
REMARK    8  A    between atoms: C_24  and  C_25 
REMARK       I    between atoms: C_25  and  N_26 
REMARK    9  A    between atoms: N_26  and  C_27 
REMARK   10  A    between atoms: C_30  and  O_31 
ROOT
HETATM    1  N   UNL     1       6.028  29.942  56.750  1.00  0.00    -0.319 N 
HETATM    2  C   UNL     1       6.157  30.909  57.756  1.00  0.00     0.332 C 
HETATM    3  O   UNL     1       5.453  31.907  57.802  1.00  0.00    -0.246 OA
HETATM    4  N   UNL     1       7.214  30.557  58.570  1.00  0.00    -0.232 N 
HETATM    5  C   UNL     1       7.905  29.541  57.959  1.00  0.00     0.256 C 
HETATM    6  O   UNL     1       9.008  29.075  58.232  1.00  0.00    -0.270 OA
HETATM    7  C   UNL     1       7.061  28.930  56.846  1.00  0.00     0.190 C 
ENDROOT
BRANCH   7   8
HETATM    8  C   UNL     1       6.529  27.595  57.365  1.00  0.00     0.138 C 
BRANCH   8   9
HETATM    9  C   UNL     1       6.316  26.533  56.298  1.00  0.00     0.224 C 
HETATM   10  N   UNL     1       7.465  26.083  55.682  1.00  0.00    -0.327 N 
HETATM   11  H   UNL     1       8.327  26.614  55.805  1.00  0.00     0.169 HD
HETATM   12  O   UNL     1       5.183  26.104  56.092  1.00  0.00    -0.273 OA
BRANCH  10  13
HETATM   13  C   UNL     1       7.613  24.938  54.873  1.00  0.00     0.034 A 
HETATM   14  C   UNL     1       7.621  23.699  55.523  1.00  0.00     0.032 A 
HETATM   15  C   UNL     1       7.697  22.514  54.788  1.00  0.00     0.039 A 
HETATM   16  C   UNL     1       7.720  22.551  53.395  1.00  0.00     0.068 A 
HETATM   17  C   UNL     1       7.733  23.783  52.742  1.00  0.00     0.039 A 
HETATM   18  C   UNL     1       7.687  24.974  53.480  1.00  0.00     0.032 A 
BRANCH  16  19
HETATM   19  O   UNL     1       7.759  21.332  52.778  1.00  0.00    -0.356 OA
HETATM   20  C   UNL     1       8.722  20.421  53.300  1.00  0.00     0.210 C 
ENDBRANCH  16  19
ENDBRANCH  10  13
ENDBRANCH   8   9
ENDBRANCH   7   8
BRANCH   1  21
HETATM   21  C   UNL     1       5.324  30.250  55.507  1.00  0.00     0.133 C 
BRANCH  21  22
HETATM   22  C   UNL     1       4.274  29.221  55.084  1.00  0.00     0.058 C 
BRANCH  22  23
HETATM   23  C   UNL     1       4.427  28.827  53.635  1.00  0.00    -0.057 A 
HETATM   24  C   UNL     1       3.442  29.155  52.694  1.00  0.00     0.010 A 
HETATM   25  C   UNL     1       3.581  28.774  51.353  1.00  0.00     0.037 A 
HETATM   26  C   UNL     1       4.705  28.062  50.938  1.00  0.00     0.068 A 
HETATM   27  C   UNL     1       5.683  27.728  51.876  1.00  0.00     0.037 A 
HETATM   28  C   UNL     1       5.548  28.106  53.215  1.00  0.00     0.010 A 
BRANCH  26  29
HETATM   29  O   UNL     1       4.965  27.634  49.665  1.00  0.00    -0.356 OA
HETATM   30  C   UNL     1       4.266  26.480  49.218  1.00  0.00     0.210 C 
ENDBRANCH  26  29
ENDBRANCH  22  23
ENDBRANCH  21  22
ENDBRANCH   1  21
BRANCH   4  31
HETATM   31  C   UNL     1       7.575  31.180  59.804  1.00  0.00     0.047 A 
HETATM   32  C   UNL     1       6.818  32.219  60.363  1.00  0.00     0.033 A 
HETATM   33  C   UNL     1       7.134  32.764  61.618  1.00  0.00     0.039 A 
HETATM   34  C   UNL     1       8.203  32.275  62.362  1.00  0.00     0.068 A 
HETATM   35  C   UNL     1       8.983  31.264  61.820  1.00  0.00     0.039 A 
HETATM   36  C   UNL     1       8.670  30.726  60.561  1.00  0.00     0.033 A 
BRANCH  34  37
HETATM   37  O   UNL     1       8.385  32.863  63.581  1.00  0.00    -0.356 OA
HETATM   38  C   UNL     1       7.216  33.071  64.364  1.00  0.00     0.210 C 
ENDBRANCH  34  37
ENDBRANCH   4  31
TORSDOF 10
ENDMDL
MODEL 7
REMARK VINA RESULT:      -8.1      4.728     11.303
REMARK  10 active torsions:
REMARK  status: ('A' for Active; 'I' for Inactive)
REMARK    1  A    between atoms: O_2  and  C_3 
REMARK    2  A    between atoms: C_6  and  C_7 
REMARK    3  A    between atoms: C_7  and  C_8 
REMARK    4  A    between atoms: C_8  and  N_9 
REMARK    5  A    between atoms: N_12  and  C_13 
REMARK    6  A    between atoms: C_16  and  O_17 
REMARK    7  A    between atoms: C_23  and  C_24 
REMARK    8  A    between atoms: C_24  and  C_25 
REMARK       I    between atoms: C_25  and  N_26 
REMARK    9  A    between atoms: N_26  and  C_27 
REMARK   10  A    between atoms: C_30  and  O_31 
ROOT
HETATM    1  N   UNL     1       5.345  27.031  54.042  1.00  0.00    -0.319 N 
HETATM    2  C   UNL     1       5.469  27.542  55.341  1.00  0.00     0.332 C 
HETATM    3  O   UNL     1       5.955  26.896  56.257  1.00  0.00    -0.246 OA
HETATM    4  N   UNL     1       4.899  28.798  55.374  1.00  0.00    -0.232 N 
HETATM    5  C   UNL     1       4.203  28.983  54.206  1.00  0.00     0.256 C 
HETATM    6  O   UNL     1       3.395  29.861  53.912  1.00  0.00    -0.270 OA
HETATM    7  C   UNL     1       4.622  27.941  53.176  1.00  0.00     0.190 C 
ENDROOT
BRANCH   7   8
HETATM    8  C   UNL     1       5.532  28.642  52.169  1.00  0.00     0.138 C 
BRANCH   8   9
HETATM    9  C   UNL     1       5.050  28.591  50.727  1.00  0.00     0.224 C 
HETATM   10  N   UNL     1       3.929  27.816  50.512  1.00  0.00    -0.327 N 
HETATM   11  H   UNL     1       3.631  27.172  51.245  1.00  0.00     0.169 HD
HETATM   12  O   UNL     1       5.624  29.265  49.875  1.00  0.00    -0.273 OA
BRANCH  10  13
HETATM   13  C   UNL     1       3.108  27.794  49.367  1.00  0.00     0.034 A 
HETATM   14  C   UNL     1       2.078  28.739  49.307  1.00  0.00     0.032 A 
HETATM   15  C   UNL     1       1.262  28.827  48.178  1.00  0.00     0.039 A 
HETATM   16  C   UNL     1       1.493  28.005  47.077  1.00  0.00     0.068 A 
HETATM   17  C   UNL     1       2.505  27.047  47.138  1.00  0.00     0.039 A 
HETATM   18  C   UNL     1       3.306  26.937  48.283  1.00  0.00     0.032 A 
BRANCH  16  19
HETATM   19  O   UNL     1       0.657  28.201  46.014  1.00  0.00    -0.356 OA
HETATM   20  C   UNL     1      -0.709  27.871  46.251  1.00  0.00     0.210 C 
ENDBRANCH  16  19
ENDBRANCH  10  13
ENDBRANCH   8   9
ENDBRANCH   7   8
BRANCH   1  21
HETATM   21  C   UNL     1       5.432  25.592  53.796  1.00  0.00     0.133 C 
BRANCH  21  22
HETATM   22  C   UNL     1       6.704  25.132  53.081  1.00  0.00     0.058 C 
BRANCH  22  23
HETATM   23  C   UNL     1       7.191  23.803  53.604  1.00  0.00    -0.057 A 
HETATM   24  C   UNL     1       7.736  22.846  52.738  1.00  0.00     0.010 A 
HETATM   25  C   UNL     1       8.173  21.608  53.225  1.00  0.00     0.037 A 
HETATM   26  C   UNL     1       8.071  21.312  54.584  1.00  0.00     0.068 A 
HETATM   27  C   UNL     1       7.522  22.262  55.447  1.00  0.00     0.037 A 
HETATM   28  C   UNL     1       7.085  23.499  54.963  1.00  0.00     0.010 A 
BRANCH  26  29
HETATM   29  O   UNL     1       8.461  20.149  55.188  1.00  0.00    -0.356 OA
HETATM   30  C   UNL     1       9.362  20.262  56.282  1.00  0.00     0.210 C 
ENDBRANCH  26  29
ENDBRANCH  22  23
ENDBRANCH  21  22
ENDBRANCH   1  21
BRANCH   4  31
HETATM   31  C   UNL     1       4.963  29.727  56.458  1.00  0.00     0.047 A 
HETATM   32  C   UNL     1       6.167  30.328  56.853  1.00  0.00     0.033 A 
HETATM   33  C   UNL     1       6.202  31.302  57.863  1.00  0.00     0.039 A 
HETATM   34  C   UNL     1       5.036  31.722  58.495  1.00  0.00     0.068 A 
HETATM   35  C   UNL     1       3.835  31.125  58.139  1.00  0.00     0.039 A 
HETATM   36  C   UNL     1       3.802  30.144  57.134  1.00  0.00     0.033 A 
BRANCH  34  37
HETATM   37  O   UNL     1       5.198  32.701  59.433  1.00  0.00    -0.356 OA
HETATM   38  C   UNL     1       4.204  32.773  60.449  1.00  0.00     0.210 C 
ENDBRANCH  34  37
ENDBRANCH   4  31
TORSDOF 10
ENDMDL
MODEL 8
REMARK VINA RESULT:      -8.0      3.065     10.175
REMARK  10 active torsions:
REMARK  status: ('A' for Active; 'I' for Inactive)
REMARK    1  A    between atoms: O_2  and  C_3 
REMARK    2  A    between atoms: C_6  and  C_7 
REMARK    3  A    between atoms: C_7  and  C_8 
REMARK    4  A    between atoms: C_8  and  N_9 
REMARK    5  A    between atoms: N_12  and  C_13 
REMARK    6  A    between atoms: C_16  and  O_17 
REMARK    7  A    between atoms: C_23  and  C_24 
REMARK    8  A    between atoms: C_24  and  C_25 
REMARK       I    between atoms: C_25  and  N_26 
REMARK    9  A    between atoms: N_26  and  C_27 
REMARK   10  A    between atoms: C_30  and  O_31 
ROOT
HETATM    1  N   UNL     1       4.829  28.934  55.016  1.00  0.00    -0.319 N 
HETATM    2  C   UNL     1       4.233  30.118  55.468  1.00  0.00     0.332 C 
HETATM    3  O   UNL     1       3.258  30.613  54.922  1.00  0.00    -0.246 OA
HETATM    4  N   UNL     1       4.972  30.605  56.526  1.00  0.00    -0.232 N 
HETATM    5  C   UNL     1       6.148  29.900  56.587  1.00  0.00     0.256 C 
HETATM    6  O   UNL     1       7.164  30.135  57.237  1.00  0.00    -0.270 OA
HETATM    7  C   UNL     1       6.041  28.631  55.751  1.00  0.00     0.190 C 
ENDROOT
BRANCH   7   8
HETATM    8  C   UNL     1       5.863  27.465  56.723  1.00  0.00     0.138 C 
BRANCH   8   9
HETATM    9  C   UNL     1       5.917  26.086  56.083  1.00  0.00     0.224 C 
HETATM   10  N   UNL     1       6.926  25.907  55.160  1.00  0.00    -0.327 N 
HETATM   11  H   UNL     1       7.416  26.728  54.806  1.00  0.00     0.169 HD
HETATM   12  O   UNL     1       5.128  25.219  56.453  1.00  0.00    -0.273 OA
BRANCH  10  13
HETATM   13  C   UNL     1       7.388  24.691  54.620  1.00  0.00     0.034 A 
HETATM   14  C   UNL     1       7.825  23.719  55.527  1.00  0.00     0.032 A 
HETATM   15  C   UNL     1       8.236  22.463  55.077  1.00  0.00     0.039 A 
HETATM   16  C   UNL     1       8.174  22.146  53.722  1.00  0.00     0.068 A 
HETATM   17  C   UNL     1       7.758  23.117  52.810  1.00  0.00     0.039 A 
HETATM   18  C   UNL     1       7.374  24.388  53.258  1.00  0.00     0.032 A 
BRANCH  16  19
HETATM   19  O   UNL     1       8.567  20.878  53.397  1.00  0.00    -0.356 OA
HETATM   20  C   UNL     1       8.849  20.032  54.508  1.00  0.00     0.210 C 
ENDBRANCH  16  19
ENDBRANCH  10  13
ENDBRANCH   8   9
ENDBRANCH   7   8
BRANCH   1  21
HETATM   21  C   UNL     1       4.566  28.434  53.668  1.00  0.00     0.133 C 
BRANCH  21  22
HETATM   22  C   UNL     1       5.784  28.389  52.743  1.00  0.00     0.058 C 
BRANCH  22  23
HETATM   23  C   UNL     1       5.424  27.888  51.366  1.00  0.00    -0.057 A 
HETATM   24  C   UNL     1       5.335  28.770  50.281  1.00  0.00     0.010 A 
HETATM   25  C   UNL     1       4.986  28.303  49.008  1.00  0.00     0.037 A 
HETATM   26  C   UNL     1       4.722  26.949  48.804  1.00  0.00     0.068 A 
HETATM   27  C   UNL     1       4.804  26.070  49.885  1.00  0.00     0.037 A 
HETATM   28  C   UNL     1       5.152  26.533  51.157  1.00  0.00     0.010 A 
BRANCH  26  29
HETATM   29  O   UNL     1       4.376  26.365  47.617  1.00  0.00    -0.356 OA
HETATM   30  C   UNL     1       3.271  25.471  47.637  1.00  0.00     0.210 C 
ENDBRANCH  26  29
ENDBRANCH  22  23
ENDBRANCH  21  22
ENDBRANCH   1  21
BRANCH   4  31
HETATM   31  C   UNL     1       4.614  31.696  57.377  1.00  0.00     0.047 A 
HETATM   32  C   UNL     1       3.946  31.503  58.594  1.00  0.00     0.033 A 
HETATM   33  C   UNL     1       3.676  32.574  59.460  1.00  0.00     0.039 A 
HETATM   34  C   UNL     1       4.082  33.867  59.148  1.00  0.00     0.068 A 
HETATM   35  C   UNL     1       4.723  34.089  57.937  1.00  0.00     0.039 A 
HETATM   36  C   UNL     1       4.985  33.018  57.068  1.00  0.00     0.033 A 
BRANCH  34  37
HETATM   37  O   UNL     1       3.793  34.815  60.088  1.00  0.00    -0.356 OA
HETATM   38  C   UNL     1       2.525  35.451  59.975  1.00  0.00     0.210 C 
ENDBRANCH  34  37
ENDBRANCH   4  31
TORSDOF 10
ENDMDL
MODEL 9
REMARK VINA RESULT:      -7.9      3.748      9.226
REMARK  10 active torsions:
REMARK  status: ('A' for Active; 'I' for Inactive)
REMARK    1  A    between atoms: O_2  and  C_3 
REMARK    2  A    between atoms: C_6  and  C_7 
REMARK    3  A    between atoms: C_7  and  C_8 
REMARK    4  A    between atoms: C_8  and  N_9 
REMARK    5  A    between atoms: N_12  and  C_13 
REMARK    6  A    between atoms: C_16  and  O_17 
REMARK    7  A    between atoms: C_23  and  C_24 
REMARK    8  A    between atoms: C_24  and  C_25 
REMARK       I    between atoms: C_25  and  N_26 
REMARK    9  A    between atoms: N_26  and  C_27 
REMARK   10  A    between atoms: C_30  and  O_31 
ROOT
HETATM    1  N   UNL     1       4.223  28.808  54.675  1.00  0.00    -0.319 N 
HETATM    2  C   UNL     1       4.043  30.184  54.480  1.00  0.00     0.332 C 
HETATM    3  O   UNL     1       4.176  30.998  55.382  1.00  0.00    -0.246 OA
HETATM    4  N   UNL     1       3.639  30.393  53.177  1.00  0.00    -0.232 N 
HETATM    5  C   UNL     1       3.321  29.177  52.628  1.00  0.00     0.256 C 
HETATM    6  O   UNL     1       2.736  28.927  51.576  1.00  0.00    -0.270 OA
HETATM    7  C   UNL     1       3.881  28.051  53.488  1.00  0.00     0.190 C 
ENDROOT
BRANCH   7   8
HETATM    8  C   UNL     1       5.110  27.502  52.766  1.00  0.00     0.138 C 
BRANCH   8   9
HETATM    9  C   UNL     1       5.365  26.017  52.975  1.00  0.00     0.224 C 
HETATM   10  N   UNL     1       6.664  25.685  53.296  1.00  0.00    -0.327 N 
HETATM   11  H   UNL     1       7.395  26.383  53.163  1.00  0.00     0.169 HD
HETATM   12  O   UNL     1       4.423  25.229  52.910  1.00  0.00    -0.273 OA
BRANCH  10  13
HETATM   13  C   UNL     1       7.135  24.458  53.806  1.00  0.00     0.034 A 
HETATM   14  C   UNL     1       7.638  23.538  52.879  1.00  0.00     0.032 A 
HETATM   15  C   UNL     1       8.184  22.327  53.309  1.00  0.00     0.039 A 
HETATM   16  C   UNL     1       8.276  22.039  54.668  1.00  0.00     0.068 A 
HETATM   17  C   UNL     1       7.759  22.944  55.596  1.00  0.00     0.039 A 
HETATM   18  C   UNL     1       7.183  24.147  55.165  1.00  0.00     0.032 A 
BRANCH  16  19
HETATM   19  O   UNL     1       8.860  20.842  54.976  1.00  0.00    -0.356 OA
HETATM   20  C   UNL     1       8.900  20.530  56.365  1.00  0.00     0.210 C 
ENDBRANCH  16  19
ENDBRANCH  10  13
ENDBRANCH   8   9
ENDBRANCH   7   8
BRANCH   1  21
HETATM   21  C   UNL     1       4.204  28.237  56.021  1.00  0.00     0.133 C 
BRANCH  21  22
HETATM   22  C   UNL     1       5.375  27.309  56.349  1.00  0.00     0.058 C 
BRANCH  22  23
HETATM   23  C   UNL     1       6.582  28.077  56.829  1.00  0.00    -0.057 A 
HETATM   24  C   UNL     1       6.434  29.250  57.581  1.00  0.00     0.010 A 
HETATM   25  C   UNL     1       7.557  29.969  58.011  1.00  0.00     0.037 A 
HETATM   26  C   UNL     1       8.839  29.523  57.695  1.00  0.00     0.068 A 
HETATM   27  C   UNL     1       8.988  28.359  56.940  1.00  0.00     0.037 A 
HETATM   28  C   UNL     1       7.869  27.639  56.508  1.00  0.00     0.010 A 
BRANCH  26  29
HETATM   29  O   UNL     1      10.014  30.125  58.054  1.00  0.00    -0.356 OA
HETATM   30  C   UNL     1      11.146  29.868  57.234  1.00  0.00     0.210 C 
ENDBRANCH  26  29
ENDBRANCH  22  23
ENDBRANCH  21  22
ENDBRANCH   1  21
BRANCH   4  31
HETATM   31  C   UNL     1       3.511  31.658  52.525  1.00  0.00     0.047 A 
HETATM   32  C   UNL     1       4.494  32.150  51.655  1.00  0.00     0.033 A 
HETATM   33  C   UNL     1       4.316  33.354  50.954  1.00  0.00     0.039 A 
HETATM   34  C   UNL     1       3.146  34.093  51.085  1.00  0.00     0.068 A 
HETATM   35  C   UNL     1       2.168  33.640  51.960  1.00  0.00     0.039 A 
HETATM   36  C   UNL     1       2.350  32.440  52.666  1.00  0.00     0.033 A 
BRANCH  34  37
HETATM   37  O   UNL     1       3.079  35.225  50.325  1.00  0.00    -0.356 OA
HETATM   38  C   UNL     1       4.310  35.892  50.074  1.00  0.00     0.210 C 
ENDBRANCH  34  37
ENDBRANCH   4  31
TORSDOF 10
ENDMDL
MODEL 10
REMARK VINA RESULT:      -7.9      3.208     10.780
REMARK  10 active torsions:
REMARK  status: ('A' for Active; 'I' for Inactive)
REMARK    1  A    between atoms: O_2  and  C_3 
REMARK    2  A    between atoms: C_6  and  C_7 
REMARK    3  A    between atoms: C_7  and  C_8 
REMARK    4  A    between atoms: C_8  and  N_9 
REMARK    5  A    between atoms: N_12  and  C_13 
REMARK    6  A    between atoms: C_16  and  O_17 
REMARK    7  A    between atoms: C_23  and  C_24 
REMARK    8  A    between atoms: C_24  and  C_25 
REMARK       I    between atoms: C_25  and  N_26 
REMARK    9  A    between atoms: N_26  and  C_27 
REMARK   10  A    between atoms: C_30  and  O_31 
ROOT
HETATM    1  N   UNL     1       7.187  28.211  56.830  1.00  0.00    -0.319 N 
HETATM    2  C   UNL     1       7.091  29.310  57.694  1.00  0.00     0.332 C 
HETATM    3  O   UNL     1       7.894  29.510  58.594  1.00  0.00    -0.246 OA
HETATM    4  N   UNL     1       5.946  30.014  57.383  1.00  0.00    -0.232 N 
HETATM    5  C   UNL     1       5.196  29.253  56.523  1.00  0.00     0.256 C 
HETATM    6  O   UNL     1       4.032  29.405  56.161  1.00  0.00    -0.270 OA
HETATM    7  C   UNL     1       6.046  28.131  55.939  1.00  0.00     0.190 C 
ENDROOT
BRANCH   7   8
HETATM    8  C   UNL     1       6.392  28.527  54.505  1.00  0.00     0.138 C 
BRANCH   8   9
HETATM    9  C   UNL     1       5.466  27.954  53.442  1.00  0.00     0.224 C 
HETATM   10  N   UNL     1       5.734  28.361  52.152  1.00  0.00    -0.327 N 
HETATM   11  H   UNL     1       6.358  29.155  52.008  1.00  0.00     0.169 HD
HETATM   12  O   UNL     1       4.602  27.144  53.769  1.00  0.00    -0.273 OA
BRANCH  10  13
HETATM   13  C   UNL     1       5.240  27.802  50.957  1.00  0.00     0.034 A 
HETATM   14  C   UNL     1       5.057  28.673  49.877  1.00  0.00     0.032 A 
HETATM   15  C   UNL     1       4.633  28.187  48.639  1.00  0.00     0.039 A 
HETATM   16  C   UNL     1       4.431  26.822  48.450  1.00  0.00     0.068 A 
HETATM   17  C   UNL     1       4.593  25.951  49.527  1.00  0.00     0.039 A 
HETATM   18  C   UNL     1       4.989  26.441  50.780  1.00  0.00     0.032 A 
BRANCH  16  19
HETATM   19  O   UNL     1       4.052  26.454  47.190  1.00  0.00    -0.356 OA
HETATM   20  C   UNL     1       2.776  25.827  47.102  1.00  0.00     0.210 C 
ENDBRANCH  16  19
ENDBRANCH  10  13
ENDBRANCH   8   9
ENDBRANCH   7   8
BRANCH   1  21
HETATM   21  C   UNL     1       8.008  27.054  57.184  1.00  0.00     0.133 C 
BRANCH  21  22
HETATM   22  C   UNL     1       7.236  25.750  57.394  1.00  0.00     0.058 C 
BRANCH  22  23
HETATM   23  C   UNL     1       7.550  24.734  56.324  1.00  0.00    -0.057 A 
HETATM   24  C   UNL     1       8.534  23.758  56.527  1.00  0.00     0.010 A 
HETATM   25  C   UNL     1       8.833  22.826  55.524  1.00  0.00     0.037 A 
HETATM   26  C   UNL     1       8.151  22.859  54.309  1.00  0.00     0.068 A 
HETATM   27  C   UNL     1       7.176  23.835  54.102  1.00  0.00     0.037 A 
HETATM   28  C   UNL     1       6.875  24.767  55.100  1.00  0.00     0.010 A 
BRANCH  26  29
HETATM   29  O   UNL     1       8.342  22.010  53.254  1.00  0.00    -0.356 OA
HETATM   30  C   UNL     1       8.376  20.619  53.543  1.00  0.00     0.210 C 
ENDBRANCH  26  29
ENDBRANCH  22  23
ENDBRANCH  21  22
ENDBRANCH   1  21
BRANCH   4  31
HETATM   31  C   UNL     1       5.568  31.288  57.910  1.00  0.00     0.047 A 
HETATM   32  C   UNL     1       5.358  32.402  57.085  1.00  0.00     0.033 A 
HETATM   33  C   UNL     1       4.904  33.624  57.606  1.00  0.00     0.039 A 
HETATM   34  C   UNL     1       4.626  33.766  58.961  1.00  0.00     0.068 A 
HETATM   35  C   UNL     1       4.848  32.685  59.802  1.00  0.00     0.039 A 
HETATM   36  C   UNL     1       5.311  31.466  59.281  1.00  0.00     0.033 A 
BRANCH  34  37
HETATM   37  O   UNL     1       4.156  34.991  59.337  1.00  0.00    -0.356 OA
HETATM   38  C   UNL     1       4.227  35.297  60.725  1.00  0.00     0.210 C 
ENDBRANCH  34  37
ENDBRANCH   4  31
TORSDOF 10
ENDMDL
