MODEL 1
REMARK VINA RESULT:     -10.3      0.000      0.000
REMARK  6 active torsions:
REMARK  status: ('A' for Active; 'I' for Inactive)
REMARK    1  A    between atoms: C_9  and  C_10 
REMARK    2  A    between atoms: C_10  and  N_11 
REMARK       I    between atoms: N_11  and  C_12 
REMARK    3  A    between atoms: N_11  and  C_22 
REMARK    4  A    between atoms: C_12  and  C_13 
REMARK    5  A    between atoms: C_15  and  O_16 
REMARK    6  A    between atoms: C_22  and  C_23 
ROOT
HETATM    1  N   UNL     1       6.717  28.008  56.490  1.00  0.00    -0.341 N 
HETATM    2  C   UNL     1       7.673  27.987  57.523  1.00  0.00     0.254 C 
HETATM    3  O   UNL     1       7.705  27.135  58.409  1.00  0.00    -0.267 OA
ENDROOT
BRANCH   1   4
HETATM    4  C   UNL     1       5.820  26.848  56.439  1.00  0.00     0.170 C 
BRANCH   4   5
HETATM    5  C   UNL     1       6.349  25.760  55.545  1.00  0.00     0.029 A 
HETATM    6  C   UNL     1       6.219  25.947  54.067  1.00  0.00     0.253 A 
HETATM    7  N   UNL     1       6.686  24.936  53.266  1.00  0.00    -0.322 N 
HETATM    8  O   UNL     1       5.708  26.949  53.570  1.00  0.00    -0.268 OA
HETATM    9  C   UNL     1       7.206  23.733  53.757  1.00  0.00     0.045 A 
HETATM   10  H   UNL     1       6.598  25.085  52.272  1.00  0.00     0.169 HD
HETATM   11  C   UNL     1       7.292  23.540  55.138  1.00  0.00    -0.008 A 
HETATM   12  C   UNL     1       7.608  22.734  52.873  1.00  0.00     0.031 A 
HETATM   13  C   UNL     1       7.763  22.321  55.635  1.00  0.00     0.020 A 
HETATM   14  C   UNL     1       6.863  24.614  56.030  1.00  0.00     0.028 A 
HETATM   15  C   UNL     1       8.137  21.293  54.758  1.00  0.00    -0.061 A 
HETATM   16  C   UNL     1       8.644  19.987  55.295  1.00  0.00     0.048 C 
HETATM   17  C   UNL     1       8.077  21.517  53.376  1.00  0.00     0.009 A 
ENDBRANCH   4   5
ENDBRANCH   1   4
BRANCH   1  18
HETATM   18  C   UNL     1       6.183  29.318  56.053  1.00  0.00     0.158 C 
BRANCH  18  19
HETATM   19  C   UNL     1       4.695  29.599  56.327  1.00  0.00     0.139 C 
HETATM   20  O   UNL     1       4.513  30.064  57.684  1.00  0.00    -0.384 OA
HETATM   21  C   UNL     1       3.535  31.113  57.686  1.00  0.00     0.168 C 
HETATM   22  C   UNL     1       2.968  31.191  56.285  1.00  0.00     0.029 C 
HETATM   23  C   UNL     1       4.129  30.709  55.452  1.00  0.00     0.035 C 
ENDBRANCH  18  19
ENDBRANCH   1  18
BRANCH   2  24
HETATM   24  C   UNL     1       8.720  29.038  57.552  1.00  0.00     0.034 A 
HETATM   25  C   UNL     1       8.512  30.171  58.351  1.00  0.00     0.053 A 
HETATM   26  C   UNL     1       9.494  31.157  58.426  1.00  0.00     0.069 A 
HETATM   27  C   UNL     1      10.678  31.004  57.696  1.00  0.00     0.037 A 
HETATM   28  C   UNL     1      10.900  29.861  56.924  1.00  0.00     0.004 A 
HETATM   29  C   UNL     1       9.926  28.866  56.863  1.00  0.00     0.017 A 
BRANCH  26  30
HETATM   30  O   UNL     1       9.419  32.309  59.161  1.00  0.00    -0.356 OA
HETATM   31  C   UNL     1       8.474  32.323  60.224  1.00  0.00     0.210 C 
ENDBRANCH  26  30
ENDBRANCH   2  24
TORSDOF 6
ENDMDL
MODEL 2
REMARK VINA RESULT:      -9.4      2.813      5.591
REMARK  6 active torsions:
REMARK  status: ('A' for Active; 'I' for Inactive)
REMARK    1  A    between atoms: C_9  and  C_10 
REMARK    2  A    between atoms: C_10  and  N_11 
REMARK       I    between atoms: N_11  and  C_12 
REMARK    3  A    between atoms: N_11  and  C_22 
REMARK    4  A    between atoms: C_12  and  C_13 
REMARK    5  A    between atoms: C_15  and  O_16 
REMARK    6  A    between atoms: C_22  and  C_23 
ROOT
HETATM    1  N   UNL     1       6.255  27.411  54.836  1.00  0.00    -0.341 N 
HETATM    2  C   UNL     1       6.843  27.881  53.647  1.00  0.00     0.254 C 
HETATM    3  O   UNL     1       8.038  28.146  53.533  1.00  0.00    -0.267 OA
ENDROOT
BRANCH   1   4
HETATM    4  C   UNL     1       7.191  27.109  55.924  1.00  0.00     0.170 C 
BRANCH   4   5
HETATM    5  C   UNL     1       7.487  25.638  56.028  1.00  0.00     0.029 A 
HETATM    6  C   UNL     1       7.904  25.102  57.360  1.00  0.00     0.253 A 
HETATM    7  N   UNL     1       8.191  23.762  57.432  1.00  0.00    -0.322 N 
HETATM    8  O   UNL     1       8.004  25.814  58.356  1.00  0.00    -0.268 OA
HETATM    9  C   UNL     1       8.179  22.904  56.327  1.00  0.00     0.045 A 
HETATM   10  H   UNL     1       8.462  23.418  58.342  1.00  0.00     0.169 HD
HETATM   11  C   UNL     1       7.828  23.411  55.073  1.00  0.00    -0.008 A 
HETATM   12  C   UNL     1       8.538  21.566  56.478  1.00  0.00     0.031 A 
HETATM   13  C   UNL     1       7.862  22.571  53.956  1.00  0.00     0.020 A 
HETATM   14  C   UNL     1       7.454  24.819  54.960  1.00  0.00     0.028 A 
HETATM   15  C   UNL     1       8.256  21.232  54.086  1.00  0.00    -0.061 A 
HETATM   16  C   UNL     1       8.290  20.333  52.885  1.00  0.00     0.048 C 
HETATM   17  C   UNL     1       8.572  20.732  55.357  1.00  0.00     0.009 A 
ENDBRANCH   4   5
ENDBRANCH   1   4
BRANCH   1  18
HETATM   18  C   UNL     1       4.908  27.907  55.197  1.00  0.00     0.158 C 
BRANCH  18  19
HETATM   19  C   UNL     1       4.815  29.318  55.803  1.00  0.00     0.139 C 
HETATM   20  O   UNL     1       3.538  29.918  55.485  1.00  0.00    -0.384 OA
HETATM   21  C   UNL     1       3.065  30.635  56.634  1.00  0.00     0.168 C 
HETATM   22  C   UNL     1       4.178  30.610  57.658  1.00  0.00     0.029 C 
HETATM   23  C   UNL     1       4.882  29.319  57.323  1.00  0.00     0.035 C 
ENDBRANCH  18  19
ENDBRANCH   1  18
BRANCH   2  24
HETATM   24  C   UNL     1       5.990  28.058  52.446  1.00  0.00     0.034 A 
HETATM   25  C   UNL     1       5.675  26.932  51.674  1.00  0.00     0.053 A 
HETATM   26  C   UNL     1       4.846  27.062  50.561  1.00  0.00     0.069 A 
HETATM   27  C   UNL     1       4.341  28.323  50.226  1.00  0.00     0.037 A 
HETATM   28  C   UNL     1       4.628  29.441  51.013  1.00  0.00     0.004 A 
HETATM   29  C   UNL     1       5.442  29.308  52.135  1.00  0.00     0.017 A 
BRANCH  26  30
HETATM   30  O   UNL     1       4.464  26.051  49.723  1.00  0.00    -0.356 OA
HETATM   31  C   UNL     1       3.743  26.431  48.557  1.00  0.00     0.210 C 
ENDBRANCH  26  30
ENDBRANCH   2  24
TORSDOF 6
ENDMDL
MODEL 3
REMARK VINA RESULT:      -9.2      1.361      1.545
REMARK  6 active torsions:
REMARK  status: ('A' for Active; 'I' for Inactive)
REMARK    1  A    between atoms: C_9  and  C_10 
REMARK    2  A    between atoms: C_10  and  N_11 
REMARK       I    between atoms: N_11  and  C_12 
REMARK    3  A    between atoms: N_11  and  C_22 
REMARK    4  A    between atoms: C_12  and  C_13 
REMARK    5  A    between atoms: C_15  and  O_16 
REMARK    6  A    between atoms: C_22  and  C_23 
ROOT
HETATM    1  N   UNL     1       6.245  27.708  55.601  1.00  0.00    -0.341 N 
HETATM    2  C   UNL     1       6.714  27.763  56.927  1.00  0.00     0.254 C 
HETATM    3  O   UNL     1       6.316  27.023  57.825  1.00  0.00    -0.267 OA
ENDROOT
BRANCH   1   4
HETATM    4  C   UNL     1       5.335  26.598  55.301  1.00  0.00     0.170 C 
BRANCH   4   5
HETATM    5  C   UNL     1       6.056  25.417  54.709  1.00  0.00     0.029 A 
HETATM    6  C   UNL     1       6.131  25.321  53.219  1.00  0.00     0.253 A 
HETATM    7  N   UNL     1       6.773  24.227  52.696  1.00  0.00    -0.322 N 
HETATM    8  O   UNL     1       5.637  26.167  52.477  1.00  0.00    -0.268 OA
HETATM    9  C   UNL     1       7.289  23.184  53.472  1.00  0.00     0.045 A 
HETATM   10  H   UNL     1       6.822  24.185  51.688  1.00  0.00     0.169 HD
HETATM   11  C   UNL     1       7.184  23.252  54.864  1.00  0.00    -0.008 A 
HETATM   12  C   UNL     1       7.877  22.080  52.857  1.00  0.00     0.031 A 
HETATM   13  C   UNL     1       7.652  22.190  55.643  1.00  0.00     0.020 A 
HETATM   14  C   UNL     1       6.564  24.428  55.468  1.00  0.00     0.028 A 
HETATM   15  C   UNL     1       8.213  21.058  55.037  1.00  0.00    -0.061 A 
HETATM   16  C   UNL     1       8.716  19.920  55.876  1.00  0.00     0.048 C 
HETATM   17  C   UNL     1       8.342  21.022  53.641  1.00  0.00     0.009 A 
ENDBRANCH   4   5
ENDBRANCH   1   4
BRANCH   1  18
HETATM   18  C   UNL     1       6.051  28.982  54.872  1.00  0.00     0.158 C 
BRANCH  18  19
HETATM   19  C   UNL     1       4.622  29.322  54.415  1.00  0.00     0.139 C 
HETATM   20  O   UNL     1       4.175  30.551  55.034  1.00  0.00    -0.384 OA
HETATM   21  C   UNL     1       3.441  31.315  54.067  1.00  0.00     0.168 C 
HETATM   22  C   UNL     1       3.289  30.444  52.839  1.00  0.00     0.029 C 
HETATM   23  C   UNL     1       4.520  29.577  52.918  1.00  0.00     0.035 C 
ENDBRANCH  18  19
ENDBRANCH   1  18
BRANCH   2  24
HETATM   24  C   UNL     1       7.760  28.755  57.278  1.00  0.00     0.034 A 
HETATM   25  C   UNL     1       7.392  29.885  58.021  1.00  0.00     0.053 A 
HETATM   26  C   UNL     1       8.359  30.815  58.396  1.00  0.00     0.069 A 
HETATM   27  C   UNL     1       9.690  30.610  58.019  1.00  0.00     0.037 A 
HETATM   28  C   UNL     1      10.065  29.469  57.305  1.00  0.00     0.004 A 
HETATM   29  C   UNL     1       9.101  28.529  56.946  1.00  0.00     0.017 A 
BRANCH  26  30
HETATM   30  O   UNL     1       8.137  31.958  59.115  1.00  0.00    -0.356 OA
HETATM   31  C   UNL     1       6.800  32.190  59.543  1.00  0.00     0.210 C 
ENDBRANCH  26  30
ENDBRANCH   2  24
TORSDOF 6
ENDMDL
MODEL 4
REMARK VINA RESULT:      -8.9      3.639      6.847
REMARK  6 active torsions:
REMARK  status: ('A' for Active; 'I' for Inactive)
REMARK    1  A    between atoms: C_9  and  C_10 
REMARK    2  A    between atoms: C_10  and  N_11 
REMARK       I    between atoms: N_11  and  C_12 
REMARK    3  A    between atoms: N_11  and  C_22 
REMARK    4  A    between atoms: C_12  and  C_13 
REMARK    5  A    between atoms: C_15  and  O_16 
REMARK    6  A    between atoms: C_22  and  C_23 
ROOT
HETATM    1  N   UNL     1       5.351  27.832  52.395  1.00  0.00    -0.341 N 
HETATM    2  C   UNL     1       5.177  28.697  51.298  1.00  0.00     0.254 C 
HETATM    3  O   UNL     1       6.008  29.534  50.948  1.00  0.00    -0.267 OA
ENDROOT
BRANCH   1   4
HETATM    4  C   UNL     1       6.671  27.881  53.032  1.00  0.00     0.170 C 
BRANCH   4   5
HETATM    5  C   UNL     1       7.034  26.577  53.687  1.00  0.00     0.029 A 
HETATM    6  C   UNL     1       7.393  26.602  55.139  1.00  0.00     0.253 A 
HETATM    7  N   UNL     1       7.742  25.407  55.716  1.00  0.00    -0.322 N 
HETATM    8  O   UNL     1       7.392  27.636  55.802  1.00  0.00    -0.268 OA
HETATM    9  C   UNL     1       7.844  24.203  55.010  1.00  0.00     0.045 A 
HETATM   10  H   UNL     1       7.972  25.443  56.698  1.00  0.00     0.169 HD
HETATM   11  C   UNL     1       7.548  24.185  53.645  1.00  0.00    -0.008 A 
HETATM   12  C   UNL     1       8.261  23.044  55.662  1.00  0.00     0.031 A 
HETATM   13  C   UNL     1       7.696  22.997  52.922  1.00  0.00     0.020 A 
HETATM   14  C   UNL     1       7.111  25.421  53.000  1.00  0.00     0.028 A 
HETATM   15  C   UNL     1       8.149  21.832  53.558  1.00  0.00    -0.061 A 
HETATM   16  C   UNL     1       8.305  20.558  52.780  1.00  0.00     0.048 C 
HETATM   17  C   UNL     1       8.408  21.860  54.935  1.00  0.00     0.009 A 
ENDBRANCH   4   5
ENDBRANCH   1   4
BRANCH   1  18
HETATM   18  C   UNL     1       4.178  27.537  53.249  1.00  0.00     0.158 C 
BRANCH  18  19
HETATM   19  C   UNL     1       3.749  28.618  54.255  1.00  0.00     0.139 C 
HETATM   20  O   UNL     1       4.093  28.218  55.601  1.00  0.00    -0.384 OA
HETATM   21  C   UNL     1       4.577  29.364  56.315  1.00  0.00     0.168 C 
HETATM   22  C   UNL     1       4.371  30.563  55.416  1.00  0.00     0.029 C 
HETATM   23  C   UNL     1       4.465  29.945  54.044  1.00  0.00     0.035 C 
ENDBRANCH  18  19
ENDBRANCH   1  18
BRANCH   2  24
HETATM   24  C   UNL     1       3.932  28.599  50.497  1.00  0.00     0.034 A 
HETATM   25  C   UNL     1       3.833  27.587  49.532  1.00  0.00     0.053 A 
HETATM   26  C   UNL     1       2.662  27.448  48.789  1.00  0.00     0.069 A 
HETATM   27  C   UNL     1       1.598  28.328  49.016  1.00  0.00     0.037 A 
HETATM   28  C   UNL     1       1.683  29.317  49.998  1.00  0.00     0.004 A 
HETATM   29  C   UNL     1       2.847  29.445  50.753  1.00  0.00     0.017 A 
BRANCH  26  30
HETATM   30  O   UNL     1       2.434  26.511  47.819  1.00  0.00    -0.356 OA
HETATM   31  C   UNL     1       3.112  25.268  47.964  1.00  0.00     0.210 C 
ENDBRANCH  26  30
ENDBRANCH   2  24
TORSDOF 6
ENDMDL
MODEL 5
REMARK VINA RESULT:      -8.7      3.293      6.767
REMARK  6 active torsions:
REMARK  status: ('A' for Active; 'I' for Inactive)
REMARK    1  A    between atoms: C_9  and  C_10 
REMARK    2  A    between atoms: C_10  and  N_11 
REMARK       I    between atoms: N_11  and  C_12 
REMARK    3  A    between atoms: N_11  and  C_22 
REMARK    4  A    between atoms: C_12  and  C_13 
REMARK    5  A    between atoms: C_15  and  O_16 
REMARK    6  A    between atoms: C_22  and  C_23 
ROOT
HETATM    1  N   UNL     1       6.533  27.837  55.112  1.00  0.00    -0.341 N 
HETATM    2  C   UNL     1       6.075  26.756  55.889  1.00  0.00     0.254 C 
HETATM    3  O   UNL     1       5.039  26.777  56.549  1.00  0.00    -0.267 OA
ENDROOT
BRANCH   1   4
HETATM    4  C   UNL     1       5.612  28.975  55.014  1.00  0.00     0.170 C 
BRANCH   4   5
HETATM    5  C   UNL     1       4.859  28.985  53.712  1.00  0.00     0.029 A 
HETATM    6  C   UNL     1       3.617  29.814  53.631  1.00  0.00     0.253 A 
HETATM    7  N   UNL     1       2.931  29.795  52.444  1.00  0.00    -0.322 N 
HETATM    8  O   UNL     1       3.205  30.480  54.578  1.00  0.00    -0.268 OA
HETATM    9  C   UNL     1       3.291  29.001  51.350  1.00  0.00     0.045 A 
HETATM   10  H   UNL     1       2.100  30.368  52.406  1.00  0.00     0.169 HD
HETATM   11  C   UNL     1       4.429  28.195  51.437  1.00  0.00    -0.008 A 
HETATM   12  C   UNL     1       2.506  28.999  50.198  1.00  0.00     0.031 A 
HETATM   13  C   UNL     1       4.767  27.361  50.367  1.00  0.00     0.020 A 
HETATM   14  C   UNL     1       5.227  28.229  52.660  1.00  0.00     0.028 A 
HETATM   15  C   UNL     1       3.966  27.322  49.217  1.00  0.00    -0.061 A 
HETATM   16  C   UNL     1       4.333  26.427  48.069  1.00  0.00     0.048 C 
HETATM   17  C   UNL     1       2.848  28.163  49.133  1.00  0.00     0.009 A 
ENDBRANCH   4   5
ENDBRANCH   1   4
BRANCH   1  18
HETATM   18  C   UNL     1       7.987  28.116  55.084  1.00  0.00     0.158 C 
BRANCH  18  19
HETATM   19  C   UNL     1       8.484  29.344  55.867  1.00  0.00     0.139 C 
HETATM   20  O   UNL     1       8.189  29.195  57.275  1.00  0.00    -0.384 OA
HETATM   21  C   UNL     1       9.302  29.685  58.035  1.00  0.00     0.168 C 
HETATM   22  C   UNL     1      10.265  30.314  57.052  1.00  0.00     0.029 C 
HETATM   23  C   UNL     1       9.995  29.520  55.800  1.00  0.00     0.035 C 
ENDBRANCH  18  19
ENDBRANCH   1  18
BRANCH   2  24
HETATM   24  C   UNL     1       6.870  25.502  55.911  1.00  0.00     0.034 A 
HETATM   25  C   UNL     1       6.803  24.645  54.805  1.00  0.00     0.053 A 
HETATM   26  C   UNL     1       7.566  23.479  54.783  1.00  0.00     0.069 A 
HETATM   27  C   UNL     1       8.388  23.177  55.873  1.00  0.00     0.037 A 
HETATM   28  C   UNL     1       8.480  24.046  56.963  1.00  0.00     0.004 A 
HETATM   29  C   UNL     1       7.731  25.220  56.978  1.00  0.00     0.017 A 
BRANCH  26  30
HETATM   30  O   UNL     1       7.592  22.556  53.773  1.00  0.00    -0.356 OA
HETATM   31  C   UNL     1       8.741  21.720  53.707  1.00  0.00     0.210 C 
ENDBRANCH  26  30
ENDBRANCH   2  24
TORSDOF 6
ENDMDL
MODEL 6
REMARK VINA RESULT:      -8.4      2.235      4.086
REMARK  6 active torsions:
REMARK  status: ('A' for Active; 'I' for Inactive)
REMARK    1  A    between atoms: C_9  and  C_10 
REMARK    2  A    between atoms: C_10  and  N_11 
REMARK       I    between atoms: N_11  and  C_12 
REMARK    3  A    between atoms: N_11  and  C_22 
REMARK    4  A    between atoms: C_12  and  C_13 
REMARK    5  A    between atoms: C_15  and  O_16 
REMARK    6  A    between atoms: C_22  and  C_23 
ROOT
HETATM    1  N   UNL     1       5.312  27.539  54.086  1.00  0.00    -0.341 N 
HETATM    2  C   UNL     1       4.249  28.443  54.269  1.00  0.00     0.254 C 
HETATM    3  O   UNL     1       3.155  28.334  53.717  1.00  0.00    -0.267 OA
ENDROOT
BRANCH   1   4
HETATM    4  C   UNL     1       4.995  26.347  53.293  1.00  0.00     0.170 C 
BRANCH   4   5
HETATM    5  C   UNL     1       6.054  25.285  53.417  1.00  0.00     0.029 A 
HETATM    6  C   UNL     1       6.877  24.976  52.207  1.00  0.00     0.253 A 
HETATM    7  N   UNL     1       7.823  23.990  52.331  1.00  0.00    -0.322 N 
HETATM    8  O   UNL     1       6.722  25.559  51.137  1.00  0.00    -0.268 OA
HETATM    9  C   UNL     1       8.004  23.228  53.490  1.00  0.00     0.045 A 
HETATM   10  H   UNL     1       8.374  23.803  51.507  1.00  0.00     0.169 HD
HETATM   11  C   UNL     1       7.208  23.488  54.609  1.00  0.00    -0.008 A 
HETATM   12  C   UNL     1       8.951  22.206  53.513  1.00  0.00     0.031 A 
HETATM   13  C   UNL     1       7.349  22.697  55.754  1.00  0.00     0.020 A 
HETATM   14  C   UNL     1       6.230  24.570  54.544  1.00  0.00     0.028 A 
HETATM   15  C   UNL     1       8.272  21.642  55.779  1.00  0.00    -0.061 A 
HETATM   16  C   UNL     1       8.422  20.796  57.009  1.00  0.00     0.048 C 
HETATM   17  C   UNL     1       9.086  21.418  54.659  1.00  0.00     0.009 A 
ENDBRANCH   4   5
ENDBRANCH   1   4
BRANCH   1  18
HETATM   18  C   UNL     1       6.688  28.080  54.007  1.00  0.00     0.158 C 
BRANCH  18  19
HETATM   19  C   UNL     1       7.573  27.940  55.258  1.00  0.00     0.139 C 
HETATM   20  O   UNL     1       7.963  29.244  55.747  1.00  0.00    -0.384 OA
HETATM   21  C   UNL     1       7.913  29.234  57.180  1.00  0.00     0.168 C 
HETATM   22  C   UNL     1       7.635  27.808  57.602  1.00  0.00     0.029 C 
HETATM   23  C   UNL     1       6.853  27.282  56.426  1.00  0.00     0.035 C 
ENDBRANCH  18  19
ENDBRANCH   1  18
BRANCH   2  24
HETATM   24  C   UNL     1       4.435  29.593  55.188  1.00  0.00     0.034 A 
HETATM   25  C   UNL     1       4.670  30.861  54.639  1.00  0.00     0.053 A 
HETATM   26  C   UNL     1       4.813  31.965  55.476  1.00  0.00     0.069 A 
HETATM   27  C   UNL     1       4.723  31.792  56.862  1.00  0.00     0.037 A 
HETATM   28  C   UNL     1       4.457  30.534  57.410  1.00  0.00     0.004 A 
HETATM   29  C   UNL     1       4.296  29.433  56.572  1.00  0.00     0.017 A 
BRANCH  26  30
HETATM   30  O   UNL     1       5.048  33.252  55.075  1.00  0.00    -0.356 OA
HETATM   31  C   UNL     1       4.809  34.272  56.038  1.00  0.00     0.210 C 
ENDBRANCH  26  30
ENDBRANCH   2  24
TORSDOF 6
ENDMDL
MODEL 7
REMARK VINA RESULT:      -8.2      4.949      8.132
REMARK  6 active torsions:
REMARK  status: ('A' for Active; 'I' for Inactive)
REMARK    1  A    between atoms: C_9  and  C_10 
REMARK    2  A    between atoms: C_10  and  N_11 
REMARK       I    between atoms: N_11  and  C_12 
REMARK    3  A    between atoms: N_11  and  C_22 
REMARK    4  A    between atoms: C_12  and  C_13 
REMARK    5  A    between atoms: C_15  and  O_16 
REMARK    6  A    between atoms: C_22  and  C_23 
ROOT
HETATM    1  N   UNL     1       4.833  33.487  61.090  1.00  0.00    -0.341 N 
HETATM    2  C   UNL     1       4.632  32.772  62.285  1.00  0.00     0.254 C 
HETATM    3  O   UNL     1       3.826  31.851  62.405  1.00  0.00    -0.267 OA
ENDROOT
BRANCH   1   4
HETATM    4  C   UNL     1       4.113  32.973  59.920  1.00  0.00     0.170 C 
BRANCH   4   5
HETATM    5  C   UNL     1       4.937  31.990  59.134  1.00  0.00     0.029 A 
HETATM    6  C   UNL     1       4.222  30.864  58.458  1.00  0.00     0.253 A 
HETATM    7  N   UNL     1       4.990  29.964  57.763  1.00  0.00    -0.322 N 
HETATM    8  O   UNL     1       3.002  30.725  58.519  1.00  0.00    -0.268 OA
HETATM    9  C   UNL     1       6.387  30.009  57.715  1.00  0.00     0.045 A 
HETATM   10  H   UNL     1       4.488  29.217  57.307  1.00  0.00     0.169 HD
HETATM   11  C   UNL     1       7.060  31.038  58.379  1.00  0.00    -0.008 A 
HETATM   12  C   UNL     1       7.095  29.022  57.031  1.00  0.00     0.031 A 
HETATM   13  C   UNL     1       8.459  31.061  58.377  1.00  0.00     0.020 A 
HETATM   14  C   UNL     1       6.281  32.054  59.080  1.00  0.00     0.028 A 
HETATM   15  C   UNL     1       9.184  30.055  57.724  1.00  0.00    -0.061 A 
HETATM   16  C   UNL     1      10.684  30.083  57.722  1.00  0.00     0.048 C 
HETATM   17  C   UNL     1       8.492  29.050  57.034  1.00  0.00     0.009 A 
ENDBRANCH   4   5
ENDBRANCH   1   4
BRANCH   1  18
HETATM   18  C   UNL     1       5.065  34.948  61.176  1.00  0.00     0.158 C 
BRANCH  18  19
HETATM   19  C   UNL     1       3.826  35.859  61.168  1.00  0.00     0.139 C 
HETATM   20  O   UNL     1       3.840  36.736  62.319  1.00  0.00    -0.384 OA
HETATM   21  C   UNL     1       3.386  38.035  61.916  1.00  0.00     0.168 C 
HETATM   22  C   UNL     1       2.917  37.914  60.483  1.00  0.00     0.029 C 
HETATM   23  C   UNL     1       3.780  36.791  59.965  1.00  0.00     0.035 C 
ENDBRANCH  18  19
ENDBRANCH   1  18
BRANCH   2  24
HETATM   24  C   UNL     1       5.442  33.124  63.477  1.00  0.00     0.034 A 
HETATM   25  C   UNL     1       4.783  33.583  64.626  1.00  0.00     0.053 A 
HETATM   26  C   UNL     1       5.515  33.888  65.772  1.00  0.00     0.069 A 
HETATM   27  C   UNL     1       6.905  33.734  65.759  1.00  0.00     0.037 A 
HETATM   28  C   UNL     1       7.561  33.248  64.625  1.00  0.00     0.004 A 
HETATM   29  C   UNL     1       6.828  32.926  63.485  1.00  0.00     0.017 A 
BRANCH  26  30
HETATM   30  O   UNL     1       5.000  34.346  66.954  1.00  0.00    -0.356 OA
HETATM   31  C   UNL     1       5.915  34.479  68.036  1.00  0.00     0.210 C 
ENDBRANCH  26  30
ENDBRANCH   2  24
TORSDOF 6
ENDMDL
MODEL 8
REMARK VINA RESULT:      -8.2      4.446      7.484
REMARK  6 active torsions:
REMARK  status: ('A' for Active; 'I' for Inactive)
REMARK    1  A    between atoms: C_9  and  C_10 
REMARK    2  A    between atoms: C_10  and  N_11 
REMARK       I    between atoms: N_11  and  C_12 
REMARK    3  A    between atoms: N_11  and  C_22 
REMARK    4  A    between atoms: C_12  and  C_13 
REMARK    5  A    between atoms: C_15  and  O_16 
REMARK    6  A    between atoms: C_22  and  C_23 
ROOT
HETATM    1  N   UNL     1       4.908  27.906  51.392  1.00  0.00    -0.341 N 
HETATM    2  C   UNL     1       4.933  27.970  49.986  1.00  0.00     0.254 C 
HETATM    3  O   UNL     1       5.955  28.148  49.327  1.00  0.00    -0.267 OA
ENDROOT
BRANCH   1   4
HETATM    4  C   UNL     1       6.221  27.920  52.045  1.00  0.00     0.170 C 
BRANCH   4   5
HETATM    5  C   UNL     1       6.446  26.698  52.895  1.00  0.00     0.029 A 
HETATM    6  C   UNL     1       6.322  26.848  54.377  1.00  0.00     0.253 A 
HETATM    7  N   UNL     1       6.551  25.730  55.139  1.00  0.00    -0.322 N 
HETATM    8  O   UNL     1       6.040  27.918  54.912  1.00  0.00    -0.268 OA
HETATM    9  C   UNL     1       6.954  24.499  54.610  1.00  0.00     0.045 A 
HETATM   10  H   UNL     1       6.454  25.849  56.136  1.00  0.00     0.169 HD
HETATM   11  C   UNL     1       7.109  24.368  53.228  1.00  0.00    -0.008 A 
HETATM   12  C   UNL     1       7.220  23.427  55.460  1.00  0.00     0.031 A 
HETATM   13  C   UNL     1       7.560  23.155  52.697  1.00  0.00     0.020 A 
HETATM   14  C   UNL     1       6.816  25.514  52.372  1.00  0.00     0.028 A 
HETATM   15  C   UNL     1       7.866  22.080  53.542  1.00  0.00    -0.061 A 
HETATM   16  C   UNL     1       8.348  20.779  52.969  1.00  0.00     0.048 C 
HETATM   17  C   UNL     1       7.671  22.218  54.924  1.00  0.00     0.009 A 
ENDBRANCH   4   5
ENDBRANCH   1   4
BRANCH   1  18
HETATM   18  C   UNL     1       3.772  28.533  52.104  1.00  0.00     0.158 C 
BRANCH  18  19
HETATM   19  C   UNL     1       3.992  29.943  52.680  1.00  0.00     0.139 C 
HETATM   20  O   UNL     1       3.275  30.924  51.895  1.00  0.00    -0.384 OA
HETATM   21  C   UNL     1       2.699  31.894  52.781  1.00  0.00     0.168 C 
HETATM   22  C   UNL     1       3.220  31.588  54.168  1.00  0.00     0.029 C 
HETATM   23  C   UNL     1       3.451  30.100  54.094  1.00  0.00     0.035 C 
ENDBRANCH  18  19
ENDBRANCH   1  18
BRANCH   2  24
HETATM   24  C   UNL     1       3.663  27.801  49.238  1.00  0.00     0.034 A 
HETATM   25  C   UNL     1       2.854  28.926  49.024  1.00  0.00     0.053 A 
HETATM   26  C   UNL     1       1.674  28.804  48.294  1.00  0.00     0.069 A 
HETATM   27  C   UNL     1       1.307  27.553  47.786  1.00  0.00     0.037 A 
HETATM   28  C   UNL     1       2.127  26.437  47.971  1.00  0.00     0.004 A 
HETATM   29  C   UNL     1       3.317  26.562  48.686  1.00  0.00     0.017 A 
BRANCH  26  30
HETATM   30  O   UNL     1       0.794  29.815  48.016  1.00  0.00    -0.356 OA
HETATM   31  C   UNL     1       1.044  30.566  46.834  1.00  0.00     0.210 C 
ENDBRANCH  26  30
ENDBRANCH   2  24
TORSDOF 6
ENDMDL
MODEL 9
REMARK VINA RESULT:      -8.1      3.908      7.056
REMARK  6 active torsions:
REMARK  status: ('A' for Active; 'I' for Inactive)
REMARK    1  A    between atoms: C_9  and  C_10 
REMARK    2  A    between atoms: C_10  and  N_11 
REMARK       I    between atoms: N_11  and  C_12 
REMARK    3  A    between atoms: N_11  and  C_22 
REMARK    4  A    between atoms: C_12  and  C_13 
REMARK    5  A    between atoms: C_15  and  O_16 
REMARK    6  A    between atoms: C_22  and  C_23 
ROOT
HETATM    1  N   UNL     1       6.224  27.002  53.773  1.00  0.00    -0.341 N 
HETATM    2  C   UNL     1       5.782  25.695  54.051  1.00  0.00     0.254 C 
HETATM    3  O   UNL     1       4.603  25.393  54.220  1.00  0.00    -0.267 OA
ENDROOT
BRANCH   1   4
HETATM    4  C   UNL     1       5.164  27.990  53.546  1.00  0.00     0.170 C 
BRANCH   4   5
HETATM    5  C   UNL     1       4.828  28.137  52.087  1.00  0.00     0.029 A 
HETATM    6  C   UNL     1       4.701  29.522  51.537  1.00  0.00     0.253 A 
HETATM    7  N   UNL     1       4.372  29.638  50.210  1.00  0.00    -0.322 N 
HETATM    8  O   UNL     1       4.867  30.525  52.227  1.00  0.00    -0.268 OA
HETATM    9  C   UNL     1       4.089  28.548  49.380  1.00  0.00     0.045 A 
HETATM   10  H   UNL     1       4.300  30.581  49.855  1.00  0.00     0.169 HD
HETATM   11  C   UNL     1       4.168  27.254  49.903  1.00  0.00    -0.008 A 
HETATM   12  C   UNL     1       3.708  28.757  48.057  1.00  0.00     0.031 A 
HETATM   13  C   UNL     1       3.837  26.163  49.094  1.00  0.00     0.020 A 
HETATM   14  C   UNL     1       4.575  27.078  51.295  1.00  0.00     0.028 A 
HETATM   15  C   UNL     1       3.418  26.361  47.771  1.00  0.00    -0.061 A 
HETATM   16  C   UNL     1       3.065  25.187  46.905  1.00  0.00     0.048 C 
HETATM   17  C   UNL     1       3.377  27.663  47.254  1.00  0.00     0.009 A 
ENDBRANCH   4   5
ENDBRANCH   1   4
BRANCH   1  18
HETATM   18  C   UNL     1       7.484  27.466  54.399  1.00  0.00     0.158 C 
BRANCH  18  19
HETATM   19  C   UNL     1       7.415  27.921  55.867  1.00  0.00     0.139 C 
HETATM   20  O   UNL     1       8.675  27.668  56.531  1.00  0.00    -0.384 OA
HETATM   21  C   UNL     1       8.972  28.773  57.395  1.00  0.00     0.168 C 
HETATM   22  C   UNL     1       7.760  29.679  57.386  1.00  0.00     0.029 C 
HETATM   23  C   UNL     1       7.186  29.418  56.017  1.00  0.00     0.035 C 
ENDBRANCH  18  19
ENDBRANCH   1  18
BRANCH   2  24
HETATM   24  C   UNL     1       6.783  24.602  54.136  1.00  0.00     0.034 A 
HETATM   25  C   UNL     1       7.092  24.071  55.395  1.00  0.00     0.053 A 
HETATM   26  C   UNL     1       8.001  23.020  55.501  1.00  0.00     0.069 A 
HETATM   27  C   UNL     1       8.598  22.510  54.343  1.00  0.00     0.037 A 
HETATM   28  C   UNL     1       8.268  23.017  53.084  1.00  0.00     0.004 A 
HETATM   29  C   UNL     1       7.346  24.056  52.976  1.00  0.00     0.017 A 
BRANCH  26  30
HETATM   30  O   UNL     1       8.394  22.413  56.663  1.00  0.00    -0.356 OA
HETATM   31  C   UNL     1       8.485  20.993  56.638  1.00  0.00     0.210 C 
ENDBRANCH  26  30
ENDBRANCH   2  24
TORSDOF 6
ENDMDL
MODEL 10
REMARK VINA RESULT:      -8.1      3.213      7.951
REMARK  6 active torsions:
REMARK  status: ('A' for Active; 'I' for Inactive)
REMARK    1  A    between atoms: C_9  and  C_10 
REMARK    2  A    between atoms: C_10  and  N_11 
REMARK       I    between atoms: N_11  and  C_12 
REMARK    3  A    between atoms: N_11  and  C_22 
REMARK    4  A    between atoms: C_12  and  C_13 
REMARK    5  A    between atoms: C_15  and  O_16 
REMARK    6  A    between atoms: C_22  and  C_23 
ROOT
HETATM    1  N   UNL     1       4.563  28.036  54.283  1.00  0.00    -0.341 N 
HETATM    2  C   UNL     1       3.952  28.987  53.445  1.00  0.00     0.254 C 
HETATM    3  O   UNL     1       3.110  29.797  53.828  1.00  0.00    -0.267 OA
ENDROOT
BRANCH   1   4
HETATM    4  C   UNL     1       4.240  28.154  55.708  1.00  0.00     0.170 C 
BRANCH   4   5
HETATM    5  C   UNL     1       5.326  28.853  56.480  1.00  0.00     0.029 A 
HETATM    6  C   UNL     1       4.919  29.924  57.441  1.00  0.00     0.253 A 
HETATM    7  N   UNL     1       5.922  30.567  58.121  1.00  0.00    -0.322 N 
HETATM    8  O   UNL     1       3.745  30.239  57.622  1.00  0.00    -0.268 OA
HETATM    9  C   UNL     1       7.284  30.322  57.912  1.00  0.00     0.045 A 
HETATM   10  H   UNL     1       5.627  31.280  58.772  1.00  0.00     0.169 HD
HETATM   11  C   UNL     1       7.668  29.350  56.985  1.00  0.00    -0.008 A 
HETATM   12  C   UNL     1       8.241  31.060  58.605  1.00  0.00     0.031 A 
HETATM   13  C   UNL     1       9.026  29.135  56.733  1.00  0.00     0.020 A 
HETATM   14  C   UNL     1       6.633  28.596  56.282  1.00  0.00     0.028 A 
HETATM   15  C   UNL     1      10.000  29.895  57.397  1.00  0.00    -0.061 A 
HETATM   16  C   UNL     1      11.457  29.661  57.126  1.00  0.00     0.048 C 
HETATM   17  C   UNL     1       9.598  30.842  58.349  1.00  0.00     0.009 A 
ENDBRANCH   4   5
ENDBRANCH   1   4
BRANCH   1  18
HETATM   18  C   UNL     1       4.820  26.682  53.739  1.00  0.00     0.158 C 
BRANCH  18  19
HETATM   19  C   UNL     1       6.280  26.314  53.427  1.00  0.00     0.139 C 
HETATM   20  O   UNL     1       6.682  25.157  54.198  1.00  0.00    -0.384 OA
HETATM   21  C   UNL     1       7.489  24.308  53.371  1.00  0.00     0.168 C 
HETATM   22  C   UNL     1       7.732  25.054  52.077  1.00  0.00     0.029 C 
HETATM   23  C   UNL     1       6.496  25.912  51.975  1.00  0.00     0.035 C 
ENDBRANCH  18  19
ENDBRANCH   1  18
BRANCH   2  24
HETATM   24  C   UNL     1       4.346  29.042  52.015  1.00  0.00     0.034 A 
HETATM   25  C   UNL     1       3.433  28.598  51.049  1.00  0.00     0.053 A 
HETATM   26  C   UNL     1       3.761  28.670  49.697  1.00  0.00     0.069 A 
HETATM   27  C   UNL     1       5.007  29.184  49.320  1.00  0.00     0.037 A 
HETATM   28  C   UNL     1       5.906  29.657  50.279  1.00  0.00     0.004 A 
HETATM   29  C   UNL     1       5.571  29.600  51.630  1.00  0.00     0.017 A 
BRANCH  26  30
HETATM   30  O   UNL     1       2.968  28.270  48.656  1.00  0.00    -0.356 OA
HETATM   31  C   UNL     1       1.577  28.143  48.930  1.00  0.00     0.210 C 
ENDBRANCH  26  30
ENDBRANCH   2  24
TORSDOF 6
ENDMDL
