MODEL 1
REMARK VINA RESULT:      -9.0      0.000      0.000
REMARK  7 active torsions:
REMARK  status: ('A' for Active; 'I' for Inactive)
REMARK    1  A    between atoms: C_3  and  N_4 
REMARK       I    between atoms: N_4  and  C_5 
REMARK    2  A    between atoms: C_5  and  C_6 
REMARK    3  A    between atoms: C_7  and  C_8 
REMARK    4  A    between atoms: C_19  and  C_20 
REMARK    5  A    between atoms: C_20  and  C_21 
REMARK    6  A    between atoms: C_21  and  C_22 
REMARK    7  A    between atoms: C_22  and  O_23 
ROOT
HETATM    1  C   UNL     1       8.565  29.612  57.572  1.00  0.00     0.062 A 
HETATM    2  C   UNL     1       7.356  30.017  58.411  1.00  0.00     0.202 A 
HETATM    3  N   UNL     1       7.679  31.112  59.335  1.00  0.00    -0.083 N 
HETATM    4  C   UNL     1       8.922  31.669  59.456  1.00  0.00     0.726 A 
HETATM    5  N   UNL     1       9.925  31.220  58.681  1.00  0.00    -0.192 N 
HETATM    6  N   UNL     1       6.830  31.602  60.264  1.00  0.00    -0.140 NA
HETATM    7  C   UNL     1       7.604  32.529  60.846  1.00  0.00     0.166 A 
HETATM    8  N   UNL     1       8.899  32.589  60.385  1.00  0.00    -0.046 NA
HETATM    9  C   UNL     1       9.771  30.215  57.732  1.00  0.00     0.037 A 
HETATM   10  C   UNL     1      11.013  29.860  56.951  1.00  0.00     0.070 C 
HETATM   11  H   UNL     1      10.838  31.656  58.762  1.00  0.00     0.184 HD
ENDROOT
BRANCH   1  12
HETATM   12  C   UNL     1       8.337  28.629  56.473  1.00  0.00     0.256 C 
HETATM   13  N   UNL     1       8.012  27.371  56.927  1.00  0.00    -0.323 N 
HETATM   14  H   UNL     1       8.297  27.152  57.872  1.00  0.00     0.169 HD
HETATM   15  O   UNL     1       8.482  28.978  55.310  1.00  0.00    -0.267 OA
BRANCH  13  16
HETATM   16  C   UNL     1       7.536  26.267  56.177  1.00  0.00     0.041 A 
HETATM   17  C   UNL     1       7.947  24.928  56.304  1.00  0.00    -0.035 A 
HETATM   18  C   UNL     1       9.038  24.435  57.215  1.00  0.00     0.050 C 
HETATM   19  C   UNL     1       7.331  23.948  55.494  1.00  0.00     0.009 A 
HETATM   20  C   UNL     1       6.381  24.288  54.535  1.00  0.00     0.001 A 
HETATM   21  C   UNL     1       6.026  25.618  54.365  1.00  0.00     0.002 A 
HETATM   22  C   UNL     1       6.603  26.596  55.176  1.00  0.00     0.030 A 
ENDBRANCH  13  16
ENDBRANCH   1  12
BRANCH   2  23
HETATM   23  C   UNL     1       6.121  30.365  57.584  1.00  0.00    -0.028 A 
HETATM   24  C   UNL     1       6.012  31.639  56.999  1.00  0.00     0.011 A 
HETATM   25  C   UNL     1       4.878  31.989  56.263  1.00  0.00     0.024 A 
HETATM   26  C   UNL     1       3.845  31.070  56.103  1.00  0.00     0.034 A 
HETATM   27 CL   UNL     1       2.445  31.507  55.205  1.00  0.00    -0.084 Cl
HETATM   28  C   UNL     1       3.940  29.799  56.667  1.00  0.00     0.024 A 
HETATM   29  C   UNL     1       5.074  29.445  57.402  1.00  0.00     0.011 A 
ENDBRANCH   2  23
BRANCH   7  30
HETATM   30  C   UNL     1       7.122  33.413  61.937  1.00  0.00     0.085 C 
BRANCH  30  31
HETATM   31  C   UNL     1       6.880  32.675  63.251  1.00  0.00     0.034 C 
BRANCH  31  32
HETATM   32  C   UNL     1       5.404  32.413  63.528  1.00  0.00     0.164 C 
BRANCH  32  33
HETATM   33  O   UNL     1       5.024  31.168  62.950  1.00  0.00    -0.401 OA
HETATM   34  H   UNL     1       5.606  30.483  63.321  1.00  0.00     0.209 HD
ENDBRANCH  32  33
ENDBRANCH  31  32
ENDBRANCH  30  31
ENDBRANCH   7  30
TORSDOF 7
ENDMDL
MODEL 2
REMARK VINA RESULT:      -8.9      4.399      7.065
REMARK  7 active torsions:
REMARK  status: ('A' for Active; 'I' for Inactive)
REMARK    1  A    between atoms: C_3  and  N_4 
REMARK       I    between atoms: N_4  and  C_5 
REMARK    2  A    between atoms: C_5  and  C_6 
REMARK    3  A    between atoms: C_7  and  C_8 
REMARK    4  A    between atoms: C_19  and  C_20 
REMARK    5  A    between atoms: C_20  and  C_21 
REMARK    6  A    between atoms: C_21  and  C_22 
REMARK    7  A    between atoms: C_22  and  O_23 
ROOT
HETATM    1  C   UNL     1       5.525  28.375  53.562  1.00  0.00     0.062 A 
HETATM    2  C   UNL     1       6.986  27.948  53.690  1.00  0.00     0.202 A 
HETATM    3  N   UNL     1       7.627  28.552  54.865  1.00  0.00    -0.083 N 
HETATM    4  C   UNL     1       7.001  29.423  55.714  1.00  0.00     0.726 A 
HETATM    5  N   UNL     1       5.715  29.749  55.495  1.00  0.00    -0.192 N 
HETATM    6  N   UNL     1       8.937  28.429  55.167  1.00  0.00    -0.140 NA
HETATM    7  C   UNL     1       9.008  29.177  56.278  1.00  0.00     0.166 A 
HETATM    8  N   UNL     1       7.843  29.814  56.635  1.00  0.00    -0.046 NA
HETATM    9  C   UNL     1       4.960  29.234  54.447  1.00  0.00     0.037 A 
HETATM   10  C   UNL     1       3.529  29.712  54.378  1.00  0.00     0.070 C 
HETATM   11  H   UNL     1       5.253  30.379  56.145  1.00  0.00     0.184 HD
ENDROOT
BRANCH   1  12
HETATM   12  C   UNL     1       4.706  27.704  52.511  1.00  0.00     0.256 C 
HETATM   13  N   UNL     1       4.646  28.411  51.333  1.00  0.00    -0.323 N 
HETATM   14  H   UNL     1       4.830  29.403  51.400  1.00  0.00     0.169 HD
HETATM   15  O   UNL     1       4.146  26.646  52.766  1.00  0.00    -0.267 OA
BRANCH  13  16
HETATM   16  C   UNL     1       4.139  27.984  50.081  1.00  0.00     0.041 A 
HETATM   17  C   UNL     1       2.900  28.333  49.514  1.00  0.00    -0.035 A 
HETATM   18  C   UNL     1       1.843  29.170  50.181  1.00  0.00     0.050 C 
HETATM   19  C   UNL     1       2.576  27.839  48.231  1.00  0.00     0.009 A 
HETATM   20  C   UNL     1       3.424  26.969  47.550  1.00  0.00     0.001 A 
HETATM   21  C   UNL     1       4.614  26.572  48.140  1.00  0.00     0.002 A 
HETATM   22  C   UNL     1       4.964  27.072  49.394  1.00  0.00     0.030 A 
ENDBRANCH  13  16
ENDBRANCH   1  12
BRANCH   2  23
HETATM   23  C   UNL     1       7.187  26.436  53.692  1.00  0.00    -0.028 A 
HETATM   24  C   UNL     1       6.870  25.692  54.844  1.00  0.00     0.011 A 
HETATM   25  C   UNL     1       7.074  24.312  54.879  1.00  0.00     0.024 A 
HETATM   26  C   UNL     1       7.593  23.660  53.765  1.00  0.00     0.034 A 
HETATM   27 CL   UNL     1       7.853  21.961  53.814  1.00  0.00    -0.084 Cl
HETATM   28  C   UNL     1       7.904  24.377  52.611  1.00  0.00     0.024 A 
HETATM   29  C   UNL     1       7.700  25.759  52.572  1.00  0.00     0.011 A 
ENDBRANCH   2  23
BRANCH   7  30
HETATM   30  C   UNL     1      10.261  29.345  57.057  1.00  0.00     0.085 C 
BRANCH  30  31
HETATM   31  C   UNL     1      10.537  30.793  57.454  1.00  0.00     0.034 C 
BRANCH  31  32
HETATM   32  C   UNL     1      10.081  31.122  58.871  1.00  0.00     0.164 C 
BRANCH  32  33
HETATM   33  O   UNL     1       9.411  32.380  58.876  1.00  0.00    -0.401 OA
HETATM   34  H   UNL     1       8.614  32.285  59.425  1.00  0.00     0.209 HD
ENDBRANCH  32  33
ENDBRANCH  31  32
ENDBRANCH  30  31
ENDBRANCH   7  30
TORSDOF 7
ENDMDL
MODEL 3
REMARK VINA RESULT:      -8.9      2.989      4.374
REMARK  7 active torsions:
REMARK  status: ('A' for Active; 'I' for Inactive)
REMARK    1  A    between atoms: C_3  and  N_4 
REMARK       I    between atoms: N_4  and  C_5 
REMARK    2  A    between atoms: C_5  and  C_6 
REMARK    3  A    between atoms: C_7  and  C_8 
REMARK    4  A    between atoms: C_19  and  C_20 
REMARK    5  A    between atoms: C_20  and  C_21 
REMARK    6  A    between atoms: C_21  and  C_22 
REMARK    7  A    between atoms: C_22  and  O_23 
ROOT
HETATM    1  C   UNL     1       6.344  26.643  56.489  1.00  0.00     0.062 A 
HETATM    2  C   UNL     1       5.389  27.785  56.148  1.00  0.00     0.202 A 
HETATM    3  N   UNL     1       5.768  29.030  56.828  1.00  0.00    -0.083 N 
HETATM    4  C   UNL     1       6.822  29.139  57.694  1.00  0.00     0.726 A 
HETATM    5  N   UNL     1       7.587  28.060  57.941  1.00  0.00    -0.192 N 
HETATM    6  N   UNL     1       5.047  30.171  56.789  1.00  0.00    -0.140 NA
HETATM    7  C   UNL     1       5.787  30.962  57.580  1.00  0.00     0.166 A 
HETATM    8  N   UNL     1       6.876  30.358  58.164  1.00  0.00    -0.046 NA
HETATM    9  C   UNL     1       7.380  26.820  57.347  1.00  0.00     0.037 A 
HETATM   10  C   UNL     1       8.356  25.738  57.743  1.00  0.00     0.070 C 
HETATM   11  H   UNL     1       8.381  28.158  58.567  1.00  0.00     0.184 HD
ENDROOT
BRANCH   1  12
HETATM   12  C   UNL     1       6.179  25.366  55.736  1.00  0.00     0.256 C 
HETATM   13  N   UNL     1       7.344  24.921  55.156  1.00  0.00    -0.323 N 
HETATM   14  H   UNL     1       8.054  25.621  54.990  1.00  0.00     0.169 HD
HETATM   15  O   UNL     1       5.073  24.849  55.659  1.00  0.00    -0.267 OA
BRANCH  13  16
HETATM   16  C   UNL     1       7.597  23.664  54.554  1.00  0.00     0.041 A 
HETATM   17  C   UNL     1       7.799  23.415  53.184  1.00  0.00    -0.035 A 
HETATM   18  C   UNL     1       7.702  24.443  52.090  1.00  0.00     0.050 C 
HETATM   19  C   UNL     1       8.078  22.095  52.766  1.00  0.00     0.009 A 
HETATM   20  C   UNL     1       8.092  21.034  53.667  1.00  0.00     0.001 A 
HETATM   21  C   UNL     1       7.826  21.270  55.007  1.00  0.00     0.002 A 
HETATM   22  C   UNL     1       7.576  22.572  55.443  1.00  0.00     0.030 A 
ENDBRANCH  13  16
ENDBRANCH   1  12
BRANCH   2  23
HETATM   23  C   UNL     1       5.227  28.025  54.650  1.00  0.00    -0.028 A 
HETATM   24  C   UNL     1       3.938  28.107  54.093  1.00  0.00     0.011 A 
HETATM   25  C   UNL     1       3.766  28.296  52.721  1.00  0.00     0.024 A 
HETATM   26  C   UNL     1       4.879  28.408  51.893  1.00  0.00     0.034 A 
HETATM   27 CL   UNL     1       4.664  28.631  50.201  1.00  0.00    -0.084 Cl
HETATM   28  C   UNL     1       6.164  28.340  52.426  1.00  0.00     0.024 A 
HETATM   29  C   UNL     1       6.339  28.152  53.800  1.00  0.00     0.011 A 
ENDBRANCH   2  23
BRANCH   7  30
HETATM   30  C   UNL     1       5.447  32.382  57.844  1.00  0.00     0.085 C 
BRANCH  30  31
HETATM   31  C   UNL     1       4.011  32.582  58.322  1.00  0.00     0.034 C 
BRANCH  31  32
HETATM   32  C   UNL     1       3.713  31.867  59.635  1.00  0.00     0.164 C 
BRANCH  32  33
HETATM   33  O   UNL     1       3.164  30.581  59.363  1.00  0.00    -0.401 OA
HETATM   34  H   UNL     1       2.474  30.410  60.027  1.00  0.00     0.209 HD
ENDBRANCH  32  33
ENDBRANCH  31  32
ENDBRANCH  30  31
ENDBRANCH   7  30
TORSDOF 7
ENDMDL
MODEL 4
REMARK VINA RESULT:      -8.8      3.788      8.545
REMARK  7 active torsions:
REMARK  status: ('A' for Active; 'I' for Inactive)
REMARK    1  A    between atoms: C_3  and  N_4 
REMARK       I    between atoms: N_4  and  C_5 
REMARK    2  A    between atoms: C_5  and  C_6 
REMARK    3  A    between atoms: C_7  and  C_8 
REMARK    4  A    between atoms: C_19  and  C_20 
REMARK    5  A    between atoms: C_20  and  C_21 
REMARK    6  A    between atoms: C_21  and  C_22 
REMARK    7  A    between atoms: C_22  and  O_23 
ROOT
HETATM    1  C   UNL     1       4.895  28.049  55.000  1.00  0.00     0.062 A 
HETATM    2  C   UNL     1       5.959  27.268  55.769  1.00  0.00     0.202 A 
HETATM    3  N   UNL     1       6.450  26.119  54.998  1.00  0.00    -0.083 N 
HETATM    4  C   UNL     1       5.979  25.768  53.763  1.00  0.00     0.726 A 
HETATM    5  N   UNL     1       5.022  26.516  53.185  1.00  0.00    -0.192 N 
HETATM    6  N   UNL     1       7.319  25.199  55.470  1.00  0.00    -0.140 NA
HETATM    7  C   UNL     1       7.403  24.372  54.418  1.00  0.00     0.166 A 
HETATM    8  N   UNL     1       6.584  24.682  53.357  1.00  0.00    -0.046 NA
HETATM    9  C   UNL     1       4.480  27.655  53.770  1.00  0.00     0.037 A 
HETATM   10  C   UNL     1       3.425  28.366  52.957  1.00  0.00     0.070 C 
HETATM   11  H   UNL     1       4.695  26.261  52.258  1.00  0.00     0.184 HD
ENDROOT
BRANCH   1  12
HETATM   12  C   UNL     1       4.432  29.338  55.592  1.00  0.00     0.256 C 
HETATM   13  N   UNL     1       5.118  30.433  55.120  1.00  0.00    -0.323 N 
HETATM   14  H   UNL     1       6.036  30.250  54.736  1.00  0.00     0.169 HD
HETATM   15  O   UNL     1       3.547  29.331  56.438  1.00  0.00    -0.267 OA
BRANCH  13  16
HETATM   16  C   UNL     1       4.812  31.803  55.304  1.00  0.00     0.041 A 
HETATM   17  C   UNL     1       5.072  32.574  56.452  1.00  0.00    -0.035 A 
HETATM   18  C   UNL     1       5.658  32.052  57.736  1.00  0.00     0.050 C 
HETATM   19  C   UNL     1       4.730  33.944  56.442  1.00  0.00     0.009 A 
HETATM   20  C   UNL     1       4.086  34.527  55.354  1.00  0.00     0.001 A 
HETATM   21  C   UNL     1       3.769  33.750  54.250  1.00  0.00     0.002 A 
HETATM   22  C   UNL     1       4.125  32.401  54.230  1.00  0.00     0.030 A 
ENDBRANCH  13  16
ENDBRANCH   1  12
BRANCH   2  23
HETATM   23  C   UNL     1       7.127  28.127  56.247  1.00  0.00    -0.028 A 
HETATM   24  C   UNL     1       8.077  28.590  55.318  1.00  0.00     0.011 A 
HETATM   25  C   UNL     1       9.170  29.351  55.737  1.00  0.00     0.024 A 
HETATM   26  C   UNL     1       9.322  29.660  57.086  1.00  0.00     0.034 A 
HETATM   27 CL   UNL     1      10.674  30.589  57.601  1.00  0.00    -0.084 Cl
HETATM   28  C   UNL     1       8.386  29.219  58.019  1.00  0.00     0.024 A 
HETATM   29  C   UNL     1       7.290  28.458  57.603  1.00  0.00     0.011 A 
ENDBRANCH   2  23
BRANCH   7  30
HETATM   30  C   UNL     1       8.287  23.180  54.399  1.00  0.00     0.085 C 
BRANCH  30  31
HETATM   31  C   UNL     1       8.049  22.269  53.197  1.00  0.00     0.034 C 
BRANCH  31  32
HETATM   32  C   UNL     1       7.829  20.811  53.586  1.00  0.00     0.164 C 
BRANCH  32  33
HETATM   33  O   UNL     1       8.180  19.968  52.493  1.00  0.00    -0.401 OA
HETATM   34  H   UNL     1       8.776  20.473  51.913  1.00  0.00     0.209 HD
ENDBRANCH  32  33
ENDBRANCH  31  32
ENDBRANCH  30  31
ENDBRANCH   7  30
TORSDOF 7
ENDMDL
MODEL 5
REMARK VINA RESULT:      -8.4      5.259      9.565
REMARK  7 active torsions:
REMARK  status: ('A' for Active; 'I' for Inactive)
REMARK    1  A    between atoms: C_3  and  N_4 
REMARK       I    between atoms: N_4  and  C_5 
REMARK    2  A    between atoms: C_5  and  C_6 
REMARK    3  A    between atoms: C_7  and  C_8 
REMARK    4  A    between atoms: C_19  and  C_20 
REMARK    5  A    between atoms: C_20  and  C_21 
REMARK    6  A    between atoms: C_21  and  C_22 
REMARK    7  A    between atoms: C_22  and  O_23 
ROOT
HETATM    1  C   UNL     1       4.626  28.444  52.878  1.00  0.00     0.062 A 
HETATM    2  C   UNL     1       4.498  27.084  52.196  1.00  0.00     0.202 A 
HETATM    3  N   UNL     1       4.451  27.213  50.734  1.00  0.00    -0.083 N 
HETATM    4  C   UNL     1       4.476  28.409  50.070  1.00  0.00     0.726 A 
HETATM    5  N   UNL     1       4.569  29.552  50.773  1.00  0.00    -0.192 N 
HETATM    6  N   UNL     1       4.240  26.185  49.884  1.00  0.00    -0.140 NA
HETATM    7  C   UNL     1       4.252  26.828  48.707  1.00  0.00     0.166 A 
HETATM    8  N   UNL     1       4.381  28.195  48.784  1.00  0.00    -0.046 NA
HETATM    9  C   UNL     1       4.659  29.595  52.160  1.00  0.00     0.037 A 
HETATM   10  C   UNL     1       4.770  30.975  52.762  1.00  0.00     0.070 C 
HETATM   11  H   UNL     1       4.611  30.433  50.269  1.00  0.00     0.184 HD
ENDROOT
BRANCH   1  12
HETATM   12  C   UNL     1       4.856  28.451  54.352  1.00  0.00     0.256 C 
HETATM   13  N   UNL     1       6.171  28.664  54.698  1.00  0.00    -0.323 N 
HETATM   14  H   UNL     1       6.857  28.443  53.990  1.00  0.00     0.169 HD
HETATM   15  O   UNL     1       3.918  28.243  55.111  1.00  0.00    -0.267 OA
BRANCH  13  16
HETATM   16  C   UNL     1       6.704  28.934  55.982  1.00  0.00     0.041 A 
HETATM   17  C   UNL     1       7.438  28.045  56.789  1.00  0.00    -0.035 A 
HETATM   18  C   UNL     1       7.721  26.604  56.461  1.00  0.00     0.050 C 
HETATM   19  C   UNL     1       7.927  28.502  58.033  1.00  0.00     0.009 A 
HETATM   20  C   UNL     1       7.645  29.782  58.501  1.00  0.00     0.001 A 
HETATM   21  C   UNL     1       6.865  30.634  57.734  1.00  0.00     0.002 A 
HETATM   22  C   UNL     1       6.397  30.210  56.490  1.00  0.00     0.030 A 
ENDBRANCH  13  16
ENDBRANCH   1  12
BRANCH   2  23
HETATM   23  C   UNL     1       5.574  26.085  52.608  1.00  0.00    -0.028 A 
HETATM   24  C   UNL     1       6.867  26.189  52.063  1.00  0.00     0.011 A 
HETATM   25  C   UNL     1       7.860  25.268  52.403  1.00  0.00     0.024 A 
HETATM   26  C   UNL     1       7.572  24.237  53.292  1.00  0.00     0.034 A 
HETATM   27 CL   UNL     1       8.793  23.097  53.702  1.00  0.00    -0.084 Cl
HETATM   28  C   UNL     1       6.300  24.122  53.850  1.00  0.00     0.024 A 
HETATM   29  C   UNL     1       5.305  25.044  53.513  1.00  0.00     0.011 A 
ENDBRANCH   2  23
BRANCH   7  30
HETATM   30  C   UNL     1       4.102  26.129  47.406  1.00  0.00     0.085 C 
BRANCH  30  31
HETATM   31  C   UNL     1       2.675  25.662  47.131  1.00  0.00     0.034 C 
BRANCH  31  32
HETATM   32  C   UNL     1       1.680  26.812  47.020  1.00  0.00     0.164 C 
BRANCH  32  33
HETATM   33  O   UNL     1       0.752  26.744  48.098  1.00  0.00    -0.401 OA
HETATM   34  H   UNL     1       0.007  27.331  47.881  1.00  0.00     0.209 HD
ENDBRANCH  32  33
ENDBRANCH  31  32
ENDBRANCH  30  31
ENDBRANCH   7  30
TORSDOF 7
ENDMDL
MODEL 6
REMARK VINA RESULT:      -8.4      3.830      6.232
REMARK  7 active torsions:
REMARK  status: ('A' for Active; 'I' for Inactive)
REMARK    1  A    between atoms: C_3  and  N_4 
REMARK       I    between atoms: N_4  and  C_5 
REMARK    2  A    between atoms: C_5  and  C_6 
REMARK    3  A    between atoms: C_7  and  C_8 
REMARK    4  A    between atoms: C_19  and  C_20 
REMARK    5  A    between atoms: C_20  and  C_21 
REMARK    6  A    between atoms: C_21  and  C_22 
REMARK    7  A    between atoms: C_22  and  O_23 
ROOT
HETATM    1  C   UNL     1       5.034  29.334  54.300  1.00  0.00     0.062 A 
HETATM    2  C   UNL     1       6.420  28.869  54.740  1.00  0.00     0.202 A 
HETATM    3  N   UNL     1       6.809  29.462  56.024  1.00  0.00    -0.083 N 
HETATM    4  C   UNL     1       6.041  30.356  56.719  1.00  0.00     0.726 A 
HETATM    5  N   UNL     1       4.841  30.715  56.228  1.00  0.00    -0.192 N 
HETATM    6  N   UNL     1       8.020  29.305  56.602  1.00  0.00    -0.140 NA
HETATM    7  C   UNL     1       7.872  30.059  57.702  1.00  0.00     0.166 A 
HETATM    8  N   UNL     1       6.675  30.729  57.800  1.00  0.00    -0.046 NA
HETATM    9  C   UNL     1       4.316  30.215  55.043  1.00  0.00     0.037 A 
HETATM   10  C   UNL     1       2.947  30.731  54.668  1.00  0.00     0.070 C 
HETATM   11  H   UNL     1       4.268  31.361  56.763  1.00  0.00     0.184 HD
ENDROOT
BRANCH   1  12
HETATM   12  C   UNL     1       4.441  28.679  53.098  1.00  0.00     0.256 C 
HETATM   13  N   UNL     1       5.159  28.905  51.945  1.00  0.00    -0.323 N 
HETATM   14  H   UNL     1       5.753  29.722  51.945  1.00  0.00     0.169 HD
HETATM   15  O   UNL     1       3.397  28.051  53.205  1.00  0.00    -0.267 OA
BRANCH  13  16
HETATM   16  C   UNL     1       5.005  28.279  50.684  1.00  0.00     0.041 A 
HETATM   17  C   UNL     1       4.978  26.895  50.432  1.00  0.00    -0.035 A 
HETATM   18  C   UNL     1       5.191  25.819  51.462  1.00  0.00     0.050 C 
HETATM   19  C   UNL     1       4.777  26.449  49.107  1.00  0.00     0.009 A 
HETATM   20  C   UNL     1       4.671  27.344  48.045  1.00  0.00     0.001 A 
HETATM   21  C   UNL     1       4.766  28.706  48.287  1.00  0.00     0.002 A 
HETATM   22  C   UNL     1       4.935  29.166  49.593  1.00  0.00     0.030 A 
ENDBRANCH  13  16
ENDBRANCH   1  12
BRANCH   2  23
HETATM   23  C   UNL     1       6.573  27.351  54.786  1.00  0.00    -0.028 A 
HETATM   24  C   UNL     1       7.562  26.727  54.002  1.00  0.00     0.011 A 
HETATM   25  C   UNL     1       7.700  25.338  54.006  1.00  0.00     0.024 A 
HETATM   26  C   UNL     1       6.856  24.560  54.793  1.00  0.00     0.034 A 
HETATM   27 CL   UNL     1       7.021  22.848  54.788  1.00  0.00    -0.084 Cl
HETATM   28  C   UNL     1       5.877  25.160  55.583  1.00  0.00     0.024 A 
HETATM   29  C   UNL     1       5.737  26.551  55.583  1.00  0.00     0.011 A 
ENDBRANCH   2  23
BRANCH   7  30
HETATM   30  C   UNL     1       8.931  30.197  58.732  1.00  0.00     0.085 C 
BRANCH  30  31
HETATM   31  C   UNL     1      10.108  31.057  58.279  1.00  0.00     0.034 C 
BRANCH  31  32
HETATM   32  C   UNL     1      11.101  30.300  57.403  1.00  0.00     0.164 C 
BRANCH  32  33
HETATM   33  O   UNL     1      10.706  30.403  56.039  1.00  0.00    -0.401 OA
HETATM   34  H   UNL     1      11.487  30.678  55.528  1.00  0.00     0.209 HD
ENDBRANCH  32  33
ENDBRANCH  31  32
ENDBRANCH  30  31
ENDBRANCH   7  30
TORSDOF 7
ENDMDL
MODEL 7
REMARK VINA RESULT:      -8.2      3.901      5.990
REMARK  7 active torsions:
REMARK  status: ('A' for Active; 'I' for Inactive)
REMARK    1  A    between atoms: C_3  and  N_4 
REMARK       I    between atoms: N_4  and  C_5 
REMARK    2  A    between atoms: C_5  and  C_6 
REMARK    3  A    between atoms: C_7  and  C_8 
REMARK    4  A    between atoms: C_19  and  C_20 
REMARK    5  A    between atoms: C_20  and  C_21 
REMARK    6  A    between atoms: C_21  and  C_22 
REMARK    7  A    between atoms: C_22  and  O_23 
ROOT
HETATM    1  C   UNL     1       5.179  29.360  54.607  1.00  0.00     0.062 A 
HETATM    2  C   UNL     1       6.591  28.885  54.944  1.00  0.00     0.202 A 
HETATM    3  N   UNL     1       7.071  29.465  56.204  1.00  0.00    -0.083 N 
HETATM    4  C   UNL     1       6.356  30.353  56.959  1.00  0.00     0.726 A 
HETATM    5  N   UNL     1       5.127  30.722  56.557  1.00  0.00    -0.192 N 
HETATM    6  N   UNL     1       8.318  29.298  56.695  1.00  0.00    -0.140 NA
HETATM    7  C   UNL     1       8.250  30.040  57.809  1.00  0.00     0.166 A 
HETATM    8  N   UNL     1       7.066  30.714  57.997  1.00  0.00    -0.046 NA
HETATM    9  C   UNL     1       4.518  30.235  55.406  1.00  0.00     0.037 A 
HETATM   10  C   UNL     1       3.129  30.760  55.132  1.00  0.00     0.070 C 
HETATM   11  H   UNL     1       4.595  31.365  57.137  1.00  0.00     0.184 HD
ENDROOT
BRANCH   1  12
HETATM   12  C   UNL     1       4.502  28.719  53.442  1.00  0.00     0.256 C 
HETATM   13  N   UNL     1       5.106  29.000  52.238  1.00  0.00    -0.323 N 
HETATM   14  H   UNL     1       5.673  29.836  52.210  1.00  0.00     0.169 HD
HETATM   15  O   UNL     1       3.491  28.054  53.623  1.00  0.00    -0.267 OA
BRANCH  13  16
HETATM   16  C   UNL     1       4.860  28.404  50.977  1.00  0.00     0.041 A 
HETATM   17  C   UNL     1       4.420  29.059  49.812  1.00  0.00    -0.035 A 
HETATM   18  C   UNL     1       4.050  30.514  49.719  1.00  0.00     0.050 C 
HETATM   19  C   UNL     1       4.265  28.306  48.627  1.00  0.00     0.009 A 
HETATM   20  C   UNL     1       4.474  26.930  48.605  1.00  0.00     0.001 A 
HETATM   21  C   UNL     1       4.842  26.275  49.771  1.00  0.00     0.002 A 
HETATM   22  C   UNL     1       5.029  27.007  50.944  1.00  0.00     0.030 A 
ENDBRANCH  13  16
ENDBRANCH   1  12
BRANCH   2  23
HETATM   23  C   UNL     1       6.741  27.367  54.964  1.00  0.00    -0.028 A 
HETATM   24  C   UNL     1       7.495  26.728  53.963  1.00  0.00     0.011 A 
HETATM   25  C   UNL     1       7.620  25.338  53.944  1.00  0.00     0.024 A 
HETATM   26  C   UNL     1       6.998  24.573  54.927  1.00  0.00     0.034 A 
HETATM   27 CL   UNL     1       7.145  22.860  54.896  1.00  0.00    -0.084 Cl
HETATM   28  C   UNL     1       6.255  25.188  55.933  1.00  0.00     0.024 A 
HETATM   29  C   UNL     1       6.129  26.580  55.955  1.00  0.00     0.011 A 
ENDBRANCH   2  23
BRANCH   7  30
HETATM   30  C   UNL     1       9.379  30.165  58.765  1.00  0.00     0.085 C 
BRANCH  30  31
HETATM   31  C   UNL     1       8.934  30.491  60.188  1.00  0.00     0.034 C 
BRANCH  31  32
HETATM   32  C   UNL     1       9.318  31.900  60.627  1.00  0.00     0.164 C 
BRANCH  32  33
HETATM   33  O   UNL     1       9.017  32.822  59.583  1.00  0.00    -0.401 OA
HETATM   34  H   UNL     1       8.440  32.366  58.947  1.00  0.00     0.209 HD
ENDBRANCH  32  33
ENDBRANCH  31  32
ENDBRANCH  30  31
ENDBRANCH   7  30
TORSDOF 7
ENDMDL
MODEL 8
REMARK VINA RESULT:      -7.9      4.160      9.300
REMARK  7 active torsions:
REMARK  status: ('A' for Active; 'I' for Inactive)
REMARK    1  A    between atoms: C_3  and  N_4 
REMARK       I    between atoms: N_4  and  C_5 
REMARK    2  A    between atoms: C_5  and  C_6 
REMARK    3  A    between atoms: C_7  and  C_8 
REMARK    4  A    between atoms: C_19  and  C_20 
REMARK    5  A    between atoms: C_20  and  C_21 
REMARK    6  A    between atoms: C_21  and  C_22 
REMARK    7  A    between atoms: C_22  and  O_23 
ROOT
HETATM    1  C   UNL     1       4.468  34.546  61.473  1.00  0.00     0.062 A 
HETATM    2  C   UNL     1       4.597  33.072  61.093  1.00  0.00     0.202 A 
HETATM    3  N   UNL     1       4.126  32.822  59.726  1.00  0.00    -0.083 N 
HETATM    4  C   UNL     1       3.597  33.785  58.910  1.00  0.00     0.726 A 
HETATM    5  N   UNL     1       3.509  35.051  59.356  1.00  0.00    -0.192 N 
HETATM    6  N   UNL     1       4.032  31.598  59.163  1.00  0.00    -0.140 NA
HETATM    7  C   UNL     1       3.527  31.914  57.961  1.00  0.00     0.166 A 
HETATM    8  N   UNL     1       3.235  33.245  57.775  1.00  0.00    -0.046 NA
HETATM    9  C   UNL     1       3.945  35.454  60.612  1.00  0.00     0.037 A 
HETATM   10  C   UNL     1       3.773  36.923  60.921  1.00  0.00     0.070 C 
HETATM   11  H   UNL     1       3.136  35.762  58.734  1.00  0.00     0.184 HD
ENDROOT
BRANCH   1  12
HETATM   12  C   UNL     1       5.067  34.972  62.772  1.00  0.00     0.256 C 
HETATM   13  N   UNL     1       4.570  34.282  63.854  1.00  0.00    -0.323 N 
HETATM   14  H   UNL     1       3.662  33.854  63.729  1.00  0.00     0.169 HD
HETATM   15  O   UNL     1       5.886  35.880  62.790  1.00  0.00    -0.267 OA
BRANCH  13  16
HETATM   16  C   UNL     1       5.050  34.281  65.186  1.00  0.00     0.041 A 
HETATM   17  C   UNL     1       6.369  34.022  65.602  1.00  0.00    -0.035 A 
HETATM   18  C   UNL     1       7.502  33.614  64.699  1.00  0.00     0.050 C 
HETATM   19  C   UNL     1       6.677  34.103  66.978  1.00  0.00     0.009 A 
HETATM   20  C   UNL     1       5.696  34.369  67.929  1.00  0.00     0.001 A 
HETATM   21  C   UNL     1       4.383  34.557  67.524  1.00  0.00     0.002 A 
HETATM   22  C   UNL     1       4.065  34.509  66.166  1.00  0.00     0.030 A 
ENDBRANCH  13  16
ENDBRANCH   1  12
BRANCH   2  23
HETATM   23  C   UNL     1       6.002  32.509  61.283  1.00  0.00    -0.028 A 
HETATM   24  C   UNL     1       7.046  32.940  60.444  1.00  0.00     0.011 A 
HETATM   25  C   UNL     1       8.332  32.416  60.580  1.00  0.00     0.024 A 
HETATM   26  C   UNL     1       8.590  31.459  61.557  1.00  0.00     0.034 A 
HETATM   27 CL   UNL     1      10.174  30.807  61.717  1.00  0.00    -0.084 Cl
HETATM   28  C   UNL     1       7.572  31.026  62.405  1.00  0.00     0.024 A 
HETATM   29  C   UNL     1       6.284  31.550  62.272  1.00  0.00     0.011 A 
ENDBRANCH   2  23
BRANCH   7  30
HETATM   30  C   UNL     1       3.265  30.902  56.906  1.00  0.00     0.085 C 
BRANCH  30  31
HETATM   31  C   UNL     1       4.521  30.475  56.151  1.00  0.00     0.034 C 
BRANCH  31  32
HETATM   32  C   UNL     1       4.918  29.028  56.420  1.00  0.00     0.164 C 
BRANCH  32  33
HETATM   33  O   UNL     1       4.915  28.786  57.823  1.00  0.00    -0.401 OA
HETATM   34  H   UNL     1       5.013  27.827  57.956  1.00  0.00     0.209 HD
ENDBRANCH  32  33
ENDBRANCH  31  32
ENDBRANCH  30  31
ENDBRANCH   7  30
TORSDOF 7
ENDMDL
MODEL 9
REMARK VINA RESULT:      -7.8      2.959      8.295
REMARK  7 active torsions:
REMARK  status: ('A' for Active; 'I' for Inactive)
REMARK    1  A    between atoms: C_3  and  N_4 
REMARK       I    between atoms: N_4  and  C_5 
REMARK    2  A    between atoms: C_5  and  C_6 
REMARK    3  A    between atoms: C_7  and  C_8 
REMARK    4  A    between atoms: C_19  and  C_20 
REMARK    5  A    between atoms: C_20  and  C_21 
REMARK    6  A    between atoms: C_21  and  C_22 
REMARK    7  A    between atoms: C_22  and  O_23 
ROOT
HETATM    1  C   UNL     1       5.064  30.625  57.284  1.00  0.00     0.062 A 
HETATM    2  C   UNL     1       5.876  29.344  57.457  1.00  0.00     0.202 A 
HETATM    3  N   UNL     1       5.523  28.337  56.448  1.00  0.00    -0.083 N 
HETATM    4  C   UNL     1       4.554  28.512  55.499  1.00  0.00     0.726 A 
HETATM    5  N   UNL     1       3.881  29.676  55.450  1.00  0.00    -0.192 N 
HETATM    6  N   UNL     1       6.011  27.078  56.423  1.00  0.00    -0.140 NA
HETATM    7  C   UNL     1       5.361  26.579  55.361  1.00  0.00     0.166 A 
HETATM    8  N   UNL     1       4.448  27.427  54.777  1.00  0.00    -0.046 NA
HETATM    9  C   UNL     1       4.124  30.740  56.311  1.00  0.00     0.037 A 
HETATM   10  C   UNL     1       3.273  31.967  56.087  1.00  0.00     0.070 C 
HETATM   11  H   UNL     1       3.180  29.805  54.727  1.00  0.00     0.184 HD
ENDROOT
BRANCH   1  12
HETATM   12  C   UNL     1       5.439  31.793  58.133  1.00  0.00     0.256 C 
HETATM   13  N   UNL     1       5.032  31.668  59.441  1.00  0.00    -0.323 N 
HETATM   14  H   UNL     1       4.264  31.033  59.609  1.00  0.00     0.169 HD
HETATM   15  O   UNL     1       6.018  32.745  57.628  1.00  0.00    -0.267 OA
BRANCH  13  16
HETATM   16  C   UNL     1       5.391  32.475  60.549  1.00  0.00     0.041 A 
HETATM   17  C   UNL     1       4.607  33.481  61.143  1.00  0.00    -0.035 A 
HETATM   18  C   UNL     1       3.262  33.941  60.649  1.00  0.00     0.050 C 
HETATM   19  C   UNL     1       5.115  34.162  62.271  1.00  0.00     0.009 A 
HETATM   20  C   UNL     1       6.391  33.904  62.764  1.00  0.00     0.001 A 
HETATM   21  C   UNL     1       7.189  32.959  62.137  1.00  0.00     0.002 A 
HETATM   22  C   UNL     1       6.693  32.256  61.038  1.00  0.00     0.030 A 
ENDBRANCH  13  16
ENDBRANCH   1  12
BRANCH   2  23
HETATM   23  C   UNL     1       7.385  29.571  57.477  1.00  0.00    -0.028 A 
HETATM   24  C   UNL     1       8.122  29.464  56.282  1.00  0.00     0.011 A 
HETATM   25  C   UNL     1       9.507  29.637  56.282  1.00  0.00     0.024 A 
HETATM   26  C   UNL     1      10.169  29.922  57.473  1.00  0.00     0.034 A 
HETATM   27 CL   UNL     1      11.877  30.126  57.472  1.00  0.00    -0.084 Cl
HETATM   28  C   UNL     1       9.456  30.042  58.664  1.00  0.00     0.024 A 
HETATM   29  C   UNL     1       8.069  29.871  58.667  1.00  0.00     0.011 A 
ENDBRANCH   2  23
BRANCH   7  30
HETATM   30  C   UNL     1       5.576  25.198  54.861  1.00  0.00     0.085 C 
BRANCH  30  31
HETATM   31  C   UNL     1       5.602  25.104  53.338  1.00  0.00     0.034 C 
BRANCH  31  32
HETATM   32  C   UNL     1       6.822  25.776  52.717  1.00  0.00     0.164 C 
BRANCH  32  33
HETATM   33  O   UNL     1       6.882  25.466  51.329  1.00  0.00    -0.401 OA
HETATM   34  H   UNL     1       6.499  26.217  50.844  1.00  0.00     0.209 HD
ENDBRANCH  32  33
ENDBRANCH  31  32
ENDBRANCH  30  31
ENDBRANCH   7  30
TORSDOF 7
ENDMDL
MODEL 10
REMARK VINA RESULT:      -7.8      3.506      8.377
REMARK  7 active torsions:
REMARK  status: ('A' for Active; 'I' for Inactive)
REMARK    1  A    between atoms: C_3  and  N_4 
REMARK       I    between atoms: N_4  and  C_5 
REMARK    2  A    between atoms: C_5  and  C_6 
REMARK    3  A    between atoms: C_7  and  C_8 
REMARK    4  A    between atoms: C_19  and  C_20 
REMARK    5  A    between atoms: C_20  and  C_21 
REMARK    6  A    between atoms: C_21  and  C_22 
REMARK    7  A    between atoms: C_22  and  O_23 
ROOT
HETATM    1  C   UNL     1       5.067  28.702  55.285  1.00  0.00     0.062 A 
HETATM    2  C   UNL     1       5.976  27.820  56.137  1.00  0.00     0.202 A 
HETATM    3  N   UNL     1       6.146  26.487  55.548  1.00  0.00    -0.083 N 
HETATM    4  C   UNL     1       5.530  26.075  54.398  1.00  0.00     0.726 A 
HETATM    5  N   UNL     1       4.729  26.928  53.736  1.00  0.00    -0.192 N 
HETATM    6  N   UNL     1       6.815  25.472  56.136  1.00  0.00    -0.140 NA
HETATM    7  C   UNL     1       6.644  24.500  55.228  1.00  0.00     0.166 A 
HETATM    8  N   UNL     1       5.849  24.830  54.155  1.00  0.00    -0.046 NA
HETATM    9  C   UNL     1       4.495  28.236  54.146  1.00  0.00     0.037 A 
HETATM   10  C   UNL     1       3.576  29.042  53.259  1.00  0.00     0.070 C 
HETATM   11  H   UNL     1       4.295  26.620  52.871  1.00  0.00     0.184 HD
ENDROOT
BRANCH   1  12
HETATM   12  C   UNL     1       4.943  30.137  55.676  1.00  0.00     0.256 C 
HETATM   13  N   UNL     1       4.314  30.319  56.886  1.00  0.00    -0.323 N 
HETATM   14  H   UNL     1       3.716  29.565  57.194  1.00  0.00     0.169 HD
HETATM   15  O   UNL     1       5.353  31.007  54.919  1.00  0.00    -0.267 OA
BRANCH  13  16
HETATM   16  C   UNL     1       4.212  31.509  57.647  1.00  0.00     0.041 A 
HETATM   17  C   UNL     1       3.484  32.664  57.306  1.00  0.00    -0.035 A 
HETATM   18  C   UNL     1       2.739  32.872  56.016  1.00  0.00     0.050 C 
HETATM   19  C   UNL     1       3.465  33.748  58.211  1.00  0.00     0.009 A 
HETATM   20  C   UNL     1       4.199  33.722  59.394  1.00  0.00     0.001 A 
HETATM   21  C   UNL     1       4.970  32.611  59.697  1.00  0.00     0.002 A 
HETATM   22  C   UNL     1       4.978  31.518  58.829  1.00  0.00     0.030 A 
ENDBRANCH  13  16
ENDBRANCH   1  12
BRANCH   2  23
HETATM   23  C   UNL     1       7.334  28.447  56.439  1.00  0.00    -0.028 A 
HETATM   24  C   UNL     1       7.670  28.778  57.764  1.00  0.00     0.011 A 
HETATM   25  C   UNL     1       8.895  29.380  58.059  1.00  0.00     0.024 A 
HETATM   26  C   UNL     1       9.796  29.653  57.035  1.00  0.00     0.034 A 
HETATM   27 CL   UNL     1      11.301  30.403  57.399  1.00  0.00    -0.084 Cl
HETATM   28  C   UNL     1       9.486  29.324  55.717  1.00  0.00     0.024 A 
HETATM   29  C   UNL     1       8.262  28.720  55.418  1.00  0.00     0.011 A 
ENDBRANCH   2  23
BRANCH   7  30
HETATM   30  C   UNL     1       7.236  23.147  55.374  1.00  0.00     0.085 C 
BRANCH  30  31
HETATM   31  C   UNL     1       8.003  22.685  54.139  1.00  0.00     0.034 C 
BRANCH  31  32
HETATM   32  C   UNL     1       8.716  21.352  54.340  1.00  0.00     0.164 C 
BRANCH  32  33
HETATM   33  O   UNL     1       7.771  20.361  54.732  1.00  0.00    -0.401 OA
HETATM   34  H   UNL     1       7.993  19.541  54.258  1.00  0.00     0.209 HD
ENDBRANCH  32  33
ENDBRANCH  31  32
ENDBRANCH  30  31
ENDBRANCH   7  30
TORSDOF 7
ENDMDL
