MODEL 1
REMARK VINA RESULT:      -9.5      0.000      0.000
REMARK  4 active torsions:
REMARK  status: ('A' for Active; 'I' for Inactive)
REMARK    1  A    between atoms: C_3  and  O_4 
REMARK    2  A    between atoms: O_4  and  C_5 
REMARK    3  A    between atoms: C_11  and  C_12 
REMARK    4  A    between atoms: C_23  and  N_24 
ROOT
HETATM    1  C   UNL     1       5.122  25.542  53.410  1.00  0.00     0.244 A 
HETATM    2  N   UNL     1       5.313  26.930  53.763  1.00  0.00    -0.151 N 
HETATM    3  C   UNL     1       5.442  27.889  52.790  1.00  0.00     0.734 A 
HETATM    4  N   UNL     1       5.594  29.067  53.353  1.00  0.00    -0.060 NA
HETATM    5  C   UNL     1       5.510  28.864  54.708  1.00  0.00     0.103 A 
HETATM    6  C   UNL     1       5.320  27.517  54.998  1.00  0.00     0.083 A 
HETATM    7  C   UNL     1       5.579  29.793  55.755  1.00  0.00     0.034 A 
HETATM    8  C   UNL     1       5.447  29.333  57.070  1.00  0.00     0.002 A 
HETATM    9  C   UNL     1       5.254  27.976  57.336  1.00  0.00     0.002 A 
HETATM   10  C   UNL     1       5.187  27.032  56.305  1.00  0.00     0.033 A 
HETATM   11  N   UNL     1       5.409  27.602  51.470  1.00  0.00    -0.033 NA
HETATM   12  C   UNL     1       5.187  26.392  51.099  1.00  0.00     0.193 A 
HETATM   13  N   UNL     1       4.991  25.318  51.974  1.00  0.00    -0.339 N 
HETATM   14  H   UNL     1       4.763  24.402  51.623  1.00  0.00     0.164 HD
ENDROOT
BRANCH   1  15
HETATM   15  C   UNL     1       6.261  24.648  53.875  1.00  0.00    -0.014 A 
HETATM   16  C   UNL     1       6.867  24.884  55.121  1.00  0.00     0.020 A 
HETATM   17  C   UNL     1       7.866  24.032  55.622  1.00  0.00    -0.027 A 
HETATM   18  C   UNL     1       8.265  22.933  54.849  1.00  0.00     0.086 A 
HETATM   19  C   UNL     1       8.424  24.308  56.992  1.00  0.00     0.051 C 
HETATM   20  C   UNL     1       7.646  22.646  53.621  1.00  0.00    -0.027 A 
HETATM   21  C   UNL     1       8.036  21.441  52.808  1.00  0.00     0.051 C 
HETATM   22  C   UNL     1       6.660  23.517  53.139  1.00  0.00     0.020 A 
BRANCH  18  23
HETATM   23  O   UNL     1       9.206  22.068  55.342  1.00  0.00    -0.289 OA
BRANCH  23  24
HETATM   24  C   UNL     1       8.654  21.260  56.375  1.00  0.00     0.505 C 
HETATM   25  F   UNL     1       7.509  20.707  55.904  1.00  0.00    -0.184 F 
HETATM   26  F   UNL     1       9.521  20.241  56.597  1.00  0.00    -0.184 F 
ENDBRANCH  23  24
ENDBRANCH  18  23
ENDBRANCH   1  15
BRANCH  12  27
HETATM   27  N   UNL     1       5.115  26.022  49.805  1.00  0.00    -0.272 NA
HETATM   28  H   UNL     1       4.584  26.701  49.263  1.00  0.00     0.127 HD
HETATM   29  H   UNL     1       5.991  25.805  49.349  1.00  0.00     0.127 HD
ENDBRANCH  12  27
TORSDOF 4
ENDMDL
MODEL 2
REMARK VINA RESULT:      -9.4      1.640      2.343
REMARK  4 active torsions:
REMARK  status: ('A' for Active; 'I' for Inactive)
REMARK    1  A    between atoms: C_3  and  O_4 
REMARK    2  A    between atoms: O_4  and  C_5 
REMARK    3  A    between atoms: C_11  and  C_12 
REMARK    4  A    between atoms: C_23  and  N_24 
ROOT
HETATM    1  C   UNL     1       5.788  25.494  54.561  1.00  0.00     0.244 A 
HETATM    2  N   UNL     1       6.521  26.738  54.564  1.00  0.00    -0.151 N 
HETATM    3  C   UNL     1       6.613  27.501  53.428  1.00  0.00     0.734 A 
HETATM    4  N   UNL     1       7.316  28.583  53.681  1.00  0.00    -0.060 NA
HETATM    5  C   UNL     1       7.635  28.535  55.014  1.00  0.00     0.103 A 
HETATM    6  C   UNL     1       7.133  27.380  55.605  1.00  0.00     0.083 A 
HETATM    7  C   UNL     1       8.349  29.455  55.794  1.00  0.00     0.034 A 
HETATM    8  C   UNL     1       8.531  29.184  57.155  1.00  0.00     0.002 A 
HETATM    9  C   UNL     1       8.015  28.019  57.726  1.00  0.00     0.002 A 
HETATM   10  C   UNL     1       7.303  27.085  56.964  1.00  0.00     0.033 A 
HETATM   11  N   UNL     1       6.044  27.140  52.256  1.00  0.00    -0.033 NA
HETATM   12  C   UNL     1       5.335  26.070  52.210  1.00  0.00     0.193 A 
HETATM   13  N   UNL     1       5.113  25.218  53.296  1.00  0.00    -0.339 N 
HETATM   14  H   UNL     1       4.498  24.424  53.212  1.00  0.00     0.164 HD
ENDROOT
BRANCH   1  15
HETATM   15  C   UNL     1       6.666  24.285  54.843  1.00  0.00    -0.014 A 
HETATM   16  C   UNL     1       7.110  23.483  53.778  1.00  0.00     0.020 A 
HETATM   17  C   UNL     1       7.989  22.407  53.989  1.00  0.00    -0.027 A 
HETATM   18  C   UNL     1       8.416  22.131  55.295  1.00  0.00     0.086 A 
HETATM   19  C   UNL     1       8.475  21.632  52.794  1.00  0.00     0.051 C 
HETATM   20  C   UNL     1       8.025  22.942  56.373  1.00  0.00    -0.027 A 
HETATM   21  C   UNL     1       8.518  22.681  57.771  1.00  0.00     0.051 C 
HETATM   22  C   UNL     1       7.140  24.002  56.138  1.00  0.00     0.020 A 
BRANCH  18  23
HETATM   23  O   UNL     1       9.306  21.113  55.513  1.00  0.00    -0.289 OA
BRANCH  23  24
HETATM   24  C   UNL     1       8.619  19.892  55.763  1.00  0.00     0.505 C 
HETATM   25  F   UNL     1       7.304  20.178  55.922  1.00  0.00    -0.184 F 
HETATM   26  F   UNL     1       8.725  19.133  54.643  1.00  0.00    -0.184 F 
ENDBRANCH  23  24
ENDBRANCH  18  23
ENDBRANCH   1  15
BRANCH  12  27
HETATM   27  N   UNL     1       4.714  25.649  51.090  1.00  0.00    -0.272 NA
HETATM   28  H   UNL     1       3.726  25.474  51.267  1.00  0.00     0.127 HD
HETATM   29  H   UNL     1       4.834  26.222  50.265  1.00  0.00     0.127 HD
ENDBRANCH  12  27
TORSDOF 4
ENDMDL
MODEL 3
REMARK VINA RESULT:      -9.4      4.811      7.029
REMARK  4 active torsions:
REMARK  status: ('A' for Active; 'I' for Inactive)
REMARK    1  A    between atoms: C_3  and  O_4 
REMARK    2  A    between atoms: O_4  and  C_5 
REMARK    3  A    between atoms: C_11  and  C_12 
REMARK    4  A    between atoms: C_23  and  N_24 
ROOT
HETATM    1  C   UNL     1       6.699  26.706  56.937  1.00  0.00     0.244 A 
HETATM    2  N   UNL     1       6.743  26.476  55.512  1.00  0.00    -0.151 N 
HETATM    3  C   UNL     1       7.406  25.391  54.997  1.00  0.00     0.734 A 
HETATM    4  N   UNL     1       7.298  25.391  53.687  1.00  0.00    -0.060 NA
HETATM    5  C   UNL     1       6.509  26.465  53.363  1.00  0.00     0.103 A 
HETATM    6  C   UNL     1       6.131  27.168  54.503  1.00  0.00     0.083 A 
HETATM    7  C   UNL     1       6.064  26.899  52.107  1.00  0.00     0.034 A 
HETATM    8  C   UNL     1       5.243  28.031  52.038  1.00  0.00     0.002 A 
HETATM    9  C   UNL     1       4.875  28.717  53.198  1.00  0.00     0.002 A 
HETATM   10  C   UNL     1       5.312  28.303  54.461  1.00  0.00     0.033 A 
HETATM   11  N   UNL     1       8.054  24.493  55.773  1.00  0.00    -0.033 NA
HETATM   12  C   UNL     1       8.002  24.619  57.050  1.00  0.00     0.193 A 
HETATM   13  N   UNL     1       7.327  25.645  57.719  1.00  0.00    -0.339 N 
HETATM   14  H   UNL     1       7.273  25.658  58.725  1.00  0.00     0.164 HD
ENDROOT
BRANCH   1  15
HETATM   15  C   UNL     1       7.384  27.999  57.352  1.00  0.00    -0.014 A 
HETATM   16  C   UNL     1       8.758  28.167  57.113  1.00  0.00     0.020 A 
HETATM   17  C   UNL     1       9.410  29.376  57.407  1.00  0.00    -0.027 A 
HETATM   18  C   UNL     1       8.665  30.427  57.959  1.00  0.00     0.086 A 
HETATM   19  C   UNL     1      10.870  29.507  57.064  1.00  0.00     0.051 C 
HETATM   20  C   UNL     1       7.282  30.305  58.167  1.00  0.00    -0.027 A 
HETATM   21  C   UNL     1       6.465  31.445  58.715  1.00  0.00     0.051 C 
HETATM   22  C   UNL     1       6.657  29.085  57.876  1.00  0.00     0.020 A 
BRANCH  18  23
HETATM   23  O   UNL     1       9.275  31.627  58.211  1.00  0.00    -0.289 OA
BRANCH  23  24
HETATM   24  C   UNL     1       9.796  31.656  59.536  1.00  0.00     0.505 C 
HETATM   25  F   UNL     1       9.173  32.656  60.206  1.00  0.00    -0.184 F 
HETATM   26  F   UNL     1       9.436  30.494  60.136  1.00  0.00    -0.184 F 
ENDBRANCH  23  24
ENDBRANCH  18  23
ENDBRANCH   1  15
BRANCH  12  27
HETATM   27  N   UNL     1       8.599  23.758  57.898  1.00  0.00    -0.272 NA
HETATM   28  H   UNL     1       9.040  22.994  57.388  1.00  0.00     0.127 HD
HETATM   29  H   UNL     1       9.240  24.157  58.570  1.00  0.00     0.127 HD
ENDBRANCH  12  27
TORSDOF 4
ENDMDL
MODEL 4
REMARK VINA RESULT:      -9.4      3.410      5.262
REMARK  4 active torsions:
REMARK  status: ('A' for Active; 'I' for Inactive)
REMARK    1  A    between atoms: C_3  and  O_4 
REMARK    2  A    between atoms: O_4  and  C_5 
REMARK    3  A    between atoms: C_11  and  C_12 
REMARK    4  A    between atoms: C_23  and  N_24 
ROOT
HETATM    1  C   UNL     1       8.241  29.325  56.097  1.00  0.00     0.244 A 
HETATM    2  N   UNL     1       7.695  30.093  57.191  1.00  0.00    -0.151 N 
HETATM    3  C   UNL     1       8.517  30.645  58.140  1.00  0.00     0.734 A 
HETATM    4  N   UNL     1       7.795  31.301  59.021  1.00  0.00    -0.060 NA
HETATM    5  C   UNL     1       6.492  31.210  58.599  1.00  0.00     0.103 A 
HETATM    6  C   UNL     1       6.398  30.458  57.431  1.00  0.00     0.083 A 
HETATM    7  C   UNL     1       5.332  31.757  59.163  1.00  0.00     0.034 A 
HETATM    8  C   UNL     1       4.105  31.533  58.526  1.00  0.00     0.002 A 
HETATM    9  C   UNL     1       4.037  30.777  57.353  1.00  0.00     0.002 A 
HETATM   10  C   UNL     1       5.184  30.219  56.777  1.00  0.00     0.033 A 
HETATM   11  N   UNL     1       9.861  30.499  58.117  1.00  0.00    -0.033 NA
HETATM   12  C   UNL     1      10.405  29.871  57.138  1.00  0.00     0.193 A 
HETATM   13  N   UNL     1       9.700  29.296  56.075  1.00  0.00    -0.339 N 
HETATM   14  H   UNL     1      10.187  28.867  55.304  1.00  0.00     0.164 HD
ENDROOT
BRANCH   1  15
HETATM   15  C   UNL     1       7.790  27.873  56.106  1.00  0.00    -0.014 A 
HETATM   16  C   UNL     1       6.816  27.440  55.190  1.00  0.00     0.020 A 
HETATM   17  C   UNL     1       6.432  26.091  55.111  1.00  0.00    -0.027 A 
HETATM   18  C   UNL     1       7.033  25.168  55.978  1.00  0.00     0.086 A 
HETATM   19  C   UNL     1       5.431  25.688  54.062  1.00  0.00     0.051 C 
HETATM   20  C   UNL     1       8.040  25.562  56.873  1.00  0.00    -0.027 A 
HETATM   21  C   UNL     1       8.725  24.569  57.774  1.00  0.00     0.051 C 
HETATM   22  C   UNL     1       8.398  26.915  56.939  1.00  0.00     0.020 A 
BRANCH  18  23
HETATM   23  O   UNL     1       6.702  23.842  55.886  1.00  0.00    -0.289 OA
BRANCH  23  24
HETATM   24  C   UNL     1       7.642  23.145  55.077  1.00  0.00     0.505 C 
HETATM   25  F   UNL     1       7.836  21.920  55.624  1.00  0.00    -0.184 F 
HETATM   26  F   UNL     1       7.064  22.948  53.865  1.00  0.00    -0.184 F 
ENDBRANCH  23  24
ENDBRANCH  18  23
ENDBRANCH   1  15
BRANCH  12  27
HETATM   27  N   UNL     1      11.737  29.700  57.024  1.00  0.00    -0.272 NA
HETATM   28  H   UNL     1      12.206  30.592  56.878  1.00  0.00     0.127 HD
HETATM   29  H   UNL     1      12.189  29.174  57.760  1.00  0.00     0.127 HD
ENDBRANCH  12  27
TORSDOF 4
ENDMDL
MODEL 5
REMARK VINA RESULT:      -9.4      0.445      1.812
REMARK  4 active torsions:
REMARK  status: ('A' for Active; 'I' for Inactive)
REMARK    1  A    between atoms: C_3  and  O_4 
REMARK    2  A    between atoms: O_4  and  C_5 
REMARK    3  A    between atoms: C_11  and  C_12 
REMARK    4  A    between atoms: C_23  and  N_24 
ROOT
HETATM    1  C   UNL     1       5.030  25.659  53.543  1.00  0.00     0.244 A 
HETATM    2  N   UNL     1       5.256  27.054  53.844  1.00  0.00    -0.151 N 
HETATM    3  C   UNL     1       5.451  27.966  52.839  1.00  0.00     0.734 A 
HETATM    4  N   UNL     1       5.624  29.161  53.357  1.00  0.00    -0.060 NA
HETATM    5  C   UNL     1       5.484  29.019  54.715  1.00  0.00     0.103 A 
HETATM    6  C   UNL     1       5.238  27.692  55.054  1.00  0.00     0.083 A 
HETATM    7  C   UNL     1       5.547  29.989  55.725  1.00  0.00     0.034 A 
HETATM    8  C   UNL     1       5.353  29.591  57.052  1.00  0.00     0.002 A 
HETATM    9  C   UNL     1       5.104  28.253  57.367  1.00  0.00     0.002 A 
HETATM   10  C   UNL     1       5.042  27.268  56.374  1.00  0.00     0.033 A 
HETATM   11  N   UNL     1       5.456  27.624  51.531  1.00  0.00    -0.033 NA
HETATM   12  C   UNL     1       5.207  26.407  51.203  1.00  0.00     0.193 A 
HETATM   13  N   UNL     1       4.942  25.378  52.113  1.00  0.00    -0.339 N 
HETATM   14  H   UNL     1       4.696  24.456  51.792  1.00  0.00     0.164 HD
ENDROOT
BRANCH   1  15
HETATM   15  C   UNL     1       6.121  24.749  54.086  1.00  0.00    -0.014 A 
HETATM   16  C   UNL     1       6.540  23.639  53.334  1.00  0.00     0.020 A 
HETATM   17  C   UNL     1       7.600  22.822  53.762  1.00  0.00    -0.027 A 
HETATM   18  C   UNL     1       8.238  23.125  54.972  1.00  0.00     0.086 A 
HETATM   19  C   UNL     1       8.038  21.689  52.874  1.00  0.00     0.051 C 
HETATM   20  C   UNL     1       7.871  24.253  55.724  1.00  0.00    -0.027 A 
HETATM   21  C   UNL     1       8.582  24.613  57.001  1.00  0.00     0.051 C 
HETATM   22  C   UNL     1       6.804  25.046  55.280  1.00  0.00     0.020 A 
BRANCH  18  23
HETATM   23  O   UNL     1       9.300  22.365  55.384  1.00  0.00    -0.289 OA
BRANCH  23  24
HETATM   24  C   UNL     1       8.850  21.139  55.951  1.00  0.00     0.505 C 
HETATM   25  F   UNL     1       9.903  20.285  55.986  1.00  0.00    -0.184 F 
HETATM   26  F   UNL     1       8.507  21.394  57.239  1.00  0.00    -0.184 F 
ENDBRANCH  23  24
ENDBRANCH  18  23
ENDBRANCH   1  15
BRANCH  12  27
HETATM   27  N   UNL     1       5.168  25.985  49.924  1.00  0.00    -0.272 NA
HETATM   28  H   UNL     1       4.339  26.339  49.450  1.00  0.00     0.127 HD
HETATM   29  H   UNL     1       5.996  26.151  49.369  1.00  0.00     0.127 HD
ENDBRANCH  12  27
TORSDOF 4
ENDMDL
MODEL 6
REMARK VINA RESULT:      -9.2      4.727      7.199
REMARK  4 active torsions:
REMARK  status: ('A' for Active; 'I' for Inactive)
REMARK    1  A    between atoms: C_3  and  O_4 
REMARK    2  A    between atoms: O_4  and  C_5 
REMARK    3  A    between atoms: C_11  and  C_12 
REMARK    4  A    between atoms: C_23  and  N_24 
ROOT
HETATM    1  C   UNL     1       6.407  26.106  56.683  1.00  0.00     0.244 A 
HETATM    2  N   UNL     1       6.759  25.753  55.327  1.00  0.00    -0.151 N 
HETATM    3  C   UNL     1       7.770  24.861  55.075  1.00  0.00     0.734 A 
HETATM    4  N   UNL     1       7.896  24.693  53.778  1.00  0.00    -0.060 NA
HETATM    5  C   UNL     1       6.913  25.451  53.192  1.00  0.00     0.103 A 
HETATM    6  C   UNL     1       6.166  26.127  54.153  1.00  0.00     0.083 A 
HETATM    7  C   UNL     1       6.592  25.604  51.836  1.00  0.00     0.034 A 
HETATM    8  C   UNL     1       5.519  26.432  51.488  1.00  0.00     0.002 A 
HETATM    9  C   UNL     1       4.783  27.097  52.471  1.00  0.00     0.002 A 
HETATM   10  C   UNL     1       5.090  26.962  53.830  1.00  0.00     0.033 A 
HETATM   11  N   UNL     1       8.493  24.277  56.058  1.00  0.00    -0.033 NA
HETATM   12  C   UNL     1       8.188  24.514  57.282  1.00  0.00     0.193 A 
HETATM   13  N   UNL     1       7.154  25.362  57.692  1.00  0.00    -0.339 N 
HETATM   14  H   UNL     1       6.924  25.462  58.668  1.00  0.00     0.164 HD
ENDROOT
BRANCH   1  15
HETATM   15  C   UNL     1       6.631  27.578  56.990  1.00  0.00    -0.014 A 
HETATM   16  C   UNL     1       5.527  28.425  57.188  1.00  0.00     0.020 A 
HETATM   17  C   UNL     1       5.692  29.771  57.555  1.00  0.00    -0.027 A 
HETATM   18  C   UNL     1       6.991  30.272  57.713  1.00  0.00     0.086 A 
HETATM   19  C   UNL     1       4.463  30.601  57.813  1.00  0.00     0.051 C 
HETATM   20  C   UNL     1       8.113  29.440  57.567  1.00  0.00    -0.027 A 
HETATM   21  C   UNL     1       9.510  29.958  57.782  1.00  0.00     0.051 C 
HETATM   22  C   UNL     1       7.921  28.103  57.191  1.00  0.00     0.020 A 
BRANCH  18  23
HETATM   23  O   UNL     1       7.170  31.570  58.112  1.00  0.00    -0.289 OA
BRANCH  23  24
HETATM   24  C   UNL     1       7.362  31.640  59.520  1.00  0.00     0.505 C 
HETATM   25  F   UNL     1       8.397  32.484  59.757  1.00  0.00    -0.184 F 
HETATM   26  F   UNL     1       6.254  32.217  60.051  1.00  0.00    -0.184 F 
ENDBRANCH  23  24
ENDBRANCH  18  23
ENDBRANCH   1  15
BRANCH  12  27
HETATM   27  N   UNL     1       8.840  23.958  58.322  1.00  0.00    -0.272 NA
HETATM   28  H   UNL     1       9.348  23.126  58.029  1.00  0.00     0.127 HD
HETATM   29  H   UNL     1       9.436  24.571  58.862  1.00  0.00     0.127 HD
ENDBRANCH  12  27
TORSDOF 4
ENDMDL
MODEL 7
REMARK VINA RESULT:      -9.0     12.535     15.584
REMARK  4 active torsions:
REMARK  status: ('A' for Active; 'I' for Inactive)
REMARK    1  A    between atoms: C_3  and  O_4 
REMARK    2  A    between atoms: O_4  and  C_5 
REMARK    3  A    between atoms: C_11  and  C_12 
REMARK    4  A    between atoms: C_23  and  N_24 
ROOT
HETATM    1  C   UNL     1       4.032  35.169  63.627  1.00  0.00     0.244 A 
HETATM    2  N   UNL     1       5.189  34.378  63.977  1.00  0.00    -0.151 N 
HETATM    3  C   UNL     1       5.448  34.055  65.285  1.00  0.00     0.734 A 
HETATM    4  N   UNL     1       6.541  33.328  65.349  1.00  0.00    -0.060 NA
HETATM    5  C   UNL     1       6.958  33.138  64.056  1.00  0.00     0.103 A 
HETATM    6  C   UNL     1       6.112  33.785  63.160  1.00  0.00     0.083 A 
HETATM    7  C   UNL     1       8.054  32.413  63.568  1.00  0.00     0.034 A 
HETATM    8  C   UNL     1       8.261  32.356  62.186  1.00  0.00     0.002 A 
HETATM    9  C   UNL     1       7.395  33.011  61.307  1.00  0.00     0.002 A 
HETATM   10  C   UNL     1       6.298  33.745  61.773  1.00  0.00     0.033 A 
HETATM   11  N   UNL     1       4.661  34.457  66.308  1.00  0.00    -0.033 NA
HETATM   12  C   UNL     1       3.590  35.117  66.050  1.00  0.00     0.193 A 
HETATM   13  N   UNL     1       3.171  35.478  64.765  1.00  0.00    -0.339 N 
HETATM   14  H   UNL     1       2.290  35.945  64.622  1.00  0.00     0.164 HD
ENDROOT
BRANCH   1  15
HETATM   15  C   UNL     1       4.393  36.505  62.996  1.00  0.00    -0.014 A 
HETATM   16  C   UNL     1       3.627  36.999  61.927  1.00  0.00     0.020 A 
HETATM   17  C   UNL     1       3.877  38.265  61.371  1.00  0.00    -0.027 A 
HETATM   18  C   UNL     1       4.923  39.037  61.895  1.00  0.00     0.086 A 
HETATM   19  C   UNL     1       2.975  38.757  60.271  1.00  0.00     0.051 C 
HETATM   20  C   UNL     1       5.677  38.589  62.991  1.00  0.00    -0.027 A 
HETATM   21  C   UNL     1       6.771  39.432  63.590  1.00  0.00     0.051 C 
HETATM   22  C   UNL     1       5.414  37.318  63.521  1.00  0.00     0.020 A 
BRANCH  18  23
HETATM   23  O   UNL     1       5.153  40.290  61.393  1.00  0.00    -0.289 OA
BRANCH  23  24
HETATM   24  C   UNL     1       6.085  40.237  60.318  1.00  0.00     0.505 C 
HETATM   25  F   UNL     1       7.144  41.017  60.646  1.00  0.00    -0.184 F 
HETATM   26  F   UNL     1       6.543  38.962  60.245  1.00  0.00    -0.184 F 
ENDBRANCH  23  24
ENDBRANCH  18  23
ENDBRANCH   1  15
BRANCH  12  27
HETATM   27  N   UNL     1       2.737  35.535  67.006  1.00  0.00    -0.272 NA
HETATM   28  H   UNL     1       1.813  35.129  66.871  1.00  0.00     0.127 HD
HETATM   29  H   UNL     1       3.042  35.422  67.963  1.00  0.00     0.127 HD
ENDBRANCH  12  27
TORSDOF 4
ENDMDL
MODEL 8
REMARK VINA RESULT:      -8.9     12.604     15.406
REMARK  4 active torsions:
REMARK  status: ('A' for Active; 'I' for Inactive)
REMARK    1  A    between atoms: C_3  and  O_4 
REMARK    2  A    between atoms: O_4  and  C_5 
REMARK    3  A    between atoms: C_11  and  C_12 
REMARK    4  A    between atoms: C_23  and  N_24 
ROOT
HETATM    1  C   UNL     1       3.948  35.047  63.642  1.00  0.00     0.244 A 
HETATM    2  N   UNL     1       5.140  34.309  63.991  1.00  0.00    -0.151 N 
HETATM    3  C   UNL     1       5.428  34.019  65.300  1.00  0.00     0.734 A 
HETATM    4  N   UNL     1       6.549  33.337  65.364  1.00  0.00    -0.060 NA
HETATM    5  C   UNL     1       6.959  33.142  64.068  1.00  0.00     0.103 A 
HETATM    6  C   UNL     1       6.076  33.738  63.173  1.00  0.00     0.083 A 
HETATM    7  C   UNL     1       8.077  32.453  63.580  1.00  0.00     0.034 A 
HETATM    8  C   UNL     1       8.270  32.381  62.195  1.00  0.00     0.002 A 
HETATM    9  C   UNL     1       7.368  32.984  61.316  1.00  0.00     0.002 A 
HETATM   10  C   UNL     1       6.248  33.682  61.784  1.00  0.00     0.033 A 
HETATM   11  N   UNL     1       4.637  34.407  66.326  1.00  0.00    -0.033 NA
HETATM   12  C   UNL     1       3.537  35.019  66.070  1.00  0.00     0.193 A 
HETATM   13  N   UNL     1       3.089  35.340  64.785  1.00  0.00    -0.339 N 
HETATM   14  H   UNL     1       2.188  35.769  64.645  1.00  0.00     0.164 HD
ENDROOT
BRANCH   1  15
HETATM   15  C   UNL     1       4.248  36.384  62.984  1.00  0.00    -0.014 A 
HETATM   16  C   UNL     1       5.051  37.325  63.652  1.00  0.00     0.020 A 
HETATM   17  C   UNL     1       5.418  38.537  63.044  1.00  0.00    -0.027 A 
HETATM   18  C   UNL     1       4.960  38.807  61.748  1.00  0.00     0.086 A 
HETATM   19  C   UNL     1       6.333  39.468  63.793  1.00  0.00     0.051 C 
HETATM   20  C   UNL     1       4.194  37.868  61.038  1.00  0.00    -0.027 A 
HETATM   21  C   UNL     1       3.737  38.130  59.628  1.00  0.00     0.051 C 
HETATM   22  C   UNL     1       3.832  36.671  61.670  1.00  0.00     0.020 A 
BRANCH  18  23
HETATM   23  O   UNL     1       5.343  39.965  61.124  1.00  0.00    -0.289 OA
BRANCH  23  24
HETATM   24  C   UNL     1       6.598  39.793  60.475  1.00  0.00     0.505 C 
HETATM   25  F   UNL     1       6.421  40.037  59.154  1.00  0.00    -0.184 F 
HETATM   26  F   UNL     1       7.430  40.756  60.946  1.00  0.00    -0.184 F 
ENDBRANCH  23  24
ENDBRANCH  18  23
ENDBRANCH   1  15
BRANCH  12  27
HETATM   27  N   UNL     1       2.680  35.419  67.030  1.00  0.00    -0.272 NA
HETATM   28  H   UNL     1       2.340  36.361  66.843  1.00  0.00     0.127 HD
HETATM   29  H   UNL     1       1.911  34.796  67.237  1.00  0.00     0.127 HD
ENDBRANCH  12  27
TORSDOF 4
ENDMDL
MODEL 9
REMARK VINA RESULT:      -8.8      2.317      4.007
REMARK  4 active torsions:
REMARK  status: ('A' for Active; 'I' for Inactive)
REMARK    1  A    between atoms: C_3  and  O_4 
REMARK    2  A    between atoms: O_4  and  C_5 
REMARK    3  A    between atoms: C_11  and  C_12 
REMARK    4  A    between atoms: C_23  and  N_24 
ROOT
HETATM    1  C   UNL     1       7.634  28.052  55.357  1.00  0.00     0.244 A 
HETATM    2  N   UNL     1       6.288  28.523  55.127  1.00  0.00    -0.151 N 
HETATM    3  C   UNL     1       5.554  29.076  56.146  1.00  0.00     0.734 A 
HETATM    4  N   UNL     1       4.374  29.434  55.693  1.00  0.00    -0.060 NA
HETATM    5  C   UNL     1       4.371  29.154  54.349  1.00  0.00     0.103 A 
HETATM    6  C   UNL     1       5.579  28.584  53.958  1.00  0.00     0.083 A 
HETATM    7  C   UNL     1       3.369  29.368  53.394  1.00  0.00     0.034 A 
HETATM    8  C   UNL     1       3.617  29.006  52.066  1.00  0.00     0.002 A 
HETATM    9  C   UNL     1       4.839  28.438  51.697  1.00  0.00     0.002 A 
HETATM   10  C   UNL     1       5.852  28.211  52.636  1.00  0.00     0.033 A 
HETATM   11  N   UNL     1       6.030  29.203  57.405  1.00  0.00    -0.033 NA
HETATM   12  C   UNL     1       7.240  28.851  57.653  1.00  0.00     0.193 A 
HETATM   13  N   UNL     1       8.121  28.316  56.708  1.00  0.00    -0.339 N 
HETATM   14  H   UNL     1       9.077  28.114  56.950  1.00  0.00     0.164 HD
ENDROOT
BRANCH   1  15
HETATM   15  C   UNL     1       7.786  26.556  55.138  1.00  0.00    -0.014 A 
HETATM   16  C   UNL     1       7.977  25.706  56.241  1.00  0.00     0.020 A 
HETATM   17  C   UNL     1       8.040  24.311  56.089  1.00  0.00    -0.027 A 
HETATM   18  C   UNL     1       7.920  23.767  54.803  1.00  0.00     0.086 A 
HETATM   19  C   UNL     1       8.181  23.459  57.322  1.00  0.00     0.051 C 
HETATM   20  C   UNL     1       7.684  24.587  53.687  1.00  0.00    -0.027 A 
HETATM   21  C   UNL     1       7.506  24.007  52.309  1.00  0.00     0.051 C 
HETATM   22  C   UNL     1       7.635  25.976  53.864  1.00  0.00     0.020 A 
BRANCH  18  23
HETATM   23  O   UNL     1       7.937  22.407  54.641  1.00  0.00    -0.289 OA
BRANCH  23  24
HETATM   24  C   UNL     1       9.266  21.943  54.433  1.00  0.00     0.505 C 
HETATM   25  F   UNL     1       9.546  21.034  55.399  1.00  0.00    -0.184 F 
HETATM   26  F   UNL     1       9.280  21.278  53.251  1.00  0.00    -0.184 F 
ENDBRANCH  23  24
ENDBRANCH  18  23
ENDBRANCH   1  15
BRANCH  12  27
HETATM   27  N   UNL     1       7.801  28.966  58.873  1.00  0.00    -0.272 NA
HETATM   28  H   UNL     1       8.035  28.050  59.253  1.00  0.00     0.127 HD
HETATM   29  H   UNL     1       8.588  29.597  58.950  1.00  0.00     0.127 HD
ENDBRANCH  12  27
TORSDOF 4
ENDMDL
MODEL 10
REMARK VINA RESULT:      -8.6      2.696      5.446
REMARK  4 active torsions:
REMARK  status: ('A' for Active; 'I' for Inactive)
REMARK    1  A    between atoms: C_3  and  O_4 
REMARK    2  A    between atoms: O_4  and  C_5 
REMARK    3  A    between atoms: C_11  and  C_12 
REMARK    4  A    between atoms: C_23  and  N_24 
ROOT
HETATM    1  C   UNL     1       5.377  28.613  51.288  1.00  0.00     0.244 A 
HETATM    2  N   UNL     1       4.139  28.483  50.557  1.00  0.00    -0.151 N 
HETATM    3  C   UNL     1       3.122  29.388  50.731  1.00  0.00     0.734 A 
HETATM    4  N   UNL     1       2.110  29.067  49.956  1.00  0.00    -0.060 NA
HETATM    5  C   UNL     1       2.506  27.968  49.236  1.00  0.00     0.103 A 
HETATM    6  C   UNL     1       3.795  27.581  49.588  1.00  0.00     0.083 A 
HETATM    7  C   UNL     1       1.814  27.250  48.252  1.00  0.00     0.034 A 
HETATM    8  C   UNL     1       2.448  26.161  47.644  1.00  0.00     0.002 A 
HETATM    9  C   UNL     1       3.745  25.793  48.012  1.00  0.00     0.002 A 
HETATM   10  C   UNL     1       4.451  26.494  48.996  1.00  0.00     0.033 A 
HETATM   11  N   UNL     1       3.210  30.431  51.587  1.00  0.00    -0.033 NA
HETATM   12  C   UNL     1       4.309  30.626  52.223  1.00  0.00     0.193 A 
HETATM   13  N   UNL     1       5.444  29.816  52.112  1.00  0.00    -0.339 N 
HETATM   14  H   UNL     1       6.297  30.055  52.592  1.00  0.00     0.164 HD
ENDROOT
BRANCH   1  15
HETATM   15  C   UNL     1       5.641  27.445  52.224  1.00  0.00    -0.014 A 
HETATM   16  C   UNL     1       6.448  26.377  51.794  1.00  0.00     0.020 A 
HETATM   17  C   UNL     1       6.783  25.319  52.655  1.00  0.00    -0.027 A 
HETATM   18  C   UNL     1       6.288  25.335  53.967  1.00  0.00     0.086 A 
HETATM   19  C   UNL     1       7.703  24.242  52.147  1.00  0.00     0.051 C 
HETATM   20  C   UNL     1       5.517  26.410  54.439  1.00  0.00    -0.027 A 
HETATM   21  C   UNL     1       5.022  26.458  55.859  1.00  0.00     0.051 C 
HETATM   22  C   UNL     1       5.188  27.447  53.556  1.00  0.00     0.020 A 
BRANCH  18  23
HETATM   23  O   UNL     1       6.639  24.333  54.833  1.00  0.00    -0.289 OA
BRANCH  23  24
HETATM   24  C   UNL     1       7.794  24.698  55.579  1.00  0.00     0.505 C 
HETATM   25  F   UNL     1       7.537  24.458  56.889  1.00  0.00    -0.184 F 
HETATM   26  F   UNL     1       8.793  23.856  55.213  1.00  0.00    -0.184 F 
ENDBRANCH  23  24
ENDBRANCH  18  23
ENDBRANCH   1  15
BRANCH  12  27
HETATM   27  N   UNL     1       4.491  31.653  53.077  1.00  0.00    -0.272 NA
HETATM   28  H   UNL     1       3.964  31.508  53.936  1.00  0.00     0.127 HD
HETATM   29  H   UNL     1       5.448  31.906  53.281  1.00  0.00     0.127 HD
ENDBRANCH  12  27
TORSDOF 4
ENDMDL
