MODEL 1
REMARK VINA RESULT:      -8.9      0.000      0.000
REMARK  10 active torsions:
REMARK  status: ('A' for Active; 'I' for Inactive)
REMARK    1  A    between atoms: C_2  and  C_3 
REMARK    2  A    between atoms: C_3  and  C_4 
REMARK    3  A    between atoms: N_7  and  C_9 
REMARK    4  A    between atoms: C_9  and  C_10 
REMARK    5  A    between atoms: C_11  and  O_12 
REMARK    6  A    between atoms: C_13  and  O_14 
REMARK    7  A    between atoms: O_14  and  C_15 
REMARK    8  A    between atoms: N_25  and  C_26 
REMARK    9  A    between atoms: C_26  and  C_27 
REMARK   10  A    between atoms: C_27  and  C_28 
ROOT
HETATM    1  C   UNL     1       5.145  25.900  54.048  1.00  0.00     0.026 C 
HETATM    2  C   UNL     1       4.715  24.980  52.891  1.00  0.00     0.035 C 
HETATM    3  C   UNL     1       4.888  25.588  51.504  1.00  0.00     0.235 C 
HETATM    4  N   UNL     1       4.266  26.959  51.397  1.00  0.00    -0.067 N 
HETATM    5  H   UNL     1       3.245  26.857  51.444  1.00  0.00     0.280 HD
HETATM    6  C   UNL     1       4.651  27.893  52.517  1.00  0.00     0.235 C 
HETATM    7  C   UNL     1       4.413  27.242  53.867  1.00  0.00     0.035 C 
ENDROOT
BRANCH   1   8
HETATM    8  C   UNL     1       6.690  25.999  54.278  1.00  0.00     0.119 C 
HETATM    9  N   UNL     1       7.277  27.224  53.765  1.00  0.00    -0.324 N 
HETATM   10  C   UNL     1       8.015  27.883  54.727  1.00  0.00     0.326 C 
HETATM   11  H   UNL     1       7.638  27.332  52.824  1.00  0.00     0.165 HD
HETATM   12  O   UNL     1       8.771  28.800  54.461  1.00  0.00    -0.247 OA
HETATM   13  N   UNL     1       7.751  27.334  55.938  1.00  0.00    -0.268 N 
HETATM   14  C   UNL     1       7.018  26.189  55.782  1.00  0.00     0.256 C 
HETATM   15  O   UNL     1       6.663  25.428  56.671  1.00  0.00    -0.270 OA
BRANCH   8  16
HETATM   16  C   UNL     1       7.517  24.815  53.724  1.00  0.00     0.037 C 
HETATM   17  C   UNL     1       8.188  25.044  52.377  1.00  0.00     0.008 C 
ENDBRANCH   8  16
BRANCH  13  18
HETATM   18  C   UNL     1       8.376  27.748  57.186  1.00  0.00     0.142 C 
BRANCH  18  19
HETATM   19  C   UNL     1       7.660  28.929  57.854  1.00  0.00     0.068 C 
BRANCH  19  20
HETATM   20  C   UNL     1       8.597  30.067  58.116  1.00  0.00     0.010 A 
HETATM   21  S   UNL     1      10.193  30.050  57.481  1.00  0.00    -0.085 SA
HETATM   22  C   UNL     1      10.485  31.568  58.215  1.00  0.00     0.166 A 
HETATM   23  N   UNL     1       9.483  32.081  58.892  1.00  0.00    -0.258 NA
HETATM   24  C   UNL     1       8.394  31.228  58.847  1.00  0.00     0.044 A 
HETATM   25  C   UNL     1       7.156  31.635  59.564  1.00  0.00     0.071 C 
ENDBRANCH  19  20
ENDBRANCH  18  19
ENDBRANCH  13  18
ENDBRANCH   1   8
BRANCH   4  26
HETATM   26  C   UNL     1       4.571  27.541  50.012  1.00  0.00     0.276 C 
BRANCH  26  27
HETATM   27  C   UNL     1       3.725  27.037  48.877  1.00  0.00     0.004 A 
HETATM   28  C   UNL     1       2.379  27.414  48.779  1.00  0.00     0.107 A 
HETATM   29  C   UNL     1       1.567  26.941  47.750  1.00  0.00     0.102 A 
HETATM   30  C   UNL     1       2.079  26.054  46.812  1.00  0.00     0.039 A 
HETATM   31  C   UNL     1       3.419  25.669  46.890  1.00  0.00     0.003 A 
HETATM   32  C   UNL     1       4.240  26.156  47.915  1.00  0.00     0.012 A 
BRANCH  28  33
HETATM   33  O   UNL     1       1.849  28.226  49.745  1.00  0.00    -0.357 OA
HETATM   34  H   UNL     1       1.035  27.784  50.069  1.00  0.00     0.218 HD
ENDBRANCH  28  33
BRANCH  29  35
HETATM   35  O   UNL     1       0.241  27.269  47.724  1.00  0.00    -0.349 OA
BRANCH  35  36
HETATM   36  C   UNL     1      -0.151  27.763  46.434  1.00  0.00     0.171 C 
HETATM   37  C   UNL     1       0.151  29.247  46.383  1.00  0.00     0.034 C 
ENDBRANCH  35  36
ENDBRANCH  29  35
ENDBRANCH  26  27
ENDBRANCH   4  26
TORSDOF 10
ENDMDL
MODEL 2
REMARK VINA RESULT:      -8.8      1.468      1.906
REMARK  10 active torsions:
REMARK  status: ('A' for Active; 'I' for Inactive)
REMARK    1  A    between atoms: C_2  and  C_3 
REMARK    2  A    between atoms: C_3  and  C_4 
REMARK    3  A    between atoms: N_7  and  C_9 
REMARK    4  A    between atoms: C_9  and  C_10 
REMARK    5  A    between atoms: C_11  and  O_12 
REMARK    6  A    between atoms: C_13  and  O_14 
REMARK    7  A    between atoms: O_14  and  C_15 
REMARK    8  A    between atoms: N_25  and  C_26 
REMARK    9  A    between atoms: C_26  and  C_27 
REMARK   10  A    between atoms: C_27  and  C_28 
ROOT
HETATM    1  C   UNL     1       4.880  25.694  53.786  1.00  0.00     0.026 C 
HETATM    2  C   UNL     1       5.000  24.859  52.497  1.00  0.00     0.035 C 
HETATM    3  C   UNL     1       5.485  25.640  51.282  1.00  0.00     0.235 C 
HETATM    4  N   UNL     1       4.696  26.908  51.063  1.00  0.00    -0.067 N 
HETATM    5  H   UNL     1       3.746  26.653  50.768  1.00  0.00     0.280 HD
HETATM    6  C   UNL     1       4.544  27.754  52.302  1.00  0.00     0.235 C 
HETATM    7  C   UNL     1       4.016  26.925  53.458  1.00  0.00     0.035 C 
ENDROOT
BRANCH   1   8
HETATM    8  C   UNL     1       6.234  25.991  54.511  1.00  0.00     0.119 C 
HETATM    9  N   UNL     1       7.147  26.804  53.727  1.00  0.00    -0.324 N 
HETATM   10  C   UNL     1       7.582  27.911  54.427  1.00  0.00     0.326 C 
HETATM   11  H   UNL     1       7.835  26.428  53.083  1.00  0.00     0.165 HD
HETATM   12  O   UNL     1       8.515  28.599  54.054  1.00  0.00    -0.247 OA
HETATM   13  N   UNL     1       6.819  28.057  55.538  1.00  0.00    -0.268 N 
HETATM   14  C   UNL     1       6.024  26.956  55.708  1.00  0.00     0.256 C 
HETATM   15  O   UNL     1       5.262  26.748  56.640  1.00  0.00    -0.270 OA
BRANCH   8  16
HETATM   16  C   UNL     1       7.012  24.744  54.994  1.00  0.00     0.037 C 
HETATM   17  C   UNL     1       8.057  24.197  54.033  1.00  0.00     0.008 C 
ENDBRANCH   8  16
BRANCH  13  18
HETATM   18  C   UNL     1       7.010  29.097  56.539  1.00  0.00     0.142 C 
BRANCH  18  19
HETATM   19  C   UNL     1       8.007  28.701  57.635  1.00  0.00     0.068 C 
BRANCH  19  20
HETATM   20  C   UNL     1       8.810  29.874  58.102  1.00  0.00     0.010 A 
HETATM   21  S   UNL     1       8.189  30.938  59.300  1.00  0.00    -0.085 SA
HETATM   22  C   UNL     1       9.625  31.866  59.199  1.00  0.00     0.166 A 
HETATM   23  N   UNL     1      10.525  31.439  58.344  1.00  0.00    -0.258 NA
HETATM   24  C   UNL     1      10.069  30.299  57.704  1.00  0.00     0.044 A 
HETATM   25  C   UNL     1      10.952  29.665  56.688  1.00  0.00     0.071 C 
ENDBRANCH  19  20
ENDBRANCH  18  19
ENDBRANCH  13  18
ENDBRANCH   1   8
BRANCH   4  26
HETATM   26  C   UNL     1       5.309  27.683  49.890  1.00  0.00     0.276 C 
BRANCH  26  27
HETATM   27  C   UNL     1       4.345  28.237  48.881  1.00  0.00     0.004 A 
HETATM   28  C   UNL     1       3.324  27.430  48.363  1.00  0.00     0.107 A 
HETATM   29  C   UNL     1       2.432  27.914  47.408  1.00  0.00     0.102 A 
HETATM   30  C   UNL     1       2.562  29.210  46.927  1.00  0.00     0.039 A 
HETATM   31  C   UNL     1       3.571  30.033  47.434  1.00  0.00     0.003 A 
HETATM   32  C   UNL     1       4.459  29.552  48.405  1.00  0.00     0.012 A 
BRANCH  28  33
HETATM   33  O   UNL     1       3.239  26.128  48.775  1.00  0.00    -0.357 OA
HETATM   34  H   UNL     1       3.816  25.604  48.178  1.00  0.00     0.218 HD
ENDBRANCH  28  33
BRANCH  29  35
HETATM   35  O   UNL     1       1.494  27.079  46.868  1.00  0.00    -0.349 OA
BRANCH  35  36
HETATM   36  C   UNL     1       0.212  27.721  46.780  1.00  0.00     0.171 C 
HETATM   37  C   UNL     1      -0.365  27.442  45.406  1.00  0.00     0.034 C 
ENDBRANCH  35  36
ENDBRANCH  29  35
ENDBRANCH  26  27
ENDBRANCH   4  26
TORSDOF 10
ENDMDL
MODEL 3
REMARK VINA RESULT:      -8.6      4.472     10.272
REMARK  10 active torsions:
REMARK  status: ('A' for Active; 'I' for Inactive)
REMARK    1  A    between atoms: C_2  and  C_3 
REMARK    2  A    between atoms: C_3  and  C_4 
REMARK    3  A    between atoms: N_7  and  C_9 
REMARK    4  A    between atoms: C_9  and  C_10 
REMARK    5  A    between atoms: C_11  and  O_12 
REMARK    6  A    between atoms: C_13  and  O_14 
REMARK    7  A    between atoms: O_14  and  C_15 
REMARK    8  A    between atoms: N_25  and  C_26 
REMARK    9  A    between atoms: C_26  and  C_27 
REMARK   10  A    between atoms: C_27  and  C_28 
ROOT
HETATM    1  C   UNL     1       4.576  28.149  56.302  1.00  0.00     0.026 C 
HETATM    2  C   UNL     1       3.878  29.496  56.563  1.00  0.00     0.035 C 
HETATM    3  C   UNL     1       4.827  30.661  56.815  1.00  0.00     0.235 C 
HETATM    4  N   UNL     1       5.857  30.343  57.872  1.00  0.00    -0.067 N 
HETATM    5  H   UNL     1       5.381  30.276  58.779  1.00  0.00     0.280 HD
HETATM    6  C   UNL     1       6.561  29.026  57.662  1.00  0.00     0.235 C 
HETATM    7  C   UNL     1       5.557  27.905  57.463  1.00  0.00     0.035 C 
ENDROOT
BRANCH   1   8
HETATM    8  C   UNL     1       5.173  27.979  54.865  1.00  0.00     0.119 C 
HETATM    9  N   UNL     1       6.420  28.697  54.666  1.00  0.00    -0.324 N 
HETATM   10  C   UNL     1       7.416  27.873  54.184  1.00  0.00     0.326 C 
HETATM   11  H   UNL     1       6.479  29.653  54.332  1.00  0.00     0.165 HD
HETATM   12  O   UNL     1       8.464  28.302  53.735  1.00  0.00    -0.247 OA
HETATM   13  N   UNL     1       7.014  26.583  54.297  1.00  0.00    -0.268 N 
HETATM   14  C   UNL     1       5.692  26.534  54.645  1.00  0.00     0.256 C 
HETATM   15  O   UNL     1       5.012  25.526  54.773  1.00  0.00    -0.270 OA
BRANCH   8  16
HETATM   16  C   UNL     1       4.222  28.360  53.705  1.00  0.00     0.037 C 
HETATM   17  C   UNL     1       4.539  29.661  52.983  1.00  0.00     0.008 C 
ENDBRANCH   8  16
BRANCH  13  18
HETATM   18  C   UNL     1       7.793  25.434  53.856  1.00  0.00     0.142 C 
BRANCH  18  19
HETATM   19  C   UNL     1       8.152  24.477  54.999  1.00  0.00     0.068 C 
BRANCH  19  20
HETATM   20  C   UNL     1       8.059  23.046  54.572  1.00  0.00     0.010 A 
HETATM   21  S   UNL     1       7.792  22.640  52.924  1.00  0.00    -0.085 SA
HETATM   22  C   UNL     1       7.820  20.981  53.343  1.00  0.00     0.166 A 
HETATM   23  N   UNL     1       8.015  20.713  54.614  1.00  0.00    -0.258 NA
HETATM   24  C   UNL     1       8.150  21.889  55.331  1.00  0.00     0.044 A 
HETATM   25  C   UNL     1       8.374  21.791  56.799  1.00  0.00     0.071 C 
ENDBRANCH  19  20
ENDBRANCH  18  19
ENDBRANCH  13  18
ENDBRANCH   1   8
BRANCH   4  26
HETATM   26  C   UNL     1       6.832  31.521  57.992  1.00  0.00     0.276 C 
BRANCH  26  27
HETATM   27  C   UNL     1       7.578  31.639  59.290  1.00  0.00     0.004 A 
HETATM   28  C   UNL     1       6.879  31.707  60.502  1.00  0.00     0.107 A 
HETATM   29  C   UNL     1       7.547  31.840  61.717  1.00  0.00     0.102 A 
HETATM   30  C   UNL     1       8.932  31.941  61.742  1.00  0.00     0.039 A 
HETATM   31  C   UNL     1       9.648  31.872  60.545  1.00  0.00     0.003 A 
HETATM   32  C   UNL     1       8.978  31.722  59.324  1.00  0.00     0.012 A 
BRANCH  28  33
HETATM   33  O   UNL     1       5.511  31.686  60.477  1.00  0.00    -0.357 OA
HETATM   34  H   UNL     1       5.242  31.860  59.550  1.00  0.00     0.218 HD
ENDBRANCH  28  33
BRANCH  29  35
HETATM   35  O   UNL     1       6.834  31.977  62.875  1.00  0.00    -0.349 OA
BRANCH  35  36
HETATM   36  C   UNL     1       6.780  33.348  63.296  1.00  0.00     0.171 C 
HETATM   37  C   UNL     1       7.326  33.433  64.708  1.00  0.00     0.034 C 
ENDBRANCH  35  36
ENDBRANCH  29  35
ENDBRANCH  26  27
ENDBRANCH   4  26
TORSDOF 10
ENDMDL
MODEL 4
REMARK VINA RESULT:      -8.2      3.241     10.545
REMARK  10 active torsions:
REMARK  status: ('A' for Active; 'I' for Inactive)
REMARK    1  A    between atoms: C_2  and  C_3 
REMARK    2  A    between atoms: C_3  and  C_4 
REMARK    3  A    between atoms: N_7  and  C_9 
REMARK    4  A    between atoms: C_9  and  C_10 
REMARK    5  A    between atoms: C_11  and  O_12 
REMARK    6  A    between atoms: C_13  and  O_14 
REMARK    7  A    between atoms: O_14  and  C_15 
REMARK    8  A    between atoms: N_25  and  C_26 
REMARK    9  A    between atoms: C_26  and  C_27 
REMARK   10  A    between atoms: C_27  and  C_28 
ROOT
HETATM    1  C   UNL     1       7.803  26.854  55.476  1.00  0.00     0.026 C 
HETATM    2  C   UNL     1       8.246  26.850  56.951  1.00  0.00     0.035 C 
HETATM    3  C   UNL     1       7.623  27.950  57.801  1.00  0.00     0.235 C 
HETATM    4  N   UNL     1       7.771  29.313  57.171  1.00  0.00    -0.067 N 
HETATM    5  H   UNL     1       8.763  29.579  57.198  1.00  0.00     0.280 HD
HETATM    6  C   UNL     1       7.358  29.365  55.720  1.00  0.00     0.235 C 
HETATM    7  C   UNL     1       8.048  28.271  54.926  1.00  0.00     0.035 C 
ENDROOT
BRANCH   1   8
HETATM    8  C   UNL     1       6.380  26.261  55.209  1.00  0.00     0.119 C 
HETATM    9  N   UNL     1       5.366  27.273  54.965  1.00  0.00    -0.324 N 
HETATM   10  C   UNL     1       4.681  27.041  53.790  1.00  0.00     0.326 C 
HETATM   11  H   UNL     1       4.804  27.702  55.692  1.00  0.00     0.165 HD
HETATM   12  O   UNL     1       3.650  27.624  53.504  1.00  0.00    -0.247 OA
HETATM   13  N   UNL     1       5.338  26.094  53.076  1.00  0.00    -0.268 N 
HETATM   14  C   UNL     1       6.327  25.535  53.839  1.00  0.00     0.256 C 
HETATM   15  O   UNL     1       7.064  24.617  53.512  1.00  0.00    -0.270 OA
BRANCH   8  16
HETATM   16  C   UNL     1       5.843  25.313  56.308  1.00  0.00     0.037 C 
HETATM   17  C   UNL     1       4.737  25.875  57.189  1.00  0.00     0.008 C 
ENDBRANCH   8  16
BRANCH  13  18
HETATM   18  C   UNL     1       4.889  25.566  51.795  1.00  0.00     0.142 C 
BRANCH  18  19
HETATM   19  C   UNL     1       5.579  26.229  50.597  1.00  0.00     0.068 C 
BRANCH  19  20
HETATM   20  C   UNL     1       4.660  27.168  49.880  1.00  0.00     0.010 A 
HETATM   21  S   UNL     1       4.668  28.847  50.243  1.00  0.00    -0.085 SA
HETATM   22  C   UNL     1       3.437  29.090  49.078  1.00  0.00     0.166 A 
HETATM   23  N   UNL     1       3.027  28.016  48.443  1.00  0.00    -0.258 NA
HETATM   24  C   UNL     1       3.718  26.905  48.896  1.00  0.00     0.044 A 
HETATM   25  C   UNL     1       3.389  25.583  48.297  1.00  0.00     0.071 C 
ENDBRANCH  19  20
ENDBRANCH  18  19
ENDBRANCH  13  18
ENDBRANCH   1   8
BRANCH   4  26
HETATM   26  C   UNL     1       7.032  30.346  58.032  1.00  0.00     0.276 C 
BRANCH  26  27
HETATM   27  C   UNL     1       7.843  31.029  59.095  1.00  0.00     0.004 A 
HETATM   28  C   UNL     1       7.211  31.596  60.209  1.00  0.00     0.107 A 
HETATM   29  C   UNL     1       7.939  32.257  61.197  1.00  0.00     0.102 A 
HETATM   30  C   UNL     1       9.316  32.391  61.074  1.00  0.00     0.039 A 
HETATM   31  C   UNL     1       9.966  31.829  59.973  1.00  0.00     0.003 A 
HETATM   32  C   UNL     1       9.237  31.152  58.987  1.00  0.00     0.012 A 
BRANCH  28  33
HETATM   33  O   UNL     1       5.847  31.535  60.297  1.00  0.00    -0.357 OA
HETATM   34  H   UNL     1       5.522  32.461  60.297  1.00  0.00     0.218 HD
ENDBRANCH  28  33
BRANCH  29  35
HETATM   35  O   UNL     1       7.286  32.862  62.233  1.00  0.00    -0.349 OA
BRANCH  35  36
HETATM   36  C   UNL     1       7.864  32.503  63.497  1.00  0.00     0.171 C 
HETATM   37  C   UNL     1       7.422  33.521  64.529  1.00  0.00     0.034 C 
ENDBRANCH  35  36
ENDBRANCH  29  35
ENDBRANCH  26  27
ENDBRANCH   4  26
TORSDOF 10
ENDMDL
MODEL 5
REMARK VINA RESULT:      -8.1      3.420     10.736
REMARK  10 active torsions:
REMARK  status: ('A' for Active; 'I' for Inactive)
REMARK    1  A    between atoms: C_2  and  C_3 
REMARK    2  A    between atoms: C_3  and  C_4 
REMARK    3  A    between atoms: N_7  and  C_9 
REMARK    4  A    between atoms: C_9  and  C_10 
REMARK    5  A    between atoms: C_11  and  O_12 
REMARK    6  A    between atoms: C_13  and  O_14 
REMARK    7  A    between atoms: O_14  and  C_15 
REMARK    8  A    between atoms: N_25  and  C_26 
REMARK    9  A    between atoms: C_26  and  C_27 
REMARK   10  A    between atoms: C_27  and  C_28 
ROOT
HETATM    1  C   UNL     1       5.992  27.341  56.551  1.00  0.00     0.026 C 
HETATM    2  C   UNL     1       5.010  28.468  56.923  1.00  0.00     0.035 C 
HETATM    3  C   UNL     1       5.671  29.807  57.228  1.00  0.00     0.235 C 
HETATM    4  N   UNL     1       6.791  29.677  58.232  1.00  0.00    -0.067 N 
HETATM    5  H   UNL     1       6.383  29.445  59.146  1.00  0.00     0.280 HD
HETATM    6  C   UNL     1       7.774  28.577  57.913  1.00  0.00     0.235 C 
HETATM    7  C   UNL     1       7.051  27.266  57.665  1.00  0.00     0.035 C 
ENDROOT
BRANCH   1   8
HETATM    8  C   UNL     1       6.550  27.404  55.090  1.00  0.00     0.119 C 
HETATM    9  N   UNL     1       7.455  26.315  54.767  1.00  0.00    -0.324 N 
HETATM   10  C   UNL     1       7.075  25.654  53.617  1.00  0.00     0.326 C 
HETATM   11  H   UNL     1       8.458  26.347  54.910  1.00  0.00     0.165 HD
HETATM   12  O   UNL     1       7.803  24.865  53.041  1.00  0.00    -0.247 OA
HETATM   13  N   UNL     1       5.820  26.042  53.280  1.00  0.00    -0.268 N 
HETATM   14  C   UNL     1       5.434  27.102  54.055  1.00  0.00     0.256 C 
HETATM   15  O   UNL     1       4.384  27.721  53.967  1.00  0.00    -0.270 OA
BRANCH   8  16
HETATM   16  C   UNL     1       7.252  28.728  54.708  1.00  0.00     0.037 C 
HETATM   17  C   UNL     1       8.763  28.657  54.542  1.00  0.00     0.008 C 
ENDBRANCH   8  16
BRANCH  13  18
HETATM   18  C   UNL     1       5.102  25.580  52.100  1.00  0.00     0.142 C 
BRANCH  18  19
HETATM   19  C   UNL     1       5.693  26.114  50.790  1.00  0.00     0.068 C 
BRANCH  19  20
HETATM   20  C   UNL     1       4.776  27.096  50.129  1.00  0.00     0.010 A 
HETATM   21  S   UNL     1       4.774  28.747  50.604  1.00  0.00    -0.085 SA
HETATM   22  C   UNL     1       3.551  29.062  49.448  1.00  0.00     0.166 A 
HETATM   23  N   UNL     1       3.152  28.032  48.739  1.00  0.00    -0.258 NA
HETATM   24  C   UNL     1       3.843  26.896  49.122  1.00  0.00     0.044 A 
HETATM   25  C   UNL     1       3.525  25.616  48.433  1.00  0.00     0.071 C 
ENDBRANCH  19  20
ENDBRANCH  18  19
ENDBRANCH  13  18
ENDBRANCH   1   8
BRANCH   4  26
HETATM   26  C   UNL     1       7.468  31.042  58.405  1.00  0.00     0.276 C 
BRANCH  26  27
HETATM   27  C   UNL     1       7.943  31.379  59.790  1.00  0.00     0.004 A 
HETATM   28  C   UNL     1       7.020  31.676  60.800  1.00  0.00     0.107 A 
HETATM   29  C   UNL     1       7.436  32.014  62.086  1.00  0.00     0.102 A 
HETATM   30  C   UNL     1       8.791  32.094  62.380  1.00  0.00     0.039 A 
HETATM   31  C   UNL     1       9.728  31.798  61.388  1.00  0.00     0.003 A 
HETATM   32  C   UNL     1       9.310  31.443  60.099  1.00  0.00     0.012 A 
BRANCH  28  33
HETATM   33  O   UNL     1       5.685  31.674  60.497  1.00  0.00    -0.357 OA
HETATM   34  H   UNL     1       5.604  31.325  59.583  1.00  0.00     0.218 HD
ENDBRANCH  28  33
BRANCH  29  35
HETATM   35  O   UNL     1       6.513  32.370  63.029  1.00  0.00    -0.349 OA
BRANCH  35  36
HETATM   36  C   UNL     1       6.762  33.691  63.533  1.00  0.00     0.171 C 
HETATM   37  C   UNL     1       7.131  33.578  64.999  1.00  0.00     0.034 C 
ENDBRANCH  35  36
ENDBRANCH  29  35
ENDBRANCH  26  27
ENDBRANCH   4  26
TORSDOF 10
ENDMDL
MODEL 6
REMARK VINA RESULT:      -8.0      5.201     10.815
REMARK  10 active torsions:
REMARK  status: ('A' for Active; 'I' for Inactive)
REMARK    1  A    between atoms: C_2  and  C_3 
REMARK    2  A    between atoms: C_3  and  C_4 
REMARK    3  A    between atoms: N_7  and  C_9 
REMARK    4  A    between atoms: C_9  and  C_10 
REMARK    5  A    between atoms: C_11  and  O_12 
REMARK    6  A    between atoms: C_13  and  O_14 
REMARK    7  A    between atoms: O_14  and  C_15 
REMARK    8  A    between atoms: N_25  and  C_26 
REMARK    9  A    between atoms: C_26  and  C_27 
REMARK   10  A    between atoms: C_27  and  C_28 
ROOT
HETATM    1  C   UNL     1       5.738  30.427  56.447  1.00  0.00     0.026 C 
HETATM    2  C   UNL     1       6.189  31.547  57.403  1.00  0.00     0.035 C 
HETATM    3  C   UNL     1       5.447  31.578  58.734  1.00  0.00     0.235 C 
HETATM    4  N   UNL     1       3.949  31.558  58.554  1.00  0.00    -0.067 N 
HETATM    5  H   UNL     1       3.658  32.453  58.143  1.00  0.00     0.280 HD
HETATM    6  C   UNL     1       3.460  30.482  57.617  1.00  0.00     0.235 C 
HETATM    7  C   UNL     1       4.210  30.536  56.298  1.00  0.00     0.035 C 
ENDROOT
BRANCH   1   8
HETATM    8  C   UNL     1       6.284  29.001  56.791  1.00  0.00     0.119 C 
HETATM    9  N   UNL     1       5.284  28.120  57.367  1.00  0.00    -0.324 N 
HETATM   10  C   UNL     1       5.200  26.923  56.685  1.00  0.00     0.326 C 
HETATM   11  H   UNL     1       5.098  28.041  58.361  1.00  0.00     0.165 HD
HETATM   12  O   UNL     1       4.599  25.958  57.123  1.00  0.00    -0.247 OA
HETATM   13  N   UNL     1       5.882  27.031  55.519  1.00  0.00    -0.268 N 
HETATM   14  C   UNL     1       6.596  28.198  55.501  1.00  0.00     0.256 C 
HETATM   15  O   UNL     1       7.357  28.570  54.620  1.00  0.00    -0.270 OA
BRANCH   8  16
HETATM   16  C   UNL     1       7.523  28.974  57.718  1.00  0.00     0.037 C 
HETATM   17  C   UNL     1       8.722  28.191  57.205  1.00  0.00     0.008 C 
ENDBRANCH   8  16
BRANCH  13  18
HETATM   18  C   UNL     1       6.043  25.952  54.554  1.00  0.00     0.142 C 
BRANCH  18  19
HETATM   19  C   UNL     1       7.507  25.538  54.355  1.00  0.00     0.068 C 
BRANCH  19  20
HETATM   20  C   UNL     1       7.827  24.272  55.086  1.00  0.00     0.010 A 
HETATM   21  S   UNL     1       8.113  24.288  56.780  1.00  0.00    -0.085 SA
HETATM   22  C   UNL     1       8.376  22.598  56.738  1.00  0.00     0.166 A 
HETATM   23  N   UNL     1       8.265  22.029  55.560  1.00  0.00    -0.258 NA
HETATM   24  C   UNL     1       7.954  22.978  54.602  1.00  0.00     0.044 A 
HETATM   25  C   UNL     1       7.791  22.525  53.194  1.00  0.00     0.071 C 
ENDBRANCH  19  20
ENDBRANCH  18  19
ENDBRANCH  13  18
ENDBRANCH   1   8
BRANCH   4  26
HETATM   26  C   UNL     1       3.281  31.488  59.933  1.00  0.00     0.276 C 
BRANCH  26  27
HETATM   27  C   UNL     1       3.691  32.537  60.927  1.00  0.00     0.004 A 
HETATM   28  C   UNL     1       4.152  32.164  62.196  1.00  0.00     0.107 A 
HETATM   29  C   UNL     1       4.516  33.119  63.144  1.00  0.00     0.102 A 
HETATM   30  C   UNL     1       4.396  34.471  62.851  1.00  0.00     0.039 A 
HETATM   31  C   UNL     1       3.942  34.863  61.589  1.00  0.00     0.003 A 
HETATM   32  C   UNL     1       3.590  33.904  60.631  1.00  0.00     0.012 A 
BRANCH  28  33
HETATM   33  O   UNL     1       4.199  30.835  62.518  1.00  0.00    -0.357 OA
HETATM   34  H   UNL     1       4.124  30.338  61.675  1.00  0.00     0.218 HD
ENDBRANCH  28  33
BRANCH  29  35
HETATM   35  O   UNL     1       4.891  32.724  64.397  1.00  0.00    -0.349 OA
BRANCH  35  36
HETATM   36  C   UNL     1       5.605  33.766  65.081  1.00  0.00     0.171 C 
HETATM   37  C   UNL     1       7.081  33.420  65.066  1.00  0.00     0.034 C 
ENDBRANCH  35  36
ENDBRANCH  29  35
ENDBRANCH  26  27
ENDBRANCH   4  26
TORSDOF 10
ENDMDL
MODEL 7
REMARK VINA RESULT:      -7.7      3.922      9.209
REMARK  10 active torsions:
REMARK  status: ('A' for Active; 'I' for Inactive)
REMARK    1  A    between atoms: C_2  and  C_3 
REMARK    2  A    between atoms: C_3  and  C_4 
REMARK    3  A    between atoms: N_7  and  C_9 
REMARK    4  A    between atoms: C_9  and  C_10 
REMARK    5  A    between atoms: C_11  and  O_12 
REMARK    6  A    between atoms: C_13  and  O_14 
REMARK    7  A    between atoms: O_14  and  C_15 
REMARK    8  A    between atoms: N_25  and  C_26 
REMARK    9  A    between atoms: C_26  and  C_27 
REMARK   10  A    between atoms: C_27  and  C_28 
ROOT
HETATM    1  C   UNL     1       3.282  29.585  52.918  1.00  0.00     0.026 C 
HETATM    2  C   UNL     1       3.842  29.584  54.353  1.00  0.00     0.035 C 
HETATM    3  C   UNL     1       5.281  29.097  54.469  1.00  0.00     0.235 C 
HETATM    4  N   UNL     1       5.495  27.772  53.777  1.00  0.00    -0.067 N 
HETATM    5  H   UNL     1       4.996  27.046  54.305  1.00  0.00     0.280 HD
HETATM    6  C   UNL     1       4.952  27.722  52.370  1.00  0.00     0.235 C 
HETATM    7  C   UNL     1       3.505  28.177  52.335  1.00  0.00     0.035 C 
ENDROOT
BRANCH   1   8
HETATM    8  C   UNL     1       3.762  30.773  52.020  1.00  0.00     0.119 C 
HETATM    9  N   UNL     1       5.187  30.751  51.740  1.00  0.00    -0.324 N 
HETATM   10  C   UNL     1       5.446  30.823  50.386  1.00  0.00     0.326 C 
HETATM   11  H   UNL     1       5.887  31.201  52.318  1.00  0.00     0.165 HD
HETATM   12  O   UNL     1       6.558  31.045  49.941  1.00  0.00    -0.247 OA
HETATM   13  N   UNL     1       4.292  30.620  49.705  1.00  0.00    -0.268 N 
HETATM   14  C   UNL     1       3.231  30.624  50.570  1.00  0.00     0.256 C 
HETATM   15  O   UNL     1       2.051  30.522  50.270  1.00  0.00    -0.270 OA
BRANCH   8  16
HETATM   16  C   UNL     1       3.409  32.184  52.547  1.00  0.00     0.037 C 
HETATM   17  C   UNL     1       4.564  32.986  53.129  1.00  0.00     0.008 C 
ENDBRANCH   8  16
BRANCH  13  18
HETATM   18  C   UNL     1       4.172  30.660  48.254  1.00  0.00     0.142 C 
BRANCH  18  19
HETATM   19  C   UNL     1       4.454  29.307  47.590  1.00  0.00     0.068 C 
BRANCH  19  20
HETATM   20  C   UNL     1       3.261  28.405  47.642  1.00  0.00     0.010 A 
HETATM   21  S   UNL     1       1.770  28.887  46.938  1.00  0.00    -0.085 SA
HETATM   22  C   UNL     1       1.073  27.404  47.434  1.00  0.00     0.166 A 
HETATM   23  N   UNL     1       1.869  26.584  48.080  1.00  0.00    -0.258 NA
HETATM   24  C   UNL     1       3.127  27.147  48.210  1.00  0.00     0.044 A 
HETATM   25  C   UNL     1       4.174  26.366  48.922  1.00  0.00     0.071 C 
ENDBRANCH  19  20
ENDBRANCH  18  19
ENDBRANCH  13  18
ENDBRANCH   1   8
BRANCH   4  26
HETATM   26  C   UNL     1       6.982  27.404  53.850  1.00  0.00     0.276 C 
BRANCH  26  27
HETATM   27  C   UNL     1       7.325  26.175  54.644  1.00  0.00     0.004 A 
HETATM   28  C   UNL     1       7.216  24.906  54.061  1.00  0.00     0.107 A 
HETATM   29  C   UNL     1       7.506  23.750  54.784  1.00  0.00     0.102 A 
HETATM   30  C   UNL     1       7.881  23.839  56.118  1.00  0.00     0.039 A 
HETATM   31  C   UNL     1       7.999  25.096  56.716  1.00  0.00     0.003 A 
HETATM   32  C   UNL     1       7.723  26.259  55.987  1.00  0.00     0.012 A 
BRANCH  28  33
HETATM   33  O   UNL     1       6.773  24.808  52.770  1.00  0.00    -0.357 OA
HETATM   34  H   UNL     1       5.834  24.527  52.815  1.00  0.00     0.218 HD
ENDBRANCH  28  33
BRANCH  29  35
HETATM   35  O   UNL     1       7.320  22.524  54.209  1.00  0.00    -0.349 OA
BRANCH  35  36
HETATM   36  C   UNL     1       8.563  21.964  53.759  1.00  0.00     0.171 C 
HETATM   37  C   UNL     1       8.258  20.720  52.949  1.00  0.00     0.034 C 
ENDBRANCH  35  36
ENDBRANCH  29  35
ENDBRANCH  26  27
ENDBRANCH   4  26
TORSDOF 10
ENDMDL
MODEL 8
REMARK VINA RESULT:      -7.7      3.728      8.173
REMARK  10 active torsions:
REMARK  status: ('A' for Active; 'I' for Inactive)
REMARK    1  A    between atoms: C_2  and  C_3 
REMARK    2  A    between atoms: C_3  and  C_4 
REMARK    3  A    between atoms: N_7  and  C_9 
REMARK    4  A    between atoms: C_9  and  C_10 
REMARK    5  A    between atoms: C_11  and  O_12 
REMARK    6  A    between atoms: C_13  and  O_14 
REMARK    7  A    between atoms: O_14  and  C_15 
REMARK    8  A    between atoms: N_25  and  C_26 
REMARK    9  A    between atoms: C_26  and  C_27 
REMARK   10  A    between atoms: C_27  and  C_28 
ROOT
HETATM    1  C   UNL     1       4.453  27.870  47.988  1.00  0.00     0.026 C 
HETATM    2  C   UNL     1       4.532  26.378  48.363  1.00  0.00     0.035 C 
HETATM    3  C   UNL     1       4.527  26.103  49.862  1.00  0.00     0.235 C 
HETATM    4  N   UNL     1       5.555  26.926  50.599  1.00  0.00    -0.067 N 
HETATM    5  H   UNL     1       6.490  26.589  50.338  1.00  0.00     0.280 HD
HETATM    6  C   UNL     1       5.522  28.395  50.256  1.00  0.00     0.235 C 
HETATM    7  C   UNL     1       5.575  28.597  48.752  1.00  0.00     0.035 C 
ENDROOT
BRANCH   1   8
HETATM    8  C   UNL     1       3.030  28.509  48.106  1.00  0.00     0.119 C 
HETATM    9  N   UNL     1       2.310  28.107  49.302  1.00  0.00    -0.324 N 
HETATM   10  C   UNL     1       1.857  29.197  50.019  1.00  0.00     0.326 C 
HETATM   11  H   UNL     1       1.704  27.297  49.357  1.00  0.00     0.165 HD
HETATM   12  O   UNL     1       1.046  29.097  50.922  1.00  0.00    -0.247 OA
HETATM   13  N   UNL     1       2.449  30.317  49.540  1.00  0.00    -0.268 N 
HETATM   14  C   UNL     1       3.125  30.032  48.384  1.00  0.00     0.256 C 
HETATM   15  O   UNL     1       3.718  30.831  47.675  1.00  0.00    -0.270 OA
BRANCH   8  16
HETATM   16  C   UNL     1       2.097  28.271  46.895  1.00  0.00     0.037 C 
HETATM   17  C   UNL     1       1.039  27.192  47.072  1.00  0.00     0.008 C 
ENDBRANCH   8  16
BRANCH  13  18
HETATM   18  C   UNL     1       2.185  31.664  50.028  1.00  0.00     0.142 C 
BRANCH  18  19
HETATM   19  C   UNL     1       3.309  32.211  50.917  1.00  0.00     0.068 C 
BRANCH  19  20
HETATM   20  C   UNL     1       2.927  32.195  52.364  1.00  0.00     0.010 A 
HETATM   21  S   UNL     1       2.045  33.500  53.050  1.00  0.00    -0.085 SA
HETATM   22  C   UNL     1       2.072  32.702  54.565  1.00  0.00     0.166 A 
HETATM   23  N   UNL     1       2.684  31.541  54.591  1.00  0.00    -0.258 NA
HETATM   24  C   UNL     1       3.183  31.240  53.336  1.00  0.00     0.044 A 
HETATM   25  C   UNL     1       3.920  29.958  53.165  1.00  0.00     0.071 C 
ENDBRANCH  19  20
ENDBRANCH  18  19
ENDBRANCH  13  18
ENDBRANCH   1   8
BRANCH   4  26
HETATM   26  C   UNL     1       5.417  26.668  52.104  1.00  0.00     0.276 C 
BRANCH  26  27
HETATM   27  C   UNL     1       6.278  25.579  52.676  1.00  0.00     0.004 A 
HETATM   28  C   UNL     1       6.097  25.157  53.999  1.00  0.00     0.107 A 
HETATM   29  C   UNL     1       6.900  24.165  54.560  1.00  0.00     0.102 A 
HETATM   30  C   UNL     1       7.924  23.595  53.815  1.00  0.00     0.039 A 
HETATM   31  C   UNL     1       8.118  23.999  52.492  1.00  0.00     0.003 A 
HETATM   32  C   UNL     1       7.303  24.985  51.923  1.00  0.00     0.012 A 
BRANCH  28  33
HETATM   33  O   UNL     1       5.141  25.770  54.763  1.00  0.00    -0.357 OA
HETATM   34  H   UNL     1       5.447  26.689  54.916  1.00  0.00     0.218 HD
ENDBRANCH  28  33
BRANCH  29  35
HETATM   35  O   UNL     1       6.745  23.828  55.875  1.00  0.00    -0.349 OA
BRANCH  35  36
HETATM   36  C   UNL     1       7.861  24.271  56.663  1.00  0.00     0.171 C 
HETATM   37  C   UNL     1       7.421  25.471  57.478  1.00  0.00     0.034 C 
ENDBRANCH  35  36
ENDBRANCH  29  35
ENDBRANCH  26  27
ENDBRANCH   4  26
TORSDOF 10
ENDMDL
MODEL 9
REMARK VINA RESULT:      -7.7      5.377      7.831
REMARK  10 active torsions:
REMARK  status: ('A' for Active; 'I' for Inactive)
REMARK    1  A    between atoms: C_2  and  C_3 
REMARK    2  A    between atoms: C_3  and  C_4 
REMARK    3  A    between atoms: N_7  and  C_9 
REMARK    4  A    between atoms: C_9  and  C_10 
REMARK    5  A    between atoms: C_11  and  O_12 
REMARK    6  A    between atoms: C_13  and  O_14 
REMARK    7  A    between atoms: O_14  and  C_15 
REMARK    8  A    between atoms: N_25  and  C_26 
REMARK    9  A    between atoms: C_26  and  C_27 
REMARK   10  A    between atoms: C_27  and  C_28 
ROOT
HETATM    1  C   UNL     1       4.193  29.574  56.301  1.00  0.00     0.026 C 
HETATM    2  C   UNL     1       4.388  28.180  56.926  1.00  0.00     0.035 C 
HETATM    3  C   UNL     1       5.727  27.526  56.606  1.00  0.00     0.235 C 
HETATM    4  N   UNL     1       6.027  27.529  55.127  1.00  0.00    -0.067 N 
HETATM    5  H   UNL     1       5.375  26.886  54.661  1.00  0.00     0.280 HD
HETATM    6  C   UNL     1       5.839  28.874  54.468  1.00  0.00     0.235 C 
HETATM    7  C   UNL     1       4.472  29.446  54.792  1.00  0.00     0.035 C 
ENDROOT
BRANCH   1   8
HETATM    8  C   UNL     1       4.942  30.738  57.031  1.00  0.00     0.119 C 
HETATM    9  N   UNL     1       5.315  31.831  56.149  1.00  0.00    -0.324 N 
HETATM   10  C   UNL     1       4.867  33.048  56.622  1.00  0.00     0.326 C 
HETATM   11  H   UNL     1       6.194  31.883  55.647  1.00  0.00     0.165 HD
HETATM   12  O   UNL     1       5.254  34.111  56.170  1.00  0.00    -0.247 OA
HETATM   13  N   UNL     1       3.981  32.833  57.624  1.00  0.00    -0.268 N 
HETATM   14  C   UNL     1       3.985  31.510  57.976  1.00  0.00     0.256 C 
HETATM   15  O   UNL     1       3.342  30.998  58.880  1.00  0.00    -0.270 OA
BRANCH   8  16
HETATM   16  C   UNL     1       6.206  30.319  57.819  1.00  0.00     0.037 C 
HETATM   17  C   UNL     1       6.817  31.387  58.715  1.00  0.00     0.008 C 
ENDBRANCH   8  16
BRANCH  13  18
HETATM   18  C   UNL     1       3.327  33.886  58.389  1.00  0.00     0.142 C 
BRANCH  18  19
HETATM   19  C   UNL     1       4.176  34.395  59.559  1.00  0.00     0.068 C 
BRANCH  19  20
HETATM   20  C   UNL     1       3.506  34.153  60.876  1.00  0.00     0.010 A 
HETATM   21  S   UNL     1       2.092  35.025  61.310  1.00  0.00    -0.085 SA
HETATM   22  C   UNL     1       2.052  34.187  62.803  1.00  0.00     0.166 A 
HETATM   23  N   UNL     1       3.010  33.310  62.995  1.00  0.00    -0.258 NA
HETATM   24  C   UNL     1       3.855  33.283  61.898  1.00  0.00     0.044 A 
HETATM   25  C   UNL     1       5.012  32.349  61.930  1.00  0.00     0.071 C 
ENDBRANCH  19  20
ENDBRANCH  18  19
ENDBRANCH  13  18
ENDBRANCH   1   8
BRANCH   4  26
HETATM   26  C   UNL     1       7.429  26.951  54.899  1.00  0.00     0.276 C 
BRANCH  26  27
HETATM   27  C   UNL     1       7.492  25.568  54.314  1.00  0.00     0.004 A 
HETATM   28  C   UNL     1       7.339  24.446  55.139  1.00  0.00     0.107 A 
HETATM   29  C   UNL     1       7.418  23.153  54.625  1.00  0.00     0.102 A 
HETATM   30  C   UNL     1       7.683  22.955  53.276  1.00  0.00     0.039 A 
HETATM   31  C   UNL     1       7.835  24.061  52.437  1.00  0.00     0.003 A 
HETATM   32  C   UNL     1       7.741  25.361  52.949  1.00  0.00     0.012 A 
BRANCH  28  33
HETATM   33  O   UNL     1       7.155  24.634  56.482  1.00  0.00    -0.357 OA
HETATM   34  H   UNL     1       7.325  25.583  56.661  1.00  0.00     0.218 HD
ENDBRANCH  28  33
BRANCH  29  35
HETATM   35  O   UNL     1       7.338  22.080  55.468  1.00  0.00    -0.349 OA
BRANCH  35  36
HETATM   36  C   UNL     1       8.642  21.631  55.868  1.00  0.00     0.171 C 
HETATM   37  C   UNL     1       8.641  20.116  55.876  1.00  0.00     0.034 C 
ENDBRANCH  35  36
ENDBRANCH  29  35
ENDBRANCH  26  27
ENDBRANCH   4  26
TORSDOF 10
ENDMDL
MODEL 10
REMARK VINA RESULT:      -7.7      4.137      9.065
REMARK  10 active torsions:
REMARK  status: ('A' for Active; 'I' for Inactive)
REMARK    1  A    between atoms: C_2  and  C_3 
REMARK    2  A    between atoms: C_3  and  C_4 
REMARK    3  A    between atoms: N_7  and  C_9 
REMARK    4  A    between atoms: C_9  and  C_10 
REMARK    5  A    between atoms: C_11  and  O_12 
REMARK    6  A    between atoms: C_13  and  O_14 
REMARK    7  A    between atoms: O_14  and  C_15 
REMARK    8  A    between atoms: N_25  and  C_26 
REMARK    9  A    between atoms: C_26  and  C_27 
REMARK   10  A    between atoms: C_27  and  C_28 
ROOT
HETATM    1  C   UNL     1       4.184  27.352  47.700  1.00  0.00     0.026 C 
HETATM    2  C   UNL     1       4.416  25.955  48.303  1.00  0.00     0.035 C 
HETATM    3  C   UNL     1       4.532  25.933  49.823  1.00  0.00     0.235 C 
HETATM    4  N   UNL     1       5.530  26.943  50.335  1.00  0.00    -0.067 N 
HETATM    5  H   UNL     1       6.472  26.638  50.060  1.00  0.00     0.280 HD
HETATM    6  C   UNL     1       5.348  28.327  49.763  1.00  0.00     0.235 C 
HETATM    7  C   UNL     1       5.285  28.279  48.248  1.00  0.00     0.035 C 
ENDROOT
BRANCH   1   8
HETATM    8  C   UNL     1       2.721  27.893  47.825  1.00  0.00     0.119 C 
HETATM    9  N   UNL     1       2.241  27.961  49.194  1.00  0.00    -0.324 N 
HETATM   10  C   UNL     1       1.757  29.215  49.508  1.00  0.00     0.326 C 
HETATM   11  H   UNL     1       1.761  27.204  49.668  1.00  0.00     0.165 HD
HETATM   12  O   UNL     1       1.105  29.435  50.513  1.00  0.00    -0.247 OA
HETATM   13  N   UNL     1       2.121  30.084  48.534  1.00  0.00    -0.268 N 
HETATM   14  C   UNL     1       2.654  29.403  47.474  1.00  0.00     0.256 C 
HETATM   15  O   UNL     1       3.028  29.885  46.415  1.00  0.00    -0.270 OA
BRANCH   8  16
HETATM   16  C   UNL     1       1.662  27.131  46.994  1.00  0.00     0.037 C 
HETATM   17  C   UNL     1       0.362  27.875  46.728  1.00  0.00     0.008 C 
ENDBRANCH   8  16
BRANCH  13  18
HETATM   18  C   UNL     1       1.755  31.494  48.507  1.00  0.00     0.142 C 
BRANCH  18  19
HETATM   19  C   UNL     1       2.798  32.398  49.177  1.00  0.00     0.068 C 
BRANCH  19  20
HETATM   20  C   UNL     1       3.896  32.770  48.231  1.00  0.00     0.010 A 
HETATM   21  S   UNL     1       3.541  33.535  46.735  1.00  0.00    -0.085 SA
HETATM   22  C   UNL     1       5.213  33.566  46.370  1.00  0.00     0.166 A 
HETATM   23  N   UNL     1       6.009  33.052  47.279  1.00  0.00    -0.258 NA
HETATM   24  C   UNL     1       5.266  32.588  48.352  1.00  0.00     0.044 A 
HETATM   25  C   UNL     1       5.994  31.962  49.488  1.00  0.00     0.071 C 
ENDBRANCH  19  20
ENDBRANCH  18  19
ENDBRANCH  13  18
ENDBRANCH   1   8
BRANCH   4  26
HETATM   26  C   UNL     1       5.513  26.930  51.868  1.00  0.00     0.276 C 
BRANCH  26  27
HETATM   27  C   UNL     1       6.268  25.815  52.534  1.00  0.00     0.004 A 
HETATM   28  C   UNL     1       5.964  25.445  53.851  1.00  0.00     0.107 A 
HETATM   29  C   UNL     1       6.666  24.431  54.498  1.00  0.00     0.102 A 
HETATM   30  C   UNL     1       7.712  23.785  53.851  1.00  0.00     0.039 A 
HETATM   31  C   UNL     1       8.028  24.137  52.537  1.00  0.00     0.003 A 
HETATM   32  C   UNL     1       7.313  25.146  51.880  1.00  0.00     0.012 A 
BRANCH  28  33
HETATM   33  O   UNL     1       4.986  26.130  54.520  1.00  0.00    -0.357 OA
HETATM   34  H   UNL     1       4.165  26.039  53.991  1.00  0.00     0.218 HD
ENDBRANCH  28  33
BRANCH  29  35
HETATM   35  O   UNL     1       6.394  24.143  55.807  1.00  0.00    -0.349 OA
BRANCH  35  36
HETATM   36  C   UNL     1       7.549  24.339  56.636  1.00  0.00     0.171 C 
HETATM   37  C   UNL     1       7.375  25.641  57.393  1.00  0.00     0.034 C 
ENDBRANCH  35  36
ENDBRANCH  29  35
ENDBRANCH  26  27
ENDBRANCH   4  26
TORSDOF 10
ENDMDL
