MODEL 1
REMARK VINA RESULT:     -10.9      0.000      0.000
REMARK  8 active torsions:
REMARK  status: ('A' for Active; 'I' for Inactive)
REMARK    1  A    between atoms: C_4  and  S_5 
REMARK    2  A    between atoms: S_5  and  C_6 
REMARK    3  A    between atoms: C_6  and  C_7 
REMARK       I    between atoms: C_7  and  N_8 
REMARK    4  A    between atoms: N_8  and  C_9 
REMARK    5  A    between atoms: C_20  and  C_21 
REMARK    6  A    between atoms: C_27  and  C_28 
REMARK       I    between atoms: C_28  and  N_29 
REMARK    7  A    between atoms: N_29  and  C_30 
REMARK    8  A    between atoms: C_31  and  O_32 
ROOT
HETATM    1  C   UNL     1       4.870  32.784  57.368  1.00  0.00     0.069 C 
HETATM    2  C   UNL     1       5.444  31.388  57.392  1.00  0.00     0.019 C 
HETATM    3  N   UNL     1       4.968  30.531  56.413  1.00  0.00    -0.353 N 
HETATM    4  C   UNL     1       5.200  29.170  56.362  1.00  0.00     0.087 C 
HETATM    5  C   UNL     1       6.090  28.634  57.229  1.00  0.00     0.055 C 
HETATM    6  C   UNL     1       6.284  27.133  57.367  1.00  0.00     0.019 C 
HETATM    7  N   UNL     1       6.445  25.888  57.482  1.00  0.00    -0.096 N 
HETATM    8  C   UNL     1       6.962  29.541  58.097  1.00  0.00     0.104 C 
HETATM    9  C   UNL     1       6.399  30.955  58.255  1.00  0.00     0.046 C 
HETATM   10  H   UNL     1       4.261  30.880  55.772  1.00  0.00     0.166 HD
ENDROOT
BRANCH   4  11
HETATM   11  S   UNL     1       4.489  28.238  55.066  1.00  0.00    -0.102 SA
BRANCH  11  12
HETATM   12  C   UNL     1       5.924  27.683  54.093  1.00  0.00     0.184 C 
BRANCH  12  13
HETATM   13  C   UNL     1       5.911  26.163  53.880  1.00  0.00     0.231 C 
HETATM   14  N   UNL     1       7.091  25.526  54.225  1.00  0.00    -0.326 N 
HETATM   15  H   UNL     1       7.840  26.147  54.516  1.00  0.00     0.169 HD
HETATM   16  O   UNL     1       4.891  25.609  53.475  1.00  0.00    -0.272 OA
BRANCH  14  17
HETATM   17  C   UNL     1       7.420  24.161  54.130  1.00  0.00     0.036 A 
HETATM   18  C   UNL     1       7.427  23.279  55.209  1.00  0.00     0.053 A 
HETATM   19  C   UNL     1       7.759  21.935  55.007  1.00  0.00     0.036 A 
HETATM   20 CL   UNL     1       7.770  20.847  56.342  1.00  0.00    -0.084 Cl
HETATM   21  C   UNL     1       8.080  21.460  53.737  1.00  0.00     0.024 A 
HETATM   22  C   UNL     1       8.076  22.336  52.656  1.00  0.00     0.004 A 
HETATM   23  C   UNL     1       7.751  23.680  52.854  1.00  0.00     0.029 A 
ENDBRANCH  14  17
ENDBRANCH  12  13
ENDBRANCH  11  12
ENDBRANCH   4  11
BRANCH   8  24
HETATM   24  C   UNL     1       8.379  29.543  57.497  1.00  0.00    -0.044 A 
HETATM   25  C   UNL     1       9.508  29.831  58.290  1.00  0.00     0.008 A 
HETATM   26  C   UNL     1      10.782  29.899  57.727  1.00  0.00     0.001 A 
HETATM   27  C   UNL     1      10.952  29.692  56.362  1.00  0.00     0.000 A 
HETATM   28  C   UNL     1       9.846  29.419  55.559  1.00  0.00     0.001 A 
HETATM   29  C   UNL     1       8.567  29.345  56.119  1.00  0.00     0.008 A 
ENDBRANCH   8  24
BRANCH   9  30
HETATM   30  C   UNL     1       6.874  31.843  59.375  1.00  0.00     0.255 C 
HETATM   31  N   UNL     1       6.117  31.816  60.528  1.00  0.00    -0.321 N 
HETATM   32  H   UNL     1       5.169  31.480  60.496  1.00  0.00     0.169 HD
HETATM   33  O   UNL     1       7.810  32.619  59.187  1.00  0.00    -0.268 OA
BRANCH  31  34
HETATM   34  C   UNL     1       6.498  32.433  61.744  1.00  0.00     0.068 A 
HETATM   35  C   UNL     1       7.456  31.885  62.623  1.00  0.00     0.095 A 
HETATM   36  C   UNL     1       7.793  32.593  63.783  1.00  0.00     0.039 A 
HETATM   37  C   UNL     1       7.165  33.804  64.085  1.00  0.00     0.003 A 
HETATM   38  C   UNL     1       6.175  34.307  63.248  1.00  0.00     0.002 A 
HETATM   39  C   UNL     1       5.829  33.614  62.088  1.00  0.00     0.032 A 
BRANCH  35  40
HETATM   40  O   UNL     1       7.910  30.623  62.337  1.00  0.00    -0.354 OA
HETATM   41  C   UNL     1       9.261  30.481  61.926  1.00  0.00     0.210 C 
ENDBRANCH  35  40
ENDBRANCH  31  34
ENDBRANCH   9  30
TORSDOF 8
ENDMDL
MODEL 2
REMARK VINA RESULT:     -10.6      1.417      1.671
REMARK  8 active torsions:
REMARK  status: ('A' for Active; 'I' for Inactive)
REMARK    1  A    between atoms: C_4  and  S_5 
REMARK    2  A    between atoms: S_5  and  C_6 
REMARK    3  A    between atoms: C_6  and  C_7 
REMARK       I    between atoms: C_7  and  N_8 
REMARK    4  A    between atoms: N_8  and  C_9 
REMARK    5  A    between atoms: C_20  and  C_21 
REMARK    6  A    between atoms: C_27  and  C_28 
REMARK       I    between atoms: C_28  and  N_29 
REMARK    7  A    between atoms: N_29  and  C_30 
REMARK    8  A    between atoms: C_31  and  O_32 
ROOT
HETATM    1  C   UNL     1       4.258  31.839  55.351  1.00  0.00     0.069 C 
HETATM    2  C   UNL     1       5.000  30.626  55.858  1.00  0.00     0.019 C 
HETATM    3  N   UNL     1       5.002  29.531  55.010  1.00  0.00    -0.353 N 
HETATM    4  C   UNL     1       5.443  28.264  55.342  1.00  0.00     0.087 C 
HETATM    5  C   UNL     1       6.077  28.092  56.525  1.00  0.00     0.055 C 
HETATM    6  C   UNL     1       6.444  26.715  57.054  1.00  0.00     0.019 C 
HETATM    7  N   UNL     1       6.748  25.573  57.494  1.00  0.00    -0.096 N 
HETATM    8  C   UNL     1       6.474  29.301  57.369  1.00  0.00     0.104 C 
HETATM    9  C   UNL     1       5.681  30.565  57.032  1.00  0.00     0.046 C 
HETATM   10  H   UNL     1       4.493  29.602  54.132  1.00  0.00     0.166 HD
ENDROOT
BRANCH   4  11
HETATM   11  S   UNL     1       5.338  26.991  54.150  1.00  0.00    -0.102 SA
BRANCH  11  12
HETATM   12  C   UNL     1       6.939  27.070  53.288  1.00  0.00     0.184 C 
BRANCH  12  13
HETATM   13  C   UNL     1       7.565  25.678  53.125  1.00  0.00     0.231 C 
HETATM   14  N   UNL     1       7.110  24.736  54.031  1.00  0.00    -0.326 N 
HETATM   15  H   UNL     1       6.468  25.093  54.731  1.00  0.00     0.169 HD
HETATM   16  O   UNL     1       8.367  25.470  52.217  1.00  0.00    -0.272 OA
BRANCH  14  17
HETATM   17  C   UNL     1       7.493  23.389  54.173  1.00  0.00     0.036 A 
HETATM   18  C   UNL     1       7.766  22.775  55.395  1.00  0.00     0.053 A 
HETATM   19  C   UNL     1       8.128  21.425  55.429  1.00  0.00     0.036 A 
HETATM   20 CL   UNL     1       8.468  20.668  56.939  1.00  0.00    -0.084 Cl
HETATM   21  C   UNL     1       8.217  20.677  54.257  1.00  0.00     0.024 A 
HETATM   22  C   UNL     1       7.948  21.284  53.034  1.00  0.00     0.004 A 
HETATM   23  C   UNL     1       7.591  22.634  52.994  1.00  0.00     0.029 A 
ENDBRANCH  14  17
ENDBRANCH  12  13
ENDBRANCH  11  12
ENDBRANCH   4  11
BRANCH   8  24
HETATM   24  C   UNL     1       7.991  29.507  57.211  1.00  0.00    -0.044 A 
HETATM   25  C   UNL     1       8.782  29.971  58.282  1.00  0.00     0.008 A 
HETATM   26  C   UNL     1      10.143  30.220  58.113  1.00  0.00     0.001 A 
HETATM   27  C   UNL     1      10.739  30.024  56.872  1.00  0.00     0.000 A 
HETATM   28  C   UNL     1       9.970  29.578  55.797  1.00  0.00     0.001 A 
HETATM   29  C   UNL     1       8.606  29.321  55.962  1.00  0.00     0.008 A 
ENDBRANCH   8  24
BRANCH   9  30
HETATM   30  C   UNL     1       5.629  31.715  58.003  1.00  0.00     0.255 C 
HETATM   31  N   UNL     1       4.978  31.469  59.194  1.00  0.00    -0.321 N 
HETATM   32  H   UNL     1       4.330  30.701  59.260  1.00  0.00     0.169 HD
HETATM   33  O   UNL     1       6.046  32.822  57.666  1.00  0.00    -0.268 OA
BRANCH  31  34
HETATM   34  C   UNL     1       4.981  32.352  60.300  1.00  0.00     0.068 A 
HETATM   35  C   UNL     1       6.101  32.541  61.137  1.00  0.00     0.095 A 
HETATM   36  C   UNL     1       6.017  33.468  62.182  1.00  0.00     0.039 A 
HETATM   37  C   UNL     1       4.831  34.169  62.417  1.00  0.00     0.003 A 
HETATM   38  C   UNL     1       3.710  33.931  61.630  1.00  0.00     0.002 A 
HETATM   39  C   UNL     1       3.778  33.012  60.583  1.00  0.00     0.032 A 
BRANCH  35  40
HETATM   40  O   UNL     1       7.170  31.705  60.940  1.00  0.00    -0.354 OA
HETATM   41  C   UNL     1       7.840  31.203  62.086  1.00  0.00     0.210 C 
ENDBRANCH  35  40
ENDBRANCH  31  34
ENDBRANCH   9  30
TORSDOF 8
ENDMDL
MODEL 3
REMARK VINA RESULT:     -10.3      1.776      2.462
REMARK  8 active torsions:
REMARK  status: ('A' for Active; 'I' for Inactive)
REMARK    1  A    between atoms: C_4  and  S_5 
REMARK    2  A    between atoms: S_5  and  C_6 
REMARK    3  A    between atoms: C_6  and  C_7 
REMARK       I    between atoms: C_7  and  N_8 
REMARK    4  A    between atoms: N_8  and  C_9 
REMARK    5  A    between atoms: C_20  and  C_21 
REMARK    6  A    between atoms: C_27  and  C_28 
REMARK       I    between atoms: C_28  and  N_29 
REMARK    7  A    between atoms: N_29  and  C_30 
REMARK    8  A    between atoms: C_31  and  O_32 
ROOT
HETATM    1  C   UNL     1       4.303  32.001  55.389  1.00  0.00     0.069 C 
HETATM    2  C   UNL     1       5.011  30.768  55.898  1.00  0.00     0.019 C 
HETATM    3  N   UNL     1       4.965  29.666  55.060  1.00  0.00    -0.353 N 
HETATM    4  C   UNL     1       5.368  28.388  55.398  1.00  0.00     0.087 C 
HETATM    5  C   UNL     1       6.011  28.205  56.574  1.00  0.00     0.055 C 
HETATM    6  C   UNL     1       6.338  26.821  57.112  1.00  0.00     0.019 C 
HETATM    7  N   UNL     1       6.610  25.674  57.558  1.00  0.00    -0.096 N 
HETATM    8  C   UNL     1       6.458  29.408  57.403  1.00  0.00     0.104 C 
HETATM    9  C   UNL     1       5.704  30.695  57.064  1.00  0.00     0.046 C 
HETATM   10  H   UNL     1       4.448  29.747  54.188  1.00  0.00     0.166 HD
ENDROOT
BRANCH   4  11
HETATM   11  S   UNL     1       5.206  27.110  54.218  1.00  0.00    -0.102 SA
BRANCH  11  12
HETATM   12  C   UNL     1       6.695  27.281  53.186  1.00  0.00     0.184 C 
BRANCH  12  13
HETATM   13  C   UNL     1       7.496  25.972  53.122  1.00  0.00     0.231 C 
HETATM   14  N   UNL     1       7.146  25.040  54.084  1.00  0.00    -0.326 N 
HETATM   15  H   UNL     1       6.450  25.357  54.751  1.00  0.00     0.169 HD
HETATM   16  O   UNL     1       8.335  25.810  52.239  1.00  0.00    -0.272 OA
BRANCH  14  17
HETATM   17  C   UNL     1       7.693  23.765  54.320  1.00  0.00     0.036 A 
HETATM   18  C   UNL     1       7.707  22.731  53.384  1.00  0.00     0.053 A 
HETATM   19  C   UNL     1       8.287  21.502  53.713  1.00  0.00     0.036 A 
HETATM   20 CL   UNL     1       8.301  20.226  52.557  1.00  0.00    -0.084 Cl
HETATM   21  C   UNL     1       8.858  21.292  54.967  1.00  0.00     0.024 A 
HETATM   22  C   UNL     1       8.846  22.319  55.907  1.00  0.00     0.004 A 
HETATM   23  C   UNL     1       8.263  23.547  55.583  1.00  0.00     0.029 A 
ENDBRANCH  14  17
ENDBRANCH  12  13
ENDBRANCH  11  12
ENDBRANCH   4  11
BRANCH   8  24
HETATM   24  C   UNL     1       7.979  29.562  57.225  1.00  0.00    -0.044 A 
HETATM   25  C   UNL     1       8.794  30.036  58.273  1.00  0.00     0.008 A 
HETATM   26  C   UNL     1      10.161  30.238  58.084  1.00  0.00     0.001 A 
HETATM   27  C   UNL     1      10.738  29.982  56.844  1.00  0.00     0.000 A 
HETATM   28  C   UNL     1       9.945  29.526  55.792  1.00  0.00     0.001 A 
HETATM   29  C   UNL     1       8.576  29.316  55.977  1.00  0.00     0.008 A 
ENDBRANCH   8  24
BRANCH   9  30
HETATM   30  C   UNL     1       5.702  31.854  58.025  1.00  0.00     0.255 C 
HETATM   31  N   UNL     1       5.409  31.547  59.338  1.00  0.00    -0.321 N 
HETATM   32  H   UNL     1       4.932  30.688  59.557  1.00  0.00     0.169 HD
HETATM   33  O   UNL     1       5.836  33.001  57.604  1.00  0.00    -0.268 OA
BRANCH  31  34
HETATM   34  C   UNL     1       5.537  32.457  60.415  1.00  0.00     0.068 A 
HETATM   35  C   UNL     1       4.469  33.242  60.897  1.00  0.00     0.095 A 
HETATM   36  C   UNL     1       4.687  34.083  61.994  1.00  0.00     0.039 A 
HETATM   37  C   UNL     1       5.952  34.173  62.581  1.00  0.00     0.003 A 
HETATM   38  C   UNL     1       7.017  33.445  62.062  1.00  0.00     0.002 A 
HETATM   39  C   UNL     1       6.815  32.601  60.970  1.00  0.00     0.032 A 
BRANCH  35  40
HETATM   40  O   UNL     1       3.305  33.216  60.172  1.00  0.00    -0.354 OA
HETATM   41  C   UNL     1       2.346  34.234  60.420  1.00  0.00     0.210 C 
ENDBRANCH  35  40
ENDBRANCH  31  34
ENDBRANCH   9  30
TORSDOF 8
ENDMDL
MODEL 4
REMARK VINA RESULT:     -10.2      1.360      1.656
REMARK  8 active torsions:
REMARK  status: ('A' for Active; 'I' for Inactive)
REMARK    1  A    between atoms: C_4  and  S_5 
REMARK    2  A    between atoms: S_5  and  C_6 
REMARK    3  A    between atoms: C_6  and  C_7 
REMARK       I    between atoms: C_7  and  N_8 
REMARK    4  A    between atoms: N_8  and  C_9 
REMARK    5  A    between atoms: C_20  and  C_21 
REMARK    6  A    between atoms: C_27  and  C_28 
REMARK       I    between atoms: C_28  and  N_29 
REMARK    7  A    between atoms: N_29  and  C_30 
REMARK    8  A    between atoms: C_31  and  O_32 
ROOT
HETATM    1  C   UNL     1       4.614  32.429  55.726  1.00  0.00     0.069 C 
HETATM    2  C   UNL     1       5.406  31.239  56.213  1.00  0.00     0.019 C 
HETATM    3  N   UNL     1       5.674  30.271  55.259  1.00  0.00    -0.353 N 
HETATM    4  C   UNL     1       6.205  29.021  55.516  1.00  0.00     0.087 C 
HETATM    5  C   UNL     1       6.658  28.757  56.764  1.00  0.00     0.055 C 
HETATM    6  C   UNL     1       7.097  27.366  57.189  1.00  0.00     0.019 C 
HETATM    7  N   UNL     1       7.461  26.212  57.542  1.00  0.00    -0.096 N 
HETATM    8  C   UNL     1       6.766  29.878  57.797  1.00  0.00     0.104 C 
HETATM    9  C   UNL     1       5.892  31.091  57.472  1.00  0.00     0.046 C 
HETATM   10  H   UNL     1       5.308  30.407  54.320  1.00  0.00     0.166 HD
ENDROOT
BRANCH   4  11
HETATM   11  S   UNL     1       6.445  27.913  54.187  1.00  0.00    -0.102 SA
BRANCH  11  12
HETATM   12  C   UNL     1       4.964  26.857  54.228  1.00  0.00     0.184 C 
BRANCH  12  13
HETATM   13  C   UNL     1       5.298  25.396  53.896  1.00  0.00     0.231 C 
HETATM   14  N   UNL     1       6.476  24.936  54.459  1.00  0.00    -0.326 N 
HETATM   15  H   UNL     1       7.006  25.636  54.969  1.00  0.00     0.169 HD
HETATM   16  O   UNL     1       4.521  24.729  53.217  1.00  0.00    -0.272 OA
BRANCH  14  17
HETATM   17  C   UNL     1       7.081  23.671  54.335  1.00  0.00     0.036 A 
HETATM   18  C   UNL     1       7.301  22.799  55.400  1.00  0.00     0.053 A 
HETATM   19  C   UNL     1       7.900  21.557  55.170  1.00  0.00     0.036 A 
HETATM   20 CL   UNL     1       8.174  20.481  56.487  1.00  0.00    -0.084 Cl
HETATM   21  C   UNL     1       8.280  21.172  53.885  1.00  0.00     0.024 A 
HETATM   22  C   UNL     1       8.065  22.039  52.818  1.00  0.00     0.004 A 
HETATM   23  C   UNL     1       7.471  23.283  53.045  1.00  0.00     0.029 A 
ENDBRANCH  14  17
ENDBRANCH  12  13
ENDBRANCH  11  12
ENDBRANCH   4  11
BRANCH   8  24
HETATM   24  C   UNL     1       8.253  30.252  57.929  1.00  0.00    -0.044 A 
HETATM   25  C   UNL     1       8.683  31.227  58.852  1.00  0.00     0.008 A 
HETATM   26  C   UNL     1      10.022  31.610  58.920  1.00  0.00     0.001 A 
HETATM   27  C   UNL     1      10.954  31.038  58.062  1.00  0.00     0.000 A 
HETATM   28  C   UNL     1      10.546  30.081  57.133  1.00  0.00     0.001 A 
HETATM   29  C   UNL     1       9.206  29.689  57.064  1.00  0.00     0.008 A 
ENDBRANCH   8  24
BRANCH   9  30
HETATM   30  C   UNL     1       5.548  32.092  58.544  1.00  0.00     0.255 C 
HETATM   31  N   UNL     1       4.900  31.587  59.653  1.00  0.00    -0.321 N 
HETATM   32  H   UNL     1       4.425  30.701  59.595  1.00  0.00     0.169 HD
HETATM   33  O   UNL     1       5.740  33.290  58.349  1.00  0.00    -0.268 OA
BRANCH  31  34
HETATM   34  C   UNL     1       4.658  32.324  60.837  1.00  0.00     0.068 A 
HETATM   35  C   UNL     1       5.611  32.468  61.867  1.00  0.00     0.095 A 
HETATM   36  C   UNL     1       5.290  33.251  62.982  1.00  0.00     0.039 A 
HETATM   37  C   UNL     1       4.033  33.852  63.091  1.00  0.00     0.003 A 
HETATM   38  C   UNL     1       3.075  33.654  62.103  1.00  0.00     0.002 A 
HETATM   39  C   UNL     1       3.380  32.877  60.985  1.00  0.00     0.032 A 
BRANCH  35  40
HETATM   40  O   UNL     1       6.757  31.723  61.761  1.00  0.00    -0.354 OA
HETATM   41  C   UNL     1       7.764  31.909  62.744  1.00  0.00     0.210 C 
ENDBRANCH  35  40
ENDBRANCH  31  34
ENDBRANCH   9  30
TORSDOF 8
ENDMDL
MODEL 5
REMARK VINA RESULT:      -9.9      3.384     10.139
REMARK  8 active torsions:
REMARK  status: ('A' for Active; 'I' for Inactive)
REMARK    1  A    between atoms: C_4  and  S_5 
REMARK    2  A    between atoms: S_5  and  C_6 
REMARK    3  A    between atoms: C_6  and  C_7 
REMARK       I    between atoms: C_7  and  N_8 
REMARK    4  A    between atoms: N_8  and  C_9 
REMARK    5  A    between atoms: C_20  and  C_21 
REMARK    6  A    between atoms: C_27  and  C_28 
REMARK       I    between atoms: C_28  and  N_29 
REMARK    7  A    between atoms: N_29  and  C_30 
REMARK    8  A    between atoms: C_31  and  O_32 
ROOT
HETATM    1  C   UNL     1       8.622  26.518  57.405  1.00  0.00     0.069 C 
HETATM    2  C   UNL     1       7.370  27.303  57.092  1.00  0.00     0.019 C 
HETATM    3  N   UNL     1       7.382  28.629  57.495  1.00  0.00    -0.353 N 
HETATM    4  C   UNL     1       6.289  29.474  57.491  1.00  0.00     0.087 C 
HETATM    5  C   UNL     1       5.148  29.050  56.900  1.00  0.00     0.055 C 
HETATM    6  C   UNL     1       3.848  29.832  56.995  1.00  0.00     0.019 C 
HETATM    7  N   UNL     1       2.769  30.479  57.073  1.00  0.00    -0.096 N 
HETATM    8  C   UNL     1       5.137  27.758  56.085  1.00  0.00     0.104 C 
HETATM    9  C   UNL     1       6.295  26.816  56.421  1.00  0.00     0.046 C 
HETATM   10  H   UNL     1       8.202  28.974  57.987  1.00  0.00     0.166 HD
ENDROOT
BRANCH   4  11
HETATM   11  S   UNL     1       6.483  31.112  58.068  1.00  0.00    -0.102 SA
BRANCH  11  12
HETATM   12  C   UNL     1       8.214  31.173  58.626  1.00  0.00     0.184 C 
BRANCH  12  13
HETATM   13  C   UNL     1       8.382  32.072  59.859  1.00  0.00     0.231 C 
HETATM   14  N   UNL     1       7.299  32.069  60.722  1.00  0.00    -0.326 N 
HETATM   15  H   UNL     1       6.503  31.523  60.405  1.00  0.00     0.169 HD
HETATM   16  O   UNL     1       9.432  32.686  60.032  1.00  0.00    -0.272 OA
BRANCH  14  17
HETATM   17  C   UNL     1       7.117  32.792  61.916  1.00  0.00     0.036 A 
HETATM   18  C   UNL     1       6.288  33.906  62.040  1.00  0.00     0.053 A 
HETATM   19  C   UNL     1       6.167  34.549  63.276  1.00  0.00     0.036 A 
HETATM   20 CL   UNL     1       5.144  35.926  63.427  1.00  0.00    -0.084 Cl
HETATM   21  C   UNL     1       6.861  34.089  64.393  1.00  0.00     0.024 A 
HETATM   22  C   UNL     1       7.692  32.979  64.276  1.00  0.00     0.004 A 
HETATM   23  C   UNL     1       7.820  32.337  63.041  1.00  0.00     0.029 A 
ENDBRANCH  14  17
ENDBRANCH  12  13
ENDBRANCH  11  12
ENDBRANCH   4  11
BRANCH   8  24
HETATM   24  C   UNL     1       5.115  28.143  54.595  1.00  0.00    -0.044 A 
HETATM   25  C   UNL     1       3.901  28.344  53.908  1.00  0.00     0.008 A 
HETATM   26  C   UNL     1       3.886  28.626  52.543  1.00  0.00     0.001 A 
HETATM   27  C   UNL     1       5.081  28.702  51.835  1.00  0.00     0.000 A 
HETATM   28  C   UNL     1       6.292  28.494  52.494  1.00  0.00     0.001 A 
HETATM   29  C   UNL     1       6.313  28.216  53.864  1.00  0.00     0.008 A 
ENDBRANCH   8  24
BRANCH   9  30
HETATM   30  C   UNL     1       6.228  25.360  56.042  1.00  0.00     0.255 C 
HETATM   31  N   UNL     1       7.199  24.921  55.166  1.00  0.00    -0.321 N 
HETATM   32  H   UNL     1       7.697  25.586  54.596  1.00  0.00     0.169 HD
HETATM   33  O   UNL     1       5.281  24.671  56.415  1.00  0.00    -0.268 OA
BRANCH  31  34
HETATM   34  C   UNL     1       7.417  23.562  54.835  1.00  0.00     0.068 A 
HETATM   35  C   UNL     1       7.356  23.066  53.516  1.00  0.00     0.095 A 
HETATM   36  C   UNL     1       7.626  21.712  53.288  1.00  0.00     0.039 A 
HETATM   37  C   UNL     1       7.917  20.855  54.354  1.00  0.00     0.003 A 
HETATM   38  C   UNL     1       7.912  21.336  55.659  1.00  0.00     0.002 A 
HETATM   39  C   UNL     1       7.646  22.683  55.902  1.00  0.00     0.032 A 
BRANCH  35  40
HETATM   40  O   UNL     1       6.912  23.931  52.549  1.00  0.00    -0.354 OA
HETATM   41  C   UNL     1       7.850  24.837  51.988  1.00  0.00     0.210 C 
ENDBRANCH  35  40
ENDBRANCH  31  34
ENDBRANCH   9  30
TORSDOF 8
ENDMDL
MODEL 6
REMARK VINA RESULT:      -9.7      4.220     10.480
REMARK  8 active torsions:
REMARK  status: ('A' for Active; 'I' for Inactive)
REMARK    1  A    between atoms: C_4  and  S_5 
REMARK    2  A    between atoms: S_5  and  C_6 
REMARK    3  A    between atoms: C_6  and  C_7 
REMARK       I    between atoms: C_7  and  N_8 
REMARK    4  A    between atoms: N_8  and  C_9 
REMARK    5  A    between atoms: C_20  and  C_21 
REMARK    6  A    between atoms: C_27  and  C_28 
REMARK       I    between atoms: C_28  and  N_29 
REMARK    7  A    between atoms: N_29  and  C_30 
REMARK    8  A    between atoms: C_31  and  O_32 
ROOT
HETATM    1  C   UNL     1       3.321  29.780  53.537  1.00  0.00     0.069 C 
HETATM    2  C   UNL     1       4.675  29.324  54.025  1.00  0.00     0.019 C 
HETATM    3  N   UNL     1       4.898  29.467  55.385  1.00  0.00    -0.353 N 
HETATM    4  C   UNL     1       6.116  29.303  56.017  1.00  0.00     0.087 C 
HETATM    5  C   UNL     1       7.151  28.804  55.302  1.00  0.00     0.055 C 
HETATM    6  C   UNL     1       8.566  28.749  55.855  1.00  0.00     0.019 C 
HETATM    7  N   UNL     1       9.739  28.703  56.313  1.00  0.00    -0.096 N 
HETATM    8  C   UNL     1       6.920  28.249  53.897  1.00  0.00     0.104 C 
HETATM    9  C   UNL     1       5.633  28.758  53.246  1.00  0.00     0.046 C 
HETATM   10  H   UNL     1       4.163  29.884  55.951  1.00  0.00     0.166 HD
ENDROOT
BRANCH   4  11
HETATM   11  S   UNL     1       6.216  29.558  57.742  1.00  0.00    -0.102 SA
BRANCH  11  12
HETATM   12  C   UNL     1       5.895  31.338  57.937  1.00  0.00     0.184 C 
BRANCH  12  13
HETATM   13  C   UNL     1       6.707  31.939  59.093  1.00  0.00     0.231 C 
HETATM   14  N   UNL     1       6.034  31.985  60.302  1.00  0.00    -0.326 N 
HETATM   15  H   UNL     1       5.067  31.677  60.263  1.00  0.00     0.169 HD
HETATM   16  O   UNL     1       7.870  32.291  58.907  1.00  0.00    -0.272 OA
BRANCH  14  17
HETATM   17  C   UNL     1       6.472  32.493  61.540  1.00  0.00     0.036 A 
HETATM   18  C   UNL     1       5.963  33.642  62.142  1.00  0.00     0.053 A 
HETATM   19  C   UNL     1       6.460  34.057  63.381  1.00  0.00     0.036 A 
HETATM   20 CL   UNL     1       5.832  35.479  64.123  1.00  0.00    -0.084 Cl
HETATM   21  C   UNL     1       7.458  33.334  64.031  1.00  0.00     0.024 A 
HETATM   22  C   UNL     1       7.972  32.186  63.435  1.00  0.00     0.004 A 
HETATM   23  C   UNL     1       7.482  31.771  62.194  1.00  0.00     0.029 A 
ENDBRANCH  14  17
ENDBRANCH  12  13
ENDBRANCH  11  12
ENDBRANCH   4  11
BRANCH   8  24
HETATM   24  C   UNL     1       6.958  26.713  53.987  1.00  0.00    -0.044 A 
HETATM   25  C   UNL     1       6.321  26.026  55.039  1.00  0.00     0.008 A 
HETATM   26  C   UNL     1       6.416  24.639  55.153  1.00  0.00     0.001 A 
HETATM   27  C   UNL     1       7.158  23.914  54.226  1.00  0.00     0.000 A 
HETATM   28  C   UNL     1       7.807  24.578  53.185  1.00  0.00     0.001 A 
HETATM   29  C   UNL     1       7.710  25.967  53.064  1.00  0.00     0.008 A 
ENDBRANCH   8  24
BRANCH   9  30
HETATM   30  C   UNL     1       5.443  28.663  51.755  1.00  0.00     0.255 C 
HETATM   31  N   UNL     1       4.607  27.657  51.317  1.00  0.00    -0.321 N 
HETATM   32  H   UNL     1       4.407  26.875  51.919  1.00  0.00     0.169 HD
HETATM   33  O   UNL     1       6.107  29.376  51.005  1.00  0.00    -0.268 OA
BRANCH  31  34
HETATM   34  C   UNL     1       4.159  27.519  49.982  1.00  0.00     0.068 A 
HETATM   35  C   UNL     1       3.183  28.357  49.401  1.00  0.00     0.095 A 
HETATM   36  C   UNL     1       2.837  28.164  48.059  1.00  0.00     0.039 A 
HETATM   37  C   UNL     1       3.420  27.136  47.314  1.00  0.00     0.003 A 
HETATM   38  C   UNL     1       4.333  26.272  47.909  1.00  0.00     0.002 A 
HETATM   39  C   UNL     1       4.690  26.452  49.246  1.00  0.00     0.032 A 
BRANCH  35  40
HETATM   40  O   UNL     1       2.546  29.237  50.237  1.00  0.00    -0.354 OA
HETATM   41  C   UNL     1       1.280  29.737  49.834  1.00  0.00     0.210 C 
ENDBRANCH  35  40
ENDBRANCH  31  34
ENDBRANCH   9  30
TORSDOF 8
ENDMDL
MODEL 7
REMARK VINA RESULT:      -9.5      2.991      3.968
REMARK  8 active torsions:
REMARK  status: ('A' for Active; 'I' for Inactive)
REMARK    1  A    between atoms: C_4  and  S_5 
REMARK    2  A    between atoms: S_5  and  C_6 
REMARK    3  A    between atoms: C_6  and  C_7 
REMARK       I    between atoms: C_7  and  N_8 
REMARK    4  A    between atoms: N_8  and  C_9 
REMARK    5  A    between atoms: C_20  and  C_21 
REMARK    6  A    between atoms: C_27  and  C_28 
REMARK       I    between atoms: C_28  and  N_29 
REMARK    7  A    between atoms: N_29  and  C_30 
REMARK    8  A    between atoms: C_31  and  O_32 
ROOT
HETATM    1  C   UNL     1       4.720  32.825  57.403  1.00  0.00     0.069 C 
HETATM    2  C   UNL     1       5.339  31.448  57.371  1.00  0.00     0.019 C 
HETATM    3  N   UNL     1       4.907  30.625  56.344  1.00  0.00    -0.353 N 
HETATM    4  C   UNL     1       5.183  29.276  56.232  1.00  0.00     0.087 C 
HETATM    5  C   UNL     1       6.076  28.727  57.088  1.00  0.00     0.055 C 
HETATM    6  C   UNL     1       6.316  27.228  57.158  1.00  0.00     0.019 C 
HETATM    7  N   UNL     1       6.515  25.984  57.216  1.00  0.00    -0.096 N 
HETATM    8  C   UNL     1       6.903  29.618  58.014  1.00  0.00     0.104 C 
HETATM    9  C   UNL     1       6.293  31.004  58.230  1.00  0.00     0.046 C 
HETATM   10  H   UNL     1       4.199  30.982  55.707  1.00  0.00     0.166 HD
ENDROOT
BRANCH   4  11
HETATM   11  S   UNL     1       4.524  28.386  54.880  1.00  0.00    -0.102 SA
BRANCH  11  12
HETATM   12  C   UNL     1       5.940  28.199  53.752  1.00  0.00     0.184 C 
BRANCH  12  13
HETATM   13  C   UNL     1       5.570  27.381  52.507  1.00  0.00     0.231 C 
HETATM   14  N   UNL     1       5.452  28.127  51.346  1.00  0.00    -0.326 N 
HETATM   15  H   UNL     1       5.562  29.128  51.470  1.00  0.00     0.169 HD
HETATM   16  O   UNL     1       5.444  26.161  52.590  1.00  0.00    -0.272 OA
BRANCH  14  17
HETATM   17  C   UNL     1       5.103  27.698  50.051  1.00  0.00     0.036 A 
HETATM   18  C   UNL     1       4.328  26.572  49.779  1.00  0.00     0.053 A 
HETATM   19  C   UNL     1       4.028  26.238  48.455  1.00  0.00     0.036 A 
HETATM   20 CL   UNL     1       3.072  24.845  48.120  1.00  0.00    -0.084 Cl
HETATM   21  C   UNL     1       4.489  27.018  47.397  1.00  0.00     0.024 A 
HETATM   22  C   UNL     1       5.265  28.143  47.661  1.00  0.00     0.004 A 
HETATM   23  C   UNL     1       5.572  28.477  48.983  1.00  0.00     0.029 A 
ENDBRANCH  14  17
ENDBRANCH  12  13
ENDBRANCH  11  12
ENDBRANCH   4  11
BRANCH   8  24
HETATM   24  C   UNL     1       8.330  29.694  57.441  1.00  0.00    -0.044 A 
HETATM   25  C   UNL     1       8.587  29.427  56.081  1.00  0.00     0.008 A 
HETATM   26  C   UNL     1       9.889  29.431  55.583  1.00  0.00     0.001 A 
HETATM   27  C   UNL     1      10.959  29.689  56.433  1.00  0.00     0.000 A 
HETATM   28  C   UNL     1      10.726  29.943  57.784  1.00  0.00     0.001 A 
HETATM   29  C   UNL     1       9.422  29.945  58.288  1.00  0.00     0.008 A 
ENDBRANCH   8  24
BRANCH   9  30
HETATM   30  C   UNL     1       6.721  31.852  59.398  1.00  0.00     0.255 C 
HETATM   31  N   UNL     1       5.981  31.702  60.553  1.00  0.00    -0.321 N 
HETATM   32  H   UNL     1       5.057  31.305  60.508  1.00  0.00     0.169 HD
HETATM   33  O   UNL     1       7.599  32.699  59.253  1.00  0.00    -0.268 OA
BRANCH  31  34
HETATM   34  C   UNL     1       6.334  32.267  61.802  1.00  0.00     0.068 A 
HETATM   35  C   UNL     1       5.528  33.201  62.486  1.00  0.00     0.095 A 
HETATM   36  C   UNL     1       5.947  33.671  63.736  1.00  0.00     0.039 A 
HETATM   37  C   UNL     1       7.161  33.251  64.284  1.00  0.00     0.003 A 
HETATM   38  C   UNL     1       7.983  32.379  63.576  1.00  0.00     0.002 A 
HETATM   39  C   UNL     1       7.579  31.901  62.330  1.00  0.00     0.032 A 
BRANCH  35  40
HETATM   40  O   UNL     1       4.432  33.683  61.815  1.00  0.00    -0.354 OA
HETATM   41  C   UNL     1       3.177  33.639  62.477  1.00  0.00     0.210 C 
ENDBRANCH  35  40
ENDBRANCH  31  34
ENDBRANCH   9  30
TORSDOF 8
ENDMDL
MODEL 8
REMARK VINA RESULT:      -9.5      3.347      4.075
REMARK  8 active torsions:
REMARK  status: ('A' for Active; 'I' for Inactive)
REMARK    1  A    between atoms: C_4  and  S_5 
REMARK    2  A    between atoms: S_5  and  C_6 
REMARK    3  A    between atoms: C_6  and  C_7 
REMARK       I    between atoms: C_7  and  N_8 
REMARK    4  A    between atoms: N_8  and  C_9 
REMARK    5  A    between atoms: C_20  and  C_21 
REMARK    6  A    between atoms: C_27  and  C_28 
REMARK       I    between atoms: C_28  and  N_29 
REMARK    7  A    between atoms: N_29  and  C_30 
REMARK    8  A    between atoms: C_31  and  O_32 
ROOT
HETATM    1  C   UNL     1       4.959  32.976  57.199  1.00  0.00     0.069 C 
HETATM    2  C   UNL     1       5.434  31.543  57.181  1.00  0.00     0.019 C 
HETATM    3  N   UNL     1       4.928  30.760  56.156  1.00  0.00    -0.353 N 
HETATM    4  C   UNL     1       5.066  29.389  56.055  1.00  0.00     0.087 C 
HETATM    5  C   UNL     1       5.893  28.759  56.922  1.00  0.00     0.055 C 
HETATM    6  C   UNL     1       5.978  27.244  57.004  1.00  0.00     0.019 C 
HETATM    7  N   UNL     1       6.050  25.987  57.072  1.00  0.00    -0.096 N 
HETATM    8  C   UNL     1       6.801  29.568  57.847  1.00  0.00     0.104 C 
HETATM    9  C   UNL     1       6.333  31.011  58.049  1.00  0.00     0.046 C 
HETATM   10  H   UNL     1       4.263  31.182  55.512  1.00  0.00     0.166 HD
ENDROOT
BRANCH   4  11
HETATM   11  S   UNL     1       4.328  28.561  54.706  1.00  0.00    -0.102 SA
BRANCH  11  12
HETATM   12  C   UNL     1       5.739  28.114  53.647  1.00  0.00     0.184 C 
BRANCH  12  13
HETATM   13  C   UNL     1       5.471  28.447  52.173  1.00  0.00     0.231 C 
HETATM   14  N   UNL     1       4.677  27.524  51.513  1.00  0.00    -0.326 N 
HETATM   15  H   UNL     1       4.422  26.711  52.064  1.00  0.00     0.169 HD
HETATM   16  O   UNL     1       5.916  29.485  51.688  1.00  0.00    -0.272 OA
BRANCH  14  17
HETATM   17  C   UNL     1       4.266  27.513  50.166  1.00  0.00     0.036 A 
HETATM   18  C   UNL     1       3.581  28.557  49.547  1.00  0.00     0.053 A 
HETATM   19  C   UNL     1       3.227  28.453  48.198  1.00  0.00     0.036 A 
HETATM   20 CL   UNL     1       2.378  29.742  47.434  1.00  0.00    -0.084 Cl
HETATM   21  C   UNL     1       3.553  27.319  47.457  1.00  0.00     0.024 A 
HETATM   22  C   UNL     1       4.235  26.272  48.070  1.00  0.00     0.004 A 
HETATM   23  C   UNL     1       4.586  26.370  49.419  1.00  0.00     0.029 A 
ENDBRANCH  14  17
ENDBRANCH  12  13
ENDBRANCH  11  12
ENDBRANCH   4  11
BRANCH   8  24
HETATM   24  C   UNL     1       8.231  29.494  57.283  1.00  0.00    -0.044 A 
HETATM   25  C   UNL     1       9.354  29.702  58.109  1.00  0.00     0.008 A 
HETATM   26  C   UNL     1      10.644  29.701  57.579  1.00  0.00     0.001 A 
HETATM   27  C   UNL     1      10.837  29.505  56.216  1.00  0.00     0.000 A 
HETATM   28  C   UNL     1       9.737  29.311  55.381  1.00  0.00     0.001 A 
HETATM   29  C   UNL     1       8.442  29.306  55.907  1.00  0.00     0.008 A 
ENDBRANCH   8  24
BRANCH   9  30
HETATM   30  C   UNL     1       6.838  31.820  59.215  1.00  0.00     0.255 C 
HETATM   31  N   UNL     1       6.051  31.799  60.348  1.00  0.00    -0.321 N 
HETATM   32  H   UNL     1       5.083  31.529  60.280  1.00  0.00     0.169 HD
HETATM   33  O   UNL     1       7.827  32.537  59.082  1.00  0.00    -0.268 OA
BRANCH  31  34
HETATM   34  C   UNL     1       6.440  32.339  61.597  1.00  0.00     0.068 A 
HETATM   35  C   UNL     1       7.479  31.799  62.384  1.00  0.00     0.095 A 
HETATM   36  C   UNL     1       7.815  32.430  63.587  1.00  0.00     0.039 A 
HETATM   37  C   UNL     1       7.110  33.557  64.021  1.00  0.00     0.003 A 
HETATM   38  C   UNL     1       6.045  34.046  63.273  1.00  0.00     0.002 A 
HETATM   39  C   UNL     1       5.699  33.429  62.071  1.00  0.00     0.032 A 
BRANCH  35  40
HETATM   40  O   UNL     1       8.015  30.606  61.970  1.00  0.00    -0.354 OA
HETATM   41  C   UNL     1       9.414  30.553  61.737  1.00  0.00     0.210 C 
ENDBRANCH  35  40
ENDBRANCH  31  34
ENDBRANCH   9  30
TORSDOF 8
ENDMDL
MODEL 9
REMARK VINA RESULT:      -9.4      2.020      2.901
REMARK  8 active torsions:
REMARK  status: ('A' for Active; 'I' for Inactive)
REMARK    1  A    between atoms: C_4  and  S_5 
REMARK    2  A    between atoms: S_5  and  C_6 
REMARK    3  A    between atoms: C_6  and  C_7 
REMARK       I    between atoms: C_7  and  N_8 
REMARK    4  A    between atoms: N_8  and  C_9 
REMARK    5  A    between atoms: C_20  and  C_21 
REMARK    6  A    between atoms: C_27  and  C_28 
REMARK       I    between atoms: C_28  and  N_29 
REMARK    7  A    between atoms: N_29  and  C_30 
REMARK    8  A    between atoms: C_31  and  O_32 
ROOT
HETATM    1  C   UNL     1       2.860  31.637  55.364  1.00  0.00     0.069 C 
HETATM    2  C   UNL     1       3.647  30.418  55.781  1.00  0.00     0.019 C 
HETATM    3  N   UNL     1       3.823  29.457  54.798  1.00  0.00    -0.353 N 
HETATM    4  C   UNL     1       4.333  28.190  55.003  1.00  0.00     0.087 C 
HETATM    5  C   UNL     1       4.861  27.895  56.213  1.00  0.00     0.055 C 
HETATM    6  C   UNL     1       5.287  26.485  56.590  1.00  0.00     0.019 C 
HETATM    7  N   UNL     1       5.640  25.317  56.903  1.00  0.00    -0.096 N 
HETATM    8  C   UNL     1       5.071  28.996  57.251  1.00  0.00     0.104 C 
HETATM    9  C   UNL     1       4.213  30.238  57.002  1.00  0.00     0.046 C 
HETATM   10  H   UNL     1       3.398  29.618  53.888  1.00  0.00     0.166 HD
ENDROOT
BRANCH   4  11
HETATM   11  S   UNL     1       4.451  27.095  53.646  1.00  0.00    -0.102 SA
BRANCH  11  12
HETATM   12  C   UNL     1       6.035  27.540  52.867  1.00  0.00     0.184 C 
BRANCH  12  13
HETATM   13  C   UNL     1       7.135  26.521  53.195  1.00  0.00     0.231 C 
HETATM   14  N   UNL     1       6.669  25.257  53.515  1.00  0.00    -0.326 N 
HETATM   15  H   UNL     1       5.657  25.174  53.555  1.00  0.00     0.169 HD
HETATM   16  O   UNL     1       8.317  26.850  53.120  1.00  0.00    -0.272 OA
BRANCH  14  17
HETATM   17  C   UNL     1       7.399  24.113  53.886  1.00  0.00     0.036 A 
HETATM   18  C   UNL     1       7.487  22.954  53.116  1.00  0.00     0.053 A 
HETATM   19  C   UNL     1       8.250  21.874  53.571  1.00  0.00     0.036 A 
HETATM   20 CL   UNL     1       8.356  20.441  52.620  1.00  0.00    -0.084 Cl
HETATM   21  C   UNL     1       8.930  21.937  54.785  1.00  0.00     0.024 A 
HETATM   22  C   UNL     1       8.845  23.090  55.560  1.00  0.00     0.004 A 
HETATM   23  C   UNL     1       8.080  24.171  55.112  1.00  0.00     0.029 A 
ENDBRANCH  14  17
ENDBRANCH  12  13
ENDBRANCH  11  12
ENDBRANCH   4  11
BRANCH   8  24
HETATM   24  C   UNL     1       6.574  29.327  57.288  1.00  0.00    -0.044 A 
HETATM   25  C   UNL     1       7.368  29.251  56.126  1.00  0.00     0.008 A 
HETATM   26  C   UNL     1       8.742  29.486  56.179  1.00  0.00     0.001 A 
HETATM   27  C   UNL     1       9.350  29.787  57.393  1.00  0.00     0.000 A 
HETATM   28  C   UNL     1       8.583  29.854  58.555  1.00  0.00     0.001 A 
HETATM   29  C   UNL     1       7.205  29.625  58.507  1.00  0.00     0.008 A 
ENDBRANCH   8  24
BRANCH   9  30
HETATM   30  C   UNL     1       3.971  31.232  58.108  1.00  0.00     0.255 C 
HETATM   31  N   UNL     1       4.855  32.289  58.171  1.00  0.00    -0.321 N 
HETATM   32  H   UNL     1       5.753  32.219  57.721  1.00  0.00     0.169 HD
HETATM   33  O   UNL     1       3.105  31.012  58.953  1.00  0.00    -0.268 OA
BRANCH  31  34
HETATM   34  C   UNL     1       4.690  33.415  59.013  1.00  0.00     0.068 A 
HETATM   35  C   UNL     1       5.108  33.442  60.361  1.00  0.00     0.095 A 
HETATM   36  C   UNL     1       4.936  34.618  61.100  1.00  0.00     0.039 A 
HETATM   37  C   UNL     1       4.327  35.737  60.525  1.00  0.00     0.003 A 
HETATM   38  C   UNL     1       3.858  35.683  59.216  1.00  0.00     0.002 A 
HETATM   39  C   UNL     1       4.024  34.519  58.467  1.00  0.00     0.032 A 
BRANCH  35  40
HETATM   40  O   UNL     1       5.551  32.260  60.896  1.00  0.00    -0.354 OA
HETATM   41  C   UNL     1       6.015  32.272  62.238  1.00  0.00     0.210 C 
ENDBRANCH  35  40
ENDBRANCH  31  34
ENDBRANCH   9  30
TORSDOF 8
ENDMDL
MODEL 10
REMARK VINA RESULT:      -9.4      3.390      4.261
REMARK  8 active torsions:
REMARK  status: ('A' for Active; 'I' for Inactive)
REMARK    1  A    between atoms: C_4  and  S_5 
REMARK    2  A    between atoms: S_5  and  C_6 
REMARK    3  A    between atoms: C_6  and  C_7 
REMARK       I    between atoms: C_7  and  N_8 
REMARK    4  A    between atoms: N_8  and  C_9 
REMARK    5  A    between atoms: C_20  and  C_21 
REMARK    6  A    between atoms: C_27  and  C_28 
REMARK       I    between atoms: C_28  and  N_29 
REMARK    7  A    between atoms: N_29  and  C_30 
REMARK    8  A    between atoms: C_31  and  O_32 
ROOT
HETATM    1  C   UNL     1       4.525  31.383  55.095  1.00  0.00     0.069 C 
HETATM    2  C   UNL     1       5.411  30.361  55.766  1.00  0.00     0.019 C 
HETATM    3  N   UNL     1       5.716  29.245  55.004  1.00  0.00    -0.353 N 
HETATM    4  C   UNL     1       6.338  28.104  55.472  1.00  0.00     0.087 C 
HETATM    5  C   UNL     1       6.846  28.114  56.726  1.00  0.00     0.055 C 
HETATM    6  C   UNL     1       7.392  26.860  57.390  1.00  0.00     0.019 C 
HETATM    7  N   UNL     1       7.845  25.821  57.941  1.00  0.00    -0.096 N 
HETATM    8  C   UNL     1       6.909  29.418  57.521  1.00  0.00     0.104 C 
HETATM    9  C   UNL     1       5.944  30.489  57.009  1.00  0.00     0.046 C 
HETATM   10  H   UNL     1       5.313  29.174  54.073  1.00  0.00     0.166 HD
ENDROOT
BRANCH   4  11
HETATM   11  S   UNL     1       6.614  26.777  54.369  1.00  0.00    -0.102 SA
BRANCH  11  12
HETATM   12  C   UNL     1       4.941  26.305  53.831  1.00  0.00     0.184 C 
BRANCH  12  13
HETATM   13  C   UNL     1       4.543  27.011  52.528  1.00  0.00     0.231 C 
HETATM   14  N   UNL     1       4.891  26.327  51.376  1.00  0.00    -0.326 N 
HETATM   15  H   UNL     1       5.420  25.474  51.531  1.00  0.00     0.169 HD
HETATM   16  O   UNL     1       3.929  28.076  52.570  1.00  0.00    -0.272 OA
BRANCH  14  17
HETATM   17  C   UNL     1       4.700  26.701  50.032  1.00  0.00     0.036 A 
HETATM   18  C   UNL     1       3.894  26.007  49.132  1.00  0.00     0.053 A 
HETATM   19  C   UNL     1       3.761  26.468  47.818  1.00  0.00     0.036 A 
HETATM   20 CL   UNL     1       2.767  25.608  46.705  1.00  0.00    -0.084 Cl
HETATM   21  C   UNL     1       4.421  27.620  47.393  1.00  0.00     0.024 A 
HETATM   22  C   UNL     1       5.228  28.317  48.287  1.00  0.00     0.004 A 
HETATM   23  C   UNL     1       5.368  27.856  49.599  1.00  0.00     0.029 A 
ENDBRANCH  14  17
ENDBRANCH  12  13
ENDBRANCH  11  12
ENDBRANCH   4  11
BRANCH   8  24
HETATM   24  C   UNL     1       8.370  29.901  57.516  1.00  0.00    -0.044 A 
HETATM   25  C   UNL     1       9.301  29.407  56.580  1.00  0.00     0.008 A 
HETATM   26  C   UNL     1      10.639  29.798  56.623  1.00  0.00     0.001 A 
HETATM   27  C   UNL     1      11.075  30.678  57.607  1.00  0.00     0.000 A 
HETATM   28  C   UNL     1      10.172  31.167  58.550  1.00  0.00     0.001 A 
HETATM   29  C   UNL     1       8.829  30.783  58.508  1.00  0.00     0.008 A 
ENDBRANCH   8  24
BRANCH   9  30
HETATM   30  C   UNL     1       5.565  31.655  57.884  1.00  0.00     0.255 C 
HETATM   31  N   UNL     1       4.788  31.355  58.984  1.00  0.00    -0.321 N 
HETATM   32  H   UNL     1       4.268  30.493  59.009  1.00  0.00     0.169 HD
HETATM   33  O   UNL     1       5.847  32.800  57.536  1.00  0.00    -0.268 OA
BRANCH  31  34
HETATM   34  C   UNL     1       4.485  32.272  60.018  1.00  0.00     0.068 A 
HETATM   35  C   UNL     1       5.386  32.599  61.053  1.00  0.00     0.095 A 
HETATM   36  C   UNL     1       5.006  33.549  62.007  1.00  0.00     0.039 A 
HETATM   37  C   UNL     1       3.741  34.140  61.958  1.00  0.00     0.003 A 
HETATM   38  C   UNL     1       2.832  33.767  60.974  1.00  0.00     0.002 A 
HETATM   39  C   UNL     1       3.197  32.822  60.014  1.00  0.00     0.032 A 
BRANCH  35  40
HETATM   40  O   UNL     1       6.542  31.864  61.123  1.00  0.00    -0.354 OA
HETATM   41  C   UNL     1       7.070  31.579  62.409  1.00  0.00     0.210 C 
ENDBRANCH  35  40
ENDBRANCH  31  34
ENDBRANCH   9  30
TORSDOF 8
ENDMDL
