MODEL 1
REMARK VINA RESULT:      -8.9      0.000      0.000
REMARK  3 active torsions:
REMARK  status: ('A' for Active; 'I' for Inactive)
REMARK    1  A    between atoms: C_8  and  C_9 
REMARK       I    between atoms: C_9  and  N_10 
REMARK    2  A    between atoms: C_13  and  O_14 
REMARK    3  A    between atoms: C_13  and  C_15 
ROOT
HETATM    1  C   UNL     1       8.510  28.806  55.230  1.00  0.00     0.259 C 
HETATM    2  N   UNL     1       7.600  27.772  54.944  1.00  0.00    -0.348 N 
HETATM    3  C   UNL     1       6.842  27.043  55.959  1.00  0.00     0.129 C 
HETATM    4  C   UNL     1       5.579  26.374  55.419  1.00  0.00     0.063 C 
HETATM    5  C   UNL     1       5.849  25.532  54.158  1.00  0.00     0.088 C 
HETATM    6  C   UNL     1       6.457  26.506  53.132  1.00  0.00     0.063 C 
HETATM    7  C   UNL     1       7.753  27.119  53.645  1.00  0.00     0.129 C 
HETATM    8  O   UNL     1       9.174  29.324  54.330  1.00  0.00    -0.267 OA
ENDROOT
BRANCH   1   9
HETATM    9  C   UNL     1       8.637  29.349  56.574  1.00  0.00     0.099 A 
HETATM   10  C   UNL     1       7.764  30.095  57.352  1.00  0.00     0.168 A 
HETATM   11  N   UNL     1       6.520  30.614  57.108  1.00  0.00    -0.233 NA
HETATM   12  N   UNL     1       8.390  30.258  58.600  1.00  0.00    -0.219 N 
HETATM   13  C   UNL     1       5.964  31.298  58.064  1.00  0.00     0.035 A 
HETATM   14  C   UNL     1       4.605  31.902  57.816  1.00  0.00     0.070 C 
HETATM   15  C   UNL     1       6.563  31.530  59.413  1.00  0.00     0.053 A 
HETATM   16  C   UNL     1       7.771  30.983  59.629  1.00  0.00     0.036 A 
HETATM   17  C   UNL     1       8.494  31.108  60.935  1.00  0.00     0.070 C 
HETATM   18  N   UNL     1       9.595  29.638  58.641  1.00  0.00    -0.177 NA
HETATM   19  C   UNL     1       9.713  29.069  57.445  1.00  0.00     0.160 A 
ENDBRANCH   1   9
BRANCH   5  20
HETATM   20  O   UNL     1       4.563  25.134  53.651  1.00  0.00    -0.385 OA
HETATM   21  H   UNL     1       3.892  25.732  54.025  1.00  0.00     0.211 HD
ENDBRANCH   5  20
BRANCH   5  22
HETATM   22  C   UNL     1       6.665  24.248  54.358  1.00  0.00    -0.024 A 
HETATM   23  C   UNL     1       6.922  23.703  55.629  1.00  0.00     0.010 A 
HETATM   24  C   UNL     1       7.664  22.527  55.781  1.00  0.00     0.001 A 
HETATM   25  C   UNL     1       8.150  21.857  54.664  1.00  0.00     0.000 A 
HETATM   26  C   UNL     1       7.879  22.352  53.394  1.00  0.00     0.001 A 
HETATM   27  C   UNL     1       7.136  23.525  53.244  1.00  0.00     0.010 A 
ENDBRANCH   5  22
TORSDOF 3
ENDMDL
MODEL 2
REMARK VINA RESULT:      -8.6      2.523      7.927
REMARK  3 active torsions:
REMARK  status: ('A' for Active; 'I' for Inactive)
REMARK    1  A    between atoms: C_8  and  C_9 
REMARK       I    between atoms: C_9  and  N_10 
REMARK    2  A    between atoms: C_13  and  O_14 
REMARK    3  A    between atoms: C_13  and  C_15 
ROOT
HETATM    1  C   UNL     1       6.285  25.021  56.126  1.00  0.00     0.259 C 
HETATM    2  N   UNL     1       6.427  26.411  55.967  1.00  0.00    -0.348 N 
HETATM    3  C   UNL     1       7.190  27.040  54.891  1.00  0.00     0.129 C 
HETATM    4  C   UNL     1       6.779  28.485  54.611  1.00  0.00     0.063 C 
HETATM    5  C   UNL     1       6.731  29.344  55.888  1.00  0.00     0.088 C 
HETATM    6  C   UNL     1       5.729  28.642  56.823  1.00  0.00     0.063 C 
HETATM    7  C   UNL     1       6.176  27.225  57.156  1.00  0.00     0.129 C 
HETATM    8  O   UNL     1       5.692  24.558  57.103  1.00  0.00    -0.267 OA
ENDROOT
BRANCH   1   9
HETATM    9  C   UNL     1       6.758  24.093  55.110  1.00  0.00     0.099 A 
HETATM   10  C   UNL     1       7.430  22.884  55.209  1.00  0.00     0.168 A 
HETATM   11  N   UNL     1       7.920  22.182  56.279  1.00  0.00    -0.233 NA
HETATM   12  N   UNL     1       7.547  22.390  53.898  1.00  0.00    -0.219 N 
HETATM   13  C   UNL     1       8.532  21.063  56.025  1.00  0.00     0.035 A 
HETATM   14  C   UNL     1       9.103  20.280  57.180  1.00  0.00     0.070 C 
HETATM   15  C   UNL     1       8.710  20.472  54.664  1.00  0.00     0.053 A 
HETATM   16  C   UNL     1       8.194  21.172  53.640  1.00  0.00     0.036 A 
HETATM   17  C   UNL     1       8.271  20.704  52.219  1.00  0.00     0.070 C 
HETATM   18  N   UNL     1       6.966  23.219  52.997  1.00  0.00    -0.177 NA
HETATM   19  C   UNL     1       6.468  24.208  53.733  1.00  0.00     0.160 A 
ENDBRANCH   1   9
BRANCH   5  20
HETATM   20  O   UNL     1       6.146  30.602  55.510  1.00  0.00    -0.385 OA
HETATM   21  H   UNL     1       5.319  30.420  55.031  1.00  0.00     0.211 HD
ENDBRANCH   5  20
BRANCH   5  22
HETATM   22  C   UNL     1       8.081  29.661  56.546  1.00  0.00    -0.024 A 
HETATM   23  C   UNL     1       8.190  30.128  57.868  1.00  0.00     0.010 A 
HETATM   24  C   UNL     1       9.435  30.403  58.443  1.00  0.00     0.001 A 
HETATM   25  C   UNL     1      10.603  30.198  57.717  1.00  0.00     0.000 A 
HETATM   26  C   UNL     1      10.527  29.701  56.421  1.00  0.00     0.001 A 
HETATM   27  C   UNL     1       9.283  29.425  55.849  1.00  0.00     0.010 A 
ENDBRANCH   5  22
TORSDOF 3
ENDMDL
MODEL 3
REMARK VINA RESULT:      -8.5      2.119      3.023
REMARK  3 active torsions:
REMARK  status: ('A' for Active; 'I' for Inactive)
REMARK    1  A    between atoms: C_8  and  C_9 
REMARK       I    between atoms: C_9  and  N_10 
REMARK    2  A    between atoms: C_13  and  O_14 
REMARK    3  A    between atoms: C_13  and  C_15 
ROOT
HETATM    1  C   UNL     1       9.090  30.546  58.140  1.00  0.00     0.259 C 
HETATM    2  N   UNL     1       8.379  29.644  57.329  1.00  0.00    -0.348 N 
HETATM    3  C   UNL     1       7.168  28.942  57.749  1.00  0.00     0.129 C 
HETATM    4  C   UNL     1       6.303  28.458  56.587  1.00  0.00     0.063 C 
HETATM    5  C   UNL     1       7.111  27.675  55.534  1.00  0.00     0.088 C 
HETATM    6  C   UNL     1       8.214  28.639  55.058  1.00  0.00     0.063 C 
HETATM    7  C   UNL     1       9.117  29.065  56.208  1.00  0.00     0.129 C 
HETATM    8  O   UNL     1      10.148  31.043  57.748  1.00  0.00    -0.267 OA
ENDROOT
BRANCH   1   9
HETATM    9  C   UNL     1       8.564  30.982  59.425  1.00  0.00     0.099 A 
HETATM   10  C   UNL     1       7.453  31.743  59.754  1.00  0.00     0.168 A 
HETATM   11  N   UNL     1       6.508  32.380  58.992  1.00  0.00    -0.233 NA
HETATM   12  N   UNL     1       7.393  31.766  61.159  1.00  0.00    -0.219 N 
HETATM   13  C   UNL     1       5.583  33.041  59.624  1.00  0.00     0.035 A 
HETATM   14  C   UNL     1       4.544  33.772  58.812  1.00  0.00     0.070 C 
HETATM   15  C   UNL     1       5.453  33.127  61.110  1.00  0.00     0.053 A 
HETATM   16  C   UNL     1       6.378  32.467  61.827  1.00  0.00     0.036 A 
HETATM   17  C   UNL     1       6.373  32.440  63.325  1.00  0.00     0.070 C 
HETATM   18  N   UNL     1       8.397  31.046  61.714  1.00  0.00    -0.177 NA
HETATM   19  C   UNL     1       9.064  30.553  60.674  1.00  0.00     0.160 A 
ENDBRANCH   1   9
BRANCH   5  20
HETATM   20  O   UNL     1       6.227  27.461  54.420  1.00  0.00    -0.385 OA
HETATM   21  H   UNL     1       6.723  27.639  53.602  1.00  0.00     0.211 HD
ENDBRANCH   5  20
BRANCH   5  22
HETATM   22  C   UNL     1       7.630  26.296  55.963  1.00  0.00    -0.024 A 
HETATM   23  C   UNL     1       8.120  26.038  57.255  1.00  0.00     0.010 A 
HETATM   24  C   UNL     1       8.581  24.768  57.619  1.00  0.00     0.001 A 
HETATM   25  C   UNL     1       8.544  23.721  56.705  1.00  0.00     0.000 A 
HETATM   26  C   UNL     1       8.029  23.938  55.432  1.00  0.00     0.001 A 
HETATM   27  C   UNL     1       7.567  25.207  55.071  1.00  0.00     0.010 A 
ENDBRANCH   5  22
TORSDOF 3
ENDMDL
MODEL 4
REMARK VINA RESULT:      -8.3      4.158      7.376
REMARK  3 active torsions:
REMARK  status: ('A' for Active; 'I' for Inactive)
REMARK    1  A    between atoms: C_8  and  C_9 
REMARK       I    between atoms: C_9  and  N_10 
REMARK    2  A    between atoms: C_13  and  O_14 
REMARK    3  A    between atoms: C_13  and  C_15 
ROOT
HETATM    1  C   UNL     1       4.104  28.275  52.631  1.00  0.00     0.259 C 
HETATM    2  N   UNL     1       5.186  27.798  53.394  1.00  0.00    -0.348 N 
HETATM    3  C   UNL     1       6.568  27.757  52.921  1.00  0.00     0.129 C 
HETATM    4  C   UNL     1       7.600  27.714  54.047  1.00  0.00     0.063 C 
HETATM    5  C   UNL     1       7.294  26.621  55.088  1.00  0.00     0.088 C 
HETATM    6  C   UNL     1       5.886  26.942  55.623  1.00  0.00     0.063 C 
HETATM    7  C   UNL     1       4.848  26.916  54.510  1.00  0.00     0.129 C 
HETATM    8  O   UNL     1       2.953  28.207  53.064  1.00  0.00    -0.267 OA
ENDROOT
BRANCH   1   9
HETATM    9  C   UNL     1       4.317  28.934  51.351  1.00  0.00     0.099 A 
HETATM   10  C   UNL     1       4.196  28.475  50.048  1.00  0.00     0.168 A 
HETATM   11  N   UNL     1       3.890  27.246  49.524  1.00  0.00    -0.233 NA
HETATM   12  N   UNL     1       4.439  29.581  49.216  1.00  0.00    -0.219 N 
HETATM   13  C   UNL     1       3.878  27.139  48.228  1.00  0.00     0.035 A 
HETATM   14  C   UNL     1       3.569  25.793  47.623  1.00  0.00     0.070 C 
HETATM   15  C   UNL     1       4.136  28.258  47.273  1.00  0.00     0.053 A 
HETATM   16  C   UNL     1       4.405  29.456  47.819  1.00  0.00     0.036 A 
HETATM   17  C   UNL     1       4.665  30.681  46.997  1.00  0.00     0.070 C 
HETATM   18  N   UNL     1       4.686  30.704  49.935  1.00  0.00    -0.177 NA
HETATM   19  C   UNL     1       4.572  30.315  51.202  1.00  0.00     0.160 A 
ENDBRANCH   1   9
BRANCH   5  20
HETATM   20  O   UNL     1       8.215  26.825  56.174  1.00  0.00    -0.385 OA
HETATM   21  H   UNL     1       9.034  26.339  55.973  1.00  0.00     0.211 HD
ENDBRANCH   5  20
BRANCH   5  22
HETATM   22  C   UNL     1       7.470  25.169  54.623  1.00  0.00    -0.024 A 
HETATM   23  C   UNL     1       7.891  24.835  53.324  1.00  0.00     0.010 A 
HETATM   24  C   UNL     1       8.047  23.501  52.930  1.00  0.00     0.001 A 
HETATM   25  C   UNL     1       7.806  22.471  53.832  1.00  0.00     0.000 A 
HETATM   26  C   UNL     1       7.426  22.774  55.134  1.00  0.00     0.001 A 
HETATM   27  C   UNL     1       7.272  24.106  55.527  1.00  0.00     0.010 A 
ENDBRANCH   5  22
TORSDOF 3
ENDMDL
MODEL 5
REMARK VINA RESULT:      -8.2      0.905      1.050
REMARK  3 active torsions:
REMARK  status: ('A' for Active; 'I' for Inactive)
REMARK    1  A    between atoms: C_8  and  C_9 
REMARK       I    between atoms: C_9  and  N_10 
REMARK    2  A    between atoms: C_13  and  O_14 
REMARK    3  A    between atoms: C_13  and  C_15 
ROOT
HETATM    1  C   UNL     1       8.307  28.422  54.788  1.00  0.00     0.259 C 
HETATM    2  N   UNL     1       7.481  27.329  54.468  1.00  0.00    -0.348 N 
HETATM    3  C   UNL     1       6.527  26.724  55.394  1.00  0.00     0.129 C 
HETATM    4  C   UNL     1       5.409  25.946  54.703  1.00  0.00     0.063 C 
HETATM    5  C   UNL     1       5.942  24.946  53.660  1.00  0.00     0.088 C 
HETATM    6  C   UNL     1       6.751  25.787  52.656  1.00  0.00     0.063 C 
HETATM    7  C   UNL     1       7.907  26.507  53.336  1.00  0.00     0.129 C 
HETATM    8  O   UNL     1       9.146  28.831  53.982  1.00  0.00    -0.267 OA
ENDROOT
BRANCH   1   9
HETATM    9  C   UNL     1       8.145  29.151  56.036  1.00  0.00     0.099 A 
HETATM   10  C   UNL     1       7.066  29.842  56.565  1.00  0.00     0.168 A 
HETATM   11  N   UNL     1       5.815  30.118  56.078  1.00  0.00    -0.233 NA
HETATM   12  N   UNL     1       7.459  30.267  57.846  1.00  0.00    -0.219 N 
HETATM   13  C   UNL     1       5.026  30.825  56.833  1.00  0.00     0.035 A 
HETATM   14  C   UNL     1       3.652  31.165  56.314  1.00  0.00     0.070 C 
HETATM   15  C   UNL     1       5.368  31.325  58.199  1.00  0.00     0.053 A 
HETATM   16  C   UNL     1       6.592  31.013  58.658  1.00  0.00     0.036 A 
HETATM   17  C   UNL     1       7.076  31.423  60.015  1.00  0.00     0.070 C 
HETATM   18  N   UNL     1       8.717  29.859  58.144  1.00  0.00    -0.177 NA
HETATM   19  C   UNL     1       9.099  29.164  57.077  1.00  0.00     0.160 A 
ENDBRANCH   1   9
BRANCH   5  20
HETATM   20  O   UNL     1       4.794  24.439  52.958  1.00  0.00    -0.385 OA
HETATM   21  H   UNL     1       4.977  23.518  52.702  1.00  0.00     0.211 HD
ENDBRANCH   5  20
BRANCH   5  22
HETATM   22  C   UNL     1       6.700  23.729  54.209  1.00  0.00    -0.024 A 
HETATM   23  C   UNL     1       6.874  23.502  55.586  1.00  0.00     0.010 A 
HETATM   24  C   UNL     1       7.565  22.380  56.057  1.00  0.00     0.001 A 
HETATM   25  C   UNL     1       8.080  21.448  55.163  1.00  0.00     0.000 A 
HETATM   26  C   UNL     1       7.889  21.628  53.798  1.00  0.00     0.001 A 
HETATM   27  C   UNL     1       7.197  22.747  53.329  1.00  0.00     0.010 A 
ENDBRANCH   5  22
TORSDOF 3
ENDMDL
MODEL 6
REMARK VINA RESULT:      -8.2      1.289      2.390
REMARK  3 active torsions:
REMARK  status: ('A' for Active; 'I' for Inactive)
REMARK    1  A    between atoms: C_8  and  C_9 
REMARK       I    between atoms: C_9  and  N_10 
REMARK    2  A    between atoms: C_13  and  O_14 
REMARK    3  A    between atoms: C_13  and  C_15 
ROOT
HETATM    1  C   UNL     1       7.923  28.219  54.541  1.00  0.00     0.259 C 
HETATM    2  N   UNL     1       7.270  27.024  54.187  1.00  0.00    -0.348 N 
HETATM    3  C   UNL     1       6.385  26.278  55.080  1.00  0.00     0.129 C 
HETATM    4  C   UNL     1       5.409  25.358  54.348  1.00  0.00     0.063 C 
HETATM    5  C   UNL     1       6.108  24.457  53.313  1.00  0.00     0.088 C 
HETATM    6  C   UNL     1       6.818  25.418  52.341  1.00  0.00     0.063 C 
HETATM    7  C   UNL     1       7.841  26.286  53.062  1.00  0.00     0.129 C 
HETATM    8  O   UNL     1       8.717  28.753  53.764  1.00  0.00    -0.267 OA
ENDROOT
BRANCH   1   9
HETATM    9  C   UNL     1       7.624  28.901  55.791  1.00  0.00     0.099 A 
HETATM   10  C   UNL     1       8.445  29.521  56.721  1.00  0.00     0.168 A 
HETATM   11  N   UNL     1       9.805  29.657  56.809  1.00  0.00    -0.233 NA
HETATM   12  N   UNL     1       7.592  30.087  57.684  1.00  0.00    -0.219 N 
HETATM   13  C   UNL     1      10.273  30.294  57.842  1.00  0.00     0.035 A 
HETATM   14  C   UNL     1      11.767  30.439  57.979  1.00  0.00     0.070 C 
HETATM   15  C   UNL     1       9.440  30.915  58.915  1.00  0.00     0.053 A 
HETATM   16  C   UNL     1       8.108  30.788  58.784  1.00  0.00     0.036 A 
HETATM   17  C   UNL     1       7.138  31.372  59.765  1.00  0.00     0.070 C 
HETATM   18  N   UNL     1       6.287  29.867  57.389  1.00  0.00    -0.177 NA
HETATM   19  C   UNL     1       6.318  29.195  56.242  1.00  0.00     0.160 A 
ENDBRANCH   1   9
BRANCH   5  20
HETATM   20  O   UNL     1       5.064  23.802  52.572  1.00  0.00    -0.385 OA
HETATM   21  H   UNL     1       4.266  23.781  53.129  1.00  0.00     0.211 HD
ENDBRANCH   5  20
BRANCH   5  22
HETATM   22  C   UNL     1       7.016  23.353  53.874  1.00  0.00    -0.024 A 
HETATM   23  C   UNL     1       7.147  23.108  55.252  1.00  0.00     0.010 A 
HETATM   24  C   UNL     1       7.978  22.090  55.734  1.00  0.00     0.001 A 
HETATM   25  C   UNL     1       8.680  21.281  54.848  1.00  0.00     0.000 A 
HETATM   26  C   UNL     1       8.539  21.476  53.479  1.00  0.00     0.001 A 
HETATM   27  C   UNL     1       7.707  22.492  53.000  1.00  0.00     0.010 A 
ENDBRANCH   5  22
TORSDOF 3
ENDMDL
MODEL 7
REMARK VINA RESULT:      -8.2      2.279      3.901
REMARK  3 active torsions:
REMARK  status: ('A' for Active; 'I' for Inactive)
REMARK    1  A    between atoms: C_8  and  C_9 
REMARK       I    between atoms: C_9  and  N_10 
REMARK    2  A    between atoms: C_13  and  O_14 
REMARK    3  A    between atoms: C_13  and  C_15 
ROOT
HETATM    1  C   UNL     1       5.826  26.883  56.392  1.00  0.00     0.259 C 
HETATM    2  N   UNL     1       6.191  26.545  55.076  1.00  0.00    -0.348 N 
HETATM    3  C   UNL     1       7.112  27.327  54.254  1.00  0.00     0.129 C 
HETATM    4  C   UNL     1       7.753  26.528  53.120  1.00  0.00     0.063 C 
HETATM    5  C   UNL     1       6.717  25.755  52.283  1.00  0.00     0.088 C 
HETATM    6  C   UNL     1       5.982  24.837  53.278  1.00  0.00     0.063 C 
HETATM    7  C   UNL     1       5.286  25.641  54.368  1.00  0.00     0.129 C 
HETATM    8  O   UNL     1       4.983  26.220  56.999  1.00  0.00    -0.267 OA
ENDROOT
BRANCH   1   9
HETATM    9  C   UNL     1       6.486  27.967  57.103  1.00  0.00     0.099 A 
HETATM   10  C   UNL     1       6.076  29.259  57.398  1.00  0.00     0.168 A 
HETATM   11  N   UNL     1       4.946  29.966  57.082  1.00  0.00    -0.233 NA
HETATM   12  N   UNL     1       7.093  29.825  58.187  1.00  0.00    -0.219 N 
HETATM   13  C   UNL     1       4.875  31.193  57.506  1.00  0.00     0.035 A 
HETATM   14  C   UNL     1       3.654  32.004  57.154  1.00  0.00     0.070 C 
HETATM   15  C   UNL     1       5.913  31.874  58.338  1.00  0.00     0.053 A 
HETATM   16  C   UNL     1       6.995  31.144  58.654  1.00  0.00     0.036 A 
HETATM   17  C   UNL     1       8.113  31.676  59.498  1.00  0.00     0.070 C 
HETATM   18  N   UNL     1       8.101  28.946  58.411  1.00  0.00    -0.177 NA
HETATM   19  C   UNL     1       7.711  27.834  57.794  1.00  0.00     0.160 A 
ENDBRANCH   1   9
BRANCH   5  20
HETATM   20  O   UNL     1       7.464  24.904  51.396  1.00  0.00    -0.385 OA
HETATM   21  H   UNL     1       6.882  24.648  50.660  1.00  0.00     0.211 HD
ENDBRANCH   5  20
BRANCH   5  22
HETATM   22  C   UNL     1       5.783  26.600  51.406  1.00  0.00    -0.024 A 
HETATM   23  C   UNL     1       5.677  27.996  51.537  1.00  0.00     0.010 A 
HETATM   24  C   UNL     1       4.820  28.741  50.719  1.00  0.00     0.001 A 
HETATM   25  C   UNL     1       4.065  28.110  49.737  1.00  0.00     0.000 A 
HETATM   26  C   UNL     1       4.179  26.736  49.560  1.00  0.00     0.001 A 
HETATM   27  C   UNL     1       5.036  25.994  50.377  1.00  0.00     0.010 A 
ENDBRANCH   5  22
TORSDOF 3
ENDMDL
MODEL 8
REMARK VINA RESULT:      -8.1      3.033      6.908
REMARK  3 active torsions:
REMARK  status: ('A' for Active; 'I' for Inactive)
REMARK    1  A    between atoms: C_8  and  C_9 
REMARK       I    between atoms: C_9  and  N_10 
REMARK    2  A    between atoms: C_13  and  O_14 
REMARK    3  A    between atoms: C_13  and  C_15 
ROOT
HETATM    1  C   UNL     1       7.926  27.245  56.832  1.00  0.00     0.259 C 
HETATM    2  N   UNL     1       6.673  27.878  56.733  1.00  0.00    -0.348 N 
HETATM    3  C   UNL     1       5.456  27.218  56.265  1.00  0.00     0.129 C 
HETATM    4  C   UNL     1       4.170  27.899  56.731  1.00  0.00     0.063 C 
HETATM    5  C   UNL     1       4.170  29.414  56.455  1.00  0.00     0.088 C 
HETATM    6  C   UNL     1       5.404  29.969  57.190  1.00  0.00     0.063 C 
HETATM    7  C   UNL     1       6.690  29.339  56.676  1.00  0.00     0.129 C 
HETATM    8  O   UNL     1       8.927  27.885  57.161  1.00  0.00    -0.267 OA
ENDROOT
BRANCH   1   9
HETATM    9  C   UNL     1       8.065  25.811  56.631  1.00  0.00     0.099 A 
HETATM   10  C   UNL     1       8.034  25.036  55.482  1.00  0.00     0.168 A 
HETATM   11  N   UNL     1       7.814  25.341  54.165  1.00  0.00    -0.233 NA
HETATM   12  N   UNL     1       8.316  23.719  55.887  1.00  0.00    -0.219 N 
HETATM   13  C   UNL     1       7.833  24.356  53.315  1.00  0.00     0.035 A 
HETATM   14  C   UNL     1       7.570  24.658  51.862  1.00  0.00     0.070 C 
HETATM   15  C   UNL     1       8.112  22.930  53.662  1.00  0.00     0.053 A 
HETATM   16  C   UNL     1       8.352  22.669  54.958  1.00  0.00     0.036 A 
HETATM   17  C   UNL     1       8.669  21.294  55.462  1.00  0.00     0.070 C 
HETATM   18  N   UNL     1       8.537  23.643  57.223  1.00  0.00    -0.177 NA
HETATM   19  C   UNL     1       8.423  24.899  57.647  1.00  0.00     0.160 A 
ENDBRANCH   1   9
BRANCH   5  20
HETATM   20  O   UNL     1       3.009  29.948  57.115  1.00  0.00    -0.385 OA
HETATM   21  H   UNL     1       2.225  29.490  56.766  1.00  0.00     0.211 HD
ENDBRANCH   5  20
BRANCH   5  22
HETATM   22  C   UNL     1       4.079  29.838  54.982  1.00  0.00    -0.024 A 
HETATM   23  C   UNL     1       3.880  28.916  53.939  1.00  0.00     0.010 A 
HETATM   24  C   UNL     1       3.795  29.333  52.606  1.00  0.00     0.001 A 
HETATM   25  C   UNL     1       3.886  30.683  52.287  1.00  0.00     0.000 A 
HETATM   26  C   UNL     1       4.045  31.619  53.301  1.00  0.00     0.001 A 
HETATM   27  C   UNL     1       4.128  31.202  54.632  1.00  0.00     0.010 A 
ENDBRANCH   5  22
TORSDOF 3
ENDMDL
MODEL 9
REMARK VINA RESULT:      -7.9      4.469     10.011
REMARK  3 active torsions:
REMARK  status: ('A' for Active; 'I' for Inactive)
REMARK    1  A    between atoms: C_8  and  C_9 
REMARK       I    between atoms: C_9  and  N_10 
REMARK    2  A    between atoms: C_13  and  O_14 
REMARK    3  A    between atoms: C_13  and  C_15 
ROOT
HETATM    1  C   UNL     1       7.182  32.143  59.541  1.00  0.00     0.259 C 
HETATM    2  N   UNL     1       6.506  32.407  60.746  1.00  0.00    -0.348 N 
HETATM    3  C   UNL     1       5.053  32.373  60.896  1.00  0.00     0.129 C 
HETATM    4  C   UNL     1       4.589  32.166  62.336  1.00  0.00     0.063 C 
HETATM    5  C   UNL     1       5.266  33.138  63.321  1.00  0.00     0.088 C 
HETATM    6  C   UNL     1       6.779  32.890  63.172  1.00  0.00     0.063 C 
HETATM    7  C   UNL     1       7.251  33.164  61.751  1.00  0.00     0.129 C 
HETATM    8  O   UNL     1       8.406  32.267  59.469  1.00  0.00    -0.267 OA
ENDROOT
BRANCH   1   9
HETATM    9  C   UNL     1       6.474  31.640  58.374  1.00  0.00     0.099 A 
HETATM   10  C   UNL     1       6.462  30.390  57.772  1.00  0.00     0.168 A 
HETATM   11  N   UNL     1       7.141  29.230  58.035  1.00  0.00    -0.233 NA
HETATM   12  N   UNL     1       5.523  30.464  56.729  1.00  0.00    -0.219 N 
HETATM   13  C   UNL     1       6.912  28.217  57.253  1.00  0.00     0.035 A 
HETATM   14  C   UNL     1       7.663  26.933  57.502  1.00  0.00     0.070 C 
HETATM   15  C   UNL     1       5.941  28.213  56.117  1.00  0.00     0.053 A 
HETATM   16  C   UNL     1       5.271  29.358  55.904  1.00  0.00     0.036 A 
HETATM   17  C   UNL     1       4.250  29.508  54.818  1.00  0.00     0.070 C 
HETATM   18  N   UNL     1       4.941  31.687  56.665  1.00  0.00    -0.177 NA
HETATM   19  C   UNL     1       5.487  32.364  57.671  1.00  0.00     0.160 A 
ENDBRANCH   1   9
BRANCH   5  20
HETATM   20  O   UNL     1       4.895  32.704  64.641  1.00  0.00    -0.385 OA
HETATM   21  H   UNL     1       3.926  32.614  64.669  1.00  0.00     0.211 HD
ENDBRANCH   5  20
BRANCH   5  22
HETATM   22  C   UNL     1       4.861  34.614  63.208  1.00  0.00    -0.024 A 
HETATM   23  C   UNL     1       3.580  35.019  62.795  1.00  0.00     0.010 A 
HETATM   24  C   UNL     1       3.238  36.373  62.707  1.00  0.00     0.001 A 
HETATM   25  C   UNL     1       4.163  37.353  63.050  1.00  0.00     0.000 A 
HETATM   26  C   UNL     1       5.424  36.980  63.498  1.00  0.00     0.001 A 
HETATM   27  C   UNL     1       5.764  35.628  63.587  1.00  0.00     0.010 A 
ENDBRANCH   5  22
TORSDOF 3
ENDMDL
MODEL 10
REMARK VINA RESULT:      -7.8      4.595      9.926
REMARK  3 active torsions:
REMARK  status: ('A' for Active; 'I' for Inactive)
REMARK    1  A    between atoms: C_8  and  C_9 
REMARK       I    between atoms: C_9  and  N_10 
REMARK    2  A    between atoms: C_13  and  O_14 
REMARK    3  A    between atoms: C_13  and  C_15 
ROOT
HETATM    1  C   UNL     1       7.916  32.161  60.458  1.00  0.00     0.259 C 
HETATM    2  N   UNL     1       7.088  32.426  61.563  1.00  0.00    -0.348 N 
HETATM    3  C   UNL     1       5.669  32.082  61.626  1.00  0.00     0.129 C 
HETATM    4  C   UNL     1       5.126  31.973  63.050  1.00  0.00     0.063 C 
HETATM    5  C   UNL     1       5.480  33.199  63.913  1.00  0.00     0.088 C 
HETATM    6  C   UNL     1       7.018  33.285  63.898  1.00  0.00     0.063 C 
HETATM    7  C   UNL     1       7.552  33.463  62.484  1.00  0.00     0.129 C 
HETATM    8  O   UNL     1       9.086  32.550  60.443  1.00  0.00    -0.267 OA
ENDROOT
BRANCH   1   9
HETATM    9  C   UNL     1       7.449  31.355  59.340  1.00  0.00     0.099 A 
HETATM   10  C   UNL     1       6.572  31.639  58.305  1.00  0.00     0.168 A 
HETATM   11  N   UNL     1       5.814  32.742  58.009  1.00  0.00    -0.233 NA
HETATM   12  N   UNL     1       6.570  30.508  57.468  1.00  0.00    -0.219 N 
HETATM   13  C   UNL     1       5.064  32.680  56.948  1.00  0.00     0.035 A 
HETATM   14  C   UNL     1       4.201  33.869  56.611  1.00  0.00     0.070 C 
HETATM   15  C   UNL     1       4.993  31.516  56.014  1.00  0.00     0.053 A 
HETATM   16  C   UNL     1       5.770  30.462  56.318  1.00  0.00     0.036 A 
HETATM   17  C   UNL     1       5.827  29.228  55.470  1.00  0.00     0.070 C 
HETATM   18  N   UNL     1       7.413  29.549  57.923  1.00  0.00    -0.177 NA
HETATM   19  C   UNL     1       7.958  30.079  59.014  1.00  0.00     0.160 A 
ENDBRANCH   1   9
BRANCH   5  20
HETATM   20  O   UNL     1       5.088  32.876  65.258  1.00  0.00    -0.385 OA
HETATM   21  H   UNL     1       4.487  32.111  65.223  1.00  0.00     0.211 HD
ENDBRANCH   5  20
BRANCH   5  22
HETATM   22  C   UNL     1       4.778  34.514  63.548  1.00  0.00    -0.024 A 
HETATM   23  C   UNL     1       5.353  35.774  63.793  1.00  0.00     0.010 A 
HETATM   24  C   UNL     1       4.691  36.956  63.444  1.00  0.00     0.001 A 
HETATM   25  C   UNL     1       3.448  36.906  62.823  1.00  0.00     0.000 A 
HETATM   26  C   UNL     1       2.873  35.674  62.535  1.00  0.00     0.001 A 
HETATM   27  C   UNL     1       3.536  34.494  62.882  1.00  0.00     0.010 A 
ENDBRANCH   5  22
TORSDOF 3
ENDMDL
