MODEL 1
REMARK VINA RESULT:      -9.8      0.000      0.000
REMARK  8 active torsions:
REMARK  status: ('A' for Active; 'I' for Inactive)
REMARK    1  A    between atoms: C_4  and  C_5 
REMARK    2  A    between atoms: C_5  and  N_6 
REMARK       I    between atoms: N_6  and  C_7 
REMARK    3  A    between atoms: C_7  and  C_8 
REMARK    4  A    between atoms: C_11  and  C_12 
REMARK    5  A    between atoms: C_12  and  O_13 
REMARK    6  A    between atoms: O_13  and  C_14 
REMARK    7  A    between atoms: C_25  and  C_26 
REMARK    8  A    between atoms: C_26  and  O_27 
ROOT
HETATM    1  N   UNL     1       8.905  29.865  58.382  1.00  0.00    -0.351 N 
HETATM    2  C   UNL     1       9.279  29.496  57.114  1.00  0.00     0.251 C 
HETATM    3  O   UNL     1      10.181  30.057  56.498  1.00  0.00    -0.268 OA
HETATM    4  H   UNL     1       8.067  29.506  58.826  1.00  0.00     0.163 HD
ENDROOT
BRANCH   2   5
HETATM    5  C   UNL     1       8.501  28.396  56.479  1.00  0.00     0.032 A 
HETATM    6  C   UNL     1       8.227  27.256  57.243  1.00  0.00     0.017 A 
HETATM    7  C   UNL     1       7.524  26.185  56.684  1.00  0.00     0.010 A 
HETATM    8  C   UNL     1       7.086  26.240  55.354  1.00  0.00    -0.034 A 
HETATM    9  C   UNL     1       7.325  27.402  54.608  1.00  0.00     0.010 A 
HETATM   10  C   UNL     1       8.030  28.474  55.163  1.00  0.00     0.017 A 
BRANCH   8  11
HETATM   11  C   UNL     1       6.342  25.074  54.749  1.00  0.00     0.214 C 
BRANCH  11  12
HETATM   12  O   UNL     1       7.202  24.415  53.826  1.00  0.00    -0.347 OA
BRANCH  12  13
HETATM   13  C   UNL     1       7.504  23.106  54.088  1.00  0.00     0.069 A 
HETATM   14  C   UNL     1       7.504  22.497  55.344  1.00  0.00     0.037 A 
HETATM   15  C   UNL     1       7.834  21.144  55.469  1.00  0.00     0.003 A 
HETATM   16  C   UNL     1       8.165  20.394  54.342  1.00  0.00     0.000 A 
HETATM   17  C   UNL     1       8.167  20.997  53.086  1.00  0.00     0.003 A 
HETATM   18  C   UNL     1       7.838  22.348  52.962  1.00  0.00     0.037 A 
ENDBRANCH  12  13
ENDBRANCH  11  12
ENDBRANCH   8  11
ENDBRANCH   2   5
BRANCH   1  19
HETATM   19  C   UNL     1       9.517  30.995  59.045  1.00  0.00     0.182 C 
BRANCH  19  20
HETATM   20  C   UNL     1       8.675  31.506  60.195  1.00  0.00     0.052 A 
HETATM   21  N   UNL     1       7.468  32.069  59.907  1.00  0.00    -0.256 NA
HETATM   22  C   UNL     1       6.710  32.539  60.933  1.00  0.00     0.040 A 
HETATM   23  C   UNL     1       5.395  33.140  60.528  1.00  0.00     0.071 C 
HETATM   24  C   UNL     1       7.116  32.463  62.270  1.00  0.00    -0.006 A 
HETATM   25  C   UNL     1       8.368  31.885  62.532  1.00  0.00     0.014 A 
HETATM   26  C   UNL     1       9.153  31.401  61.492  1.00  0.00     0.029 A 
BRANCH  24  27
HETATM   27  C   UNL     1       6.281  32.993  63.415  1.00  0.00     0.149 C 
HETATM   28  C   UNL     1       7.115  33.262  64.661  1.00  0.00     0.044 C 
BRANCH  27  29
HETATM   29  O   UNL     1       5.256  32.056  63.751  1.00  0.00    -0.391 OA
HETATM   30  H   UNL     1       5.603  31.166  63.560  1.00  0.00     0.210 HD
ENDBRANCH  27  29
ENDBRANCH  24  27
ENDBRANCH  19  20
ENDBRANCH   1  19
TORSDOF 8
ENDMDL
MODEL 2
REMARK VINA RESULT:      -9.5      2.290     10.535
REMARK  8 active torsions:
REMARK  status: ('A' for Active; 'I' for Inactive)
REMARK    1  A    between atoms: C_4  and  C_5 
REMARK    2  A    between atoms: C_5  and  N_6 
REMARK       I    between atoms: N_6  and  C_7 
REMARK    3  A    between atoms: C_7  and  C_8 
REMARK    4  A    between atoms: C_11  and  C_12 
REMARK    5  A    between atoms: C_12  and  O_13 
REMARK    6  A    between atoms: O_13  and  C_14 
REMARK    7  A    between atoms: C_25  and  C_26 
REMARK    8  A    between atoms: C_26  and  O_27 
ROOT
HETATM    1  N   UNL     1       6.955  27.522  55.013  1.00  0.00    -0.351 N 
HETATM    2  C   UNL     1       8.033  28.372  54.972  1.00  0.00     0.251 C 
HETATM    3  O   UNL     1       8.705  28.545  53.959  1.00  0.00    -0.268 OA
HETATM    4  H   UNL     1       6.500  27.266  55.881  1.00  0.00     0.163 HD
ENDROOT
BRANCH   2   5
HETATM    5  C   UNL     1       8.394  29.057  56.244  1.00  0.00     0.032 A 
HETATM    6  C   UNL     1       7.389  29.250  57.198  1.00  0.00     0.017 A 
HETATM    7  C   UNL     1       7.670  29.912  58.396  1.00  0.00     0.010 A 
HETATM    8  C   UNL     1       8.962  30.390  58.656  1.00  0.00    -0.034 A 
HETATM    9  C   UNL     1       9.975  30.155  57.716  1.00  0.00     0.010 A 
HETATM   10  C   UNL     1       9.695  29.495  56.516  1.00  0.00     0.017 A 
BRANCH   8  11
HETATM   11  C   UNL     1       9.259  31.120  59.944  1.00  0.00     0.214 C 
BRANCH  11  12
HETATM   12  O   UNL     1       8.262  30.777  60.901  1.00  0.00    -0.347 OA
BRANCH  12  13
HETATM   13  C   UNL     1       7.758  31.798  61.661  1.00  0.00     0.069 A 
HETATM   14  C   UNL     1       6.829  32.753  61.245  1.00  0.00     0.037 A 
HETATM   15  C   UNL     1       6.397  33.746  62.130  1.00  0.00     0.003 A 
HETATM   16  C   UNL     1       6.890  33.788  63.434  1.00  0.00     0.000 A 
HETATM   17  C   UNL     1       7.817  32.838  63.854  1.00  0.00     0.003 A 
HETATM   18  C   UNL     1       8.249  31.848  62.969  1.00  0.00     0.037 A 
ENDBRANCH  12  13
ENDBRANCH  11  12
ENDBRANCH   8  11
ENDBRANCH   2   5
BRANCH   1  19
HETATM   19  C   UNL     1       6.590  26.721  53.866  1.00  0.00     0.182 C 
BRANCH  19  20
HETATM   20  C   UNL     1       7.069  25.291  53.995  1.00  0.00     0.052 A 
HETATM   21  N   UNL     1       7.568  24.886  55.196  1.00  0.00    -0.256 NA
HETATM   22  C   UNL     1       8.010  23.606  55.317  1.00  0.00     0.040 A 
HETATM   23  C   UNL     1       8.539  23.241  56.674  1.00  0.00     0.071 C 
HETATM   24  C   UNL     1       7.969  22.688  54.261  1.00  0.00    -0.006 A 
HETATM   25  C   UNL     1       7.458  23.140  53.034  1.00  0.00     0.014 A 
HETATM   26  C   UNL     1       7.004  24.446  52.897  1.00  0.00     0.029 A 
BRANCH  24  27
HETATM   27  C   UNL     1       8.468  21.266  54.387  1.00  0.00     0.149 C 
HETATM   28  C   UNL     1       8.626  20.587  53.031  1.00  0.00     0.044 C 
BRANCH  27  29
HETATM   29  O   UNL     1       7.561  20.493  55.175  1.00  0.00    -0.391 OA
HETATM   30  H   UNL     1       7.449  20.956  56.024  1.00  0.00     0.210 HD
ENDBRANCH  27  29
ENDBRANCH  24  27
ENDBRANCH  19  20
ENDBRANCH   1  19
TORSDOF 8
ENDMDL
MODEL 3
REMARK VINA RESULT:      -9.4      1.793      2.857
REMARK  8 active torsions:
REMARK  status: ('A' for Active; 'I' for Inactive)
REMARK    1  A    between atoms: C_4  and  C_5 
REMARK    2  A    between atoms: C_5  and  N_6 
REMARK       I    between atoms: N_6  and  C_7 
REMARK    3  A    between atoms: C_7  and  C_8 
REMARK    4  A    between atoms: C_11  and  C_12 
REMARK    5  A    between atoms: C_12  and  O_13 
REMARK    6  A    between atoms: O_13  and  C_14 
REMARK    7  A    between atoms: C_25  and  C_26 
REMARK    8  A    between atoms: C_26  and  O_27 
ROOT
HETATM    1  N   UNL     1       8.896  30.699  60.603  1.00  0.00    -0.351 N 
HETATM    2  C   UNL     1       9.084  31.247  59.358  1.00  0.00     0.251 C 
HETATM    3  O   UNL     1       9.577  32.358  59.188  1.00  0.00    -0.268 OA
HETATM    4  H   UNL     1       8.354  29.855  60.748  1.00  0.00     0.163 HD
ENDROOT
BRANCH   2   5
HETATM    5  C   UNL     1       8.612  30.444  58.196  1.00  0.00     0.032 A 
HETATM    6  C   UNL     1       9.572  29.827  57.387  1.00  0.00     0.017 A 
HETATM    7  C   UNL     1       9.181  29.085  56.268  1.00  0.00     0.010 A 
HETATM    8  C   UNL     1       7.824  28.952  55.944  1.00  0.00    -0.034 A 
HETATM    9  C   UNL     1       6.864  29.535  56.783  1.00  0.00     0.010 A 
HETATM   10  C   UNL     1       7.253  30.280  57.902  1.00  0.00     0.017 A 
BRANCH   8  11
HETATM   11  C   UNL     1       7.406  28.164  54.726  1.00  0.00     0.214 C 
BRANCH  11  12
HETATM   12  O   UNL     1       6.860  26.921  55.154  1.00  0.00    -0.347 OA
BRANCH  12  13
HETATM   13  C   UNL     1       7.234  25.806  54.452  1.00  0.00     0.069 A 
HETATM   14  C   UNL     1       7.418  24.526  54.977  1.00  0.00     0.037 A 
HETATM   15  C   UNL     1       7.803  23.473  54.142  1.00  0.00     0.003 A 
HETATM   16  C   UNL     1       8.004  23.693  52.780  1.00  0.00     0.000 A 
HETATM   17  C   UNL     1       7.823  24.969  52.251  1.00  0.00     0.003 A 
HETATM   18  C   UNL     1       7.439  26.020  53.086  1.00  0.00     0.037 A 
ENDBRANCH  12  13
ENDBRANCH  11  12
ENDBRANCH   8  11
ENDBRANCH   2   5
BRANCH   1  19
HETATM   19  C   UNL     1       9.213  31.441  61.803  1.00  0.00     0.182 C 
BRANCH  19  20
HETATM   20  C   UNL     1       7.979  32.036  62.447  1.00  0.00     0.052 A 
HETATM   21  N   UNL     1       6.781  31.862  61.822  1.00  0.00    -0.256 NA
HETATM   22  C   UNL     1       5.669  32.402  62.388  1.00  0.00     0.040 A 
HETATM   23  C   UNL     1       4.391  32.160  61.637  1.00  0.00     0.071 C 
HETATM   24  C   UNL     1       5.704  33.123  63.588  1.00  0.00    -0.006 A 
HETATM   25  C   UNL     1       6.955  33.291  64.202  1.00  0.00     0.014 A 
HETATM   26  C   UNL     1       8.100  32.745  63.633  1.00  0.00     0.029 A 
BRANCH  24  27
HETATM   27  C   UNL     1       4.472  33.733  64.218  1.00  0.00     0.149 C 
HETATM   28  C   UNL     1       4.458  35.253  64.104  1.00  0.00     0.044 C 
BRANCH  27  29
HETATM   29  O   UNL     1       4.402  33.383  65.601  1.00  0.00    -0.391 OA
HETATM   30  H   UNL     1       5.276  33.042  65.858  1.00  0.00     0.210 HD
ENDBRANCH  27  29
ENDBRANCH  24  27
ENDBRANCH  19  20
ENDBRANCH   1  19
TORSDOF 8
ENDMDL
MODEL 4
REMARK VINA RESULT:      -9.0      2.129     11.131
REMARK  8 active torsions:
REMARK  status: ('A' for Active; 'I' for Inactive)
REMARK    1  A    between atoms: C_4  and  C_5 
REMARK    2  A    between atoms: C_5  and  N_6 
REMARK       I    between atoms: N_6  and  C_7 
REMARK    3  A    between atoms: C_7  and  C_8 
REMARK    4  A    between atoms: C_11  and  C_12 
REMARK    5  A    between atoms: C_12  and  O_13 
REMARK    6  A    between atoms: O_13  and  C_14 
REMARK    7  A    between atoms: C_25  and  C_26 
REMARK    8  A    between atoms: C_26  and  O_27 
ROOT
HETATM    1  N   UNL     1       9.023  30.326  58.481  1.00  0.00    -0.351 N 
HETATM    2  C   UNL     1       9.393  31.549  58.983  1.00  0.00     0.251 C 
HETATM    3  O   UNL     1      10.216  32.273  58.431  1.00  0.00    -0.268 OA
HETATM    4  H   UNL     1       8.464  29.669  59.012  1.00  0.00     0.163 HD
ENDROOT
BRANCH   2   5
HETATM    5  C   UNL     1       8.780  31.955  60.278  1.00  0.00     0.032 A 
HETATM    6  C   UNL     1       9.427  31.580  61.461  1.00  0.00     0.017 A 
HETATM    7  C   UNL     1       8.878  31.912  62.702  1.00  0.00     0.010 A 
HETATM    8  C   UNL     1       7.673  32.624  62.777  1.00  0.00    -0.034 A 
HETATM    9  C   UNL     1       7.051  33.035  61.589  1.00  0.00     0.010 A 
HETATM   10  C   UNL     1       7.598  32.702  60.346  1.00  0.00     0.017 A 
BRANCH   8  11
HETATM   11  C   UNL     1       7.073  32.967  64.119  1.00  0.00     0.214 C 
BRANCH  11  12
HETATM   12  O   UNL     1       5.675  33.176  63.953  1.00  0.00    -0.347 OA
BRANCH  12  13
HETATM   13  C   UNL     1       5.099  34.150  64.723  1.00  0.00     0.069 A 
HETATM   14  C   UNL     1       4.897  35.481  64.353  1.00  0.00     0.037 A 
HETATM   15  C   UNL     1       4.294  36.375  65.243  1.00  0.00     0.003 A 
HETATM   16  C   UNL     1       3.888  35.943  66.505  1.00  0.00     0.000 A 
HETATM   17  C   UNL     1       4.088  34.617  66.880  1.00  0.00     0.003 A 
HETATM   18  C   UNL     1       4.692  33.726  65.991  1.00  0.00     0.037 A 
ENDBRANCH  12  13
ENDBRANCH  11  12
ENDBRANCH   8  11
ENDBRANCH   2   5
BRANCH   1  19
HETATM   19  C   UNL     1       9.643  29.787  57.291  1.00  0.00     0.182 C 
BRANCH  19  20
HETATM   20  C   UNL     1       8.809  28.692  56.660  1.00  0.00     0.052 A 
HETATM   21  N   UNL     1       8.592  27.555  57.378  1.00  0.00    -0.256 NA
HETATM   22  C   UNL     1       7.852  26.564  56.815  1.00  0.00     0.040 A 
HETATM   23  C   UNL     1       7.658  25.348  57.676  1.00  0.00     0.071 C 
HETATM   24  C   UNL     1       7.301  26.665  55.533  1.00  0.00    -0.006 A 
HETATM   25  C   UNL     1       7.550  27.846  54.816  1.00  0.00     0.014 A 
HETATM   26  C   UNL     1       8.306  28.867  55.380  1.00  0.00     0.029 A 
BRANCH  24  27
HETATM   27  C   UNL     1       6.484  25.562  54.897  1.00  0.00     0.149 C 
HETATM   28  C   UNL     1       6.971  25.218  53.495  1.00  0.00     0.044 C 
BRANCH  27  29
HETATM   29  O   UNL     1       5.112  25.949  54.817  1.00  0.00    -0.391 OA
HETATM   30  H   UNL     1       4.623  25.203  54.425  1.00  0.00     0.210 HD
ENDBRANCH  27  29
ENDBRANCH  24  27
ENDBRANCH  19  20
ENDBRANCH   1  19
TORSDOF 8
ENDMDL
MODEL 5
REMARK VINA RESULT:      -8.8      2.042      2.562
REMARK  8 active torsions:
REMARK  status: ('A' for Active; 'I' for Inactive)
REMARK    1  A    between atoms: C_4  and  C_5 
REMARK    2  A    between atoms: C_5  and  N_6 
REMARK       I    between atoms: N_6  and  C_7 
REMARK    3  A    between atoms: C_7  and  C_8 
REMARK    4  A    between atoms: C_11  and  C_12 
REMARK    5  A    between atoms: C_12  and  O_13 
REMARK    6  A    between atoms: O_13  and  C_14 
REMARK    7  A    between atoms: C_25  and  C_26 
REMARK    8  A    between atoms: C_26  and  O_27 
ROOT
HETATM    1  N   UNL     1       6.248  30.633  57.524  1.00  0.00    -0.351 N 
HETATM    2  C   UNL     1       5.316  29.641  57.335  1.00  0.00     0.251 C 
HETATM    3  O   UNL     1       4.108  29.853  57.347  1.00  0.00    -0.268 OA
HETATM    4  H   UNL     1       7.231  30.433  57.666  1.00  0.00     0.163 HD
ENDROOT
BRANCH   2   5
HETATM    5  C   UNL     1       5.839  28.258  57.158  1.00  0.00     0.032 A 
HETATM    6  C   UNL     1       7.150  27.990  57.566  1.00  0.00     0.017 A 
HETATM    7  C   UNL     1       7.696  26.715  57.396  1.00  0.00     0.010 A 
HETATM    8  C   UNL     1       6.936  25.690  56.816  1.00  0.00    -0.034 A 
HETATM    9  C   UNL     1       5.609  25.951  56.450  1.00  0.00     0.010 A 
HETATM   10  C   UNL     1       5.061  27.228  56.616  1.00  0.00     0.017 A 
BRANCH   8  11
HETATM   11  C   UNL     1       7.534  24.317  56.619  1.00  0.00     0.214 C 
BRANCH  11  12
HETATM   12  O   UNL     1       6.842  23.668  55.557  1.00  0.00    -0.347 OA
BRANCH  12  13
HETATM   13  C   UNL     1       7.449  22.575  55.000  1.00  0.00     0.069 A 
HETATM   14  C   UNL     1       7.811  22.428  53.660  1.00  0.00     0.037 A 
HETATM   15  C   UNL     1       8.429  21.252  53.223  1.00  0.00     0.003 A 
HETATM   16  C   UNL     1       8.689  20.219  54.123  1.00  0.00     0.000 A 
HETATM   17  C   UNL     1       8.329  20.360  55.461  1.00  0.00     0.003 A 
HETATM   18  C   UNL     1       7.712  21.534  55.896  1.00  0.00     0.037 A 
ENDBRANCH  12  13
ENDBRANCH  11  12
ENDBRANCH   8  11
ENDBRANCH   2   5
BRANCH   1  19
HETATM   19  C   UNL     1       5.846  31.990  57.819  1.00  0.00     0.182 C 
BRANCH  19  20
HETATM   20  C   UNL     1       5.907  32.292  59.301  1.00  0.00     0.052 A 
HETATM   21  N   UNL     1       4.845  32.926  59.872  1.00  0.00    -0.256 NA
HETATM   22  C   UNL     1       4.895  33.211  61.200  1.00  0.00     0.040 A 
HETATM   23  C   UNL     1       3.682  33.907  61.748  1.00  0.00     0.071 C 
HETATM   24  C   UNL     1       5.989  32.874  62.005  1.00  0.00    -0.006 A 
HETATM   25  C   UNL     1       7.071  32.229  61.385  1.00  0.00     0.014 A 
HETATM   26  C   UNL     1       7.032  31.934  60.027  1.00  0.00     0.029 A 
BRANCH  24  27
HETATM   27  C   UNL     1       6.055  33.196  63.482  1.00  0.00     0.149 C 
HETATM   28  C   UNL     1       7.448  32.975  64.059  1.00  0.00     0.044 C 
BRANCH  27  29
HETATM   29  O   UNL     1       5.132  32.380  64.205  1.00  0.00    -0.391 OA
HETATM   30  H   UNL     1       4.238  32.714  64.012  1.00  0.00     0.210 HD
ENDBRANCH  27  29
ENDBRANCH  24  27
ENDBRANCH  19  20
ENDBRANCH   1  19
TORSDOF 8
ENDMDL
MODEL 6
REMARK VINA RESULT:      -8.8      1.896      2.529
REMARK  8 active torsions:
REMARK  status: ('A' for Active; 'I' for Inactive)
REMARK    1  A    between atoms: C_4  and  C_5 
REMARK    2  A    between atoms: C_5  and  N_6 
REMARK       I    between atoms: N_6  and  C_7 
REMARK    3  A    between atoms: C_7  and  C_8 
REMARK    4  A    between atoms: C_11  and  C_12 
REMARK    5  A    between atoms: C_12  and  O_13 
REMARK    6  A    between atoms: O_13  and  C_14 
REMARK    7  A    between atoms: C_25  and  C_26 
REMARK    8  A    between atoms: C_26  and  O_27 
ROOT
HETATM    1  N   UNL     1       6.235  30.519  58.383  1.00  0.00    -0.351 N 
HETATM    2  C   UNL     1       6.220  29.897  57.159  1.00  0.00     0.251 C 
HETATM    3  O   UNL     1       5.910  30.477  56.123  1.00  0.00    -0.268 OA
HETATM    4  H   UNL     1       6.342  30.007  59.251  1.00  0.00     0.163 HD
ENDROOT
BRANCH   2   5
HETATM    5  C   UNL     1       6.556  28.446  57.142  1.00  0.00     0.032 A 
HETATM    6  C   UNL     1       7.889  28.075  57.346  1.00  0.00     0.017 A 
HETATM    7  C   UNL     1       8.260  26.728  57.312  1.00  0.00     0.010 A 
HETATM    8  C   UNL     1       7.302  25.734  57.073  1.00  0.00    -0.034 A 
HETATM    9  C   UNL     1       5.960  26.108  56.913  1.00  0.00     0.010 A 
HETATM   10  C   UNL     1       5.587  27.456  56.944  1.00  0.00     0.017 A 
BRANCH   8  11
HETATM   11  C   UNL     1       7.708  24.281  57.021  1.00  0.00     0.214 C 
BRANCH  11  12
HETATM   12  O   UNL     1       8.519  24.077  55.868  1.00  0.00    -0.347 OA
BRANCH  12  13
HETATM   13  C   UNL     1       8.306  22.926  55.158  1.00  0.00     0.069 A 
HETATM   14  C   UNL     1       8.268  21.632  55.680  1.00  0.00     0.037 A 
HETATM   15  C   UNL     1       8.040  20.541  54.836  1.00  0.00     0.003 A 
HETATM   16  C   UNL     1       7.848  20.737  53.469  1.00  0.00     0.000 A 
HETATM   17  C   UNL     1       7.887  22.027  52.943  1.00  0.00     0.003 A 
HETATM   18  C   UNL     1       8.115  23.115  53.786  1.00  0.00     0.037 A 
ENDBRANCH  12  13
ENDBRANCH  11  12
ENDBRANCH   8  11
ENDBRANCH   2   5
BRANCH   1  19
HETATM   19  C   UNL     1       5.815  31.895  58.529  1.00  0.00     0.182 C 
BRANCH  19  20
HETATM   20  C   UNL     1       5.943  32.382  59.956  1.00  0.00     0.052 A 
HETATM   21  N   UNL     1       7.070  32.056  60.648  1.00  0.00    -0.256 NA
HETATM   22  C   UNL     1       7.189  32.480  61.933  1.00  0.00     0.040 A 
HETATM   23  C   UNL     1       8.462  32.079  62.621  1.00  0.00     0.071 C 
HETATM   24  C   UNL     1       6.204  33.243  62.573  1.00  0.00    -0.006 A 
HETATM   25  C   UNL     1       5.051  33.555  61.835  1.00  0.00     0.014 A 
HETATM   26  C   UNL     1       4.917  33.126  60.520  1.00  0.00     0.029 A 
BRANCH  24  27
HETATM   27  C   UNL     1       6.326  33.711  64.006  1.00  0.00     0.149 C 
HETATM   28  C   UNL     1       5.094  33.366  64.833  1.00  0.00     0.044 C 
BRANCH  27  29
HETATM   29  O   UNL     1       6.516  35.126  64.047  1.00  0.00    -0.391 OA
HETATM   30  H   UNL     1       6.648  35.373  64.980  1.00  0.00     0.210 HD
ENDBRANCH  27  29
ENDBRANCH  24  27
ENDBRANCH  19  20
ENDBRANCH   1  19
TORSDOF 8
ENDMDL
MODEL 7
REMARK VINA RESULT:      -8.6      1.478      2.422
REMARK  8 active torsions:
REMARK  status: ('A' for Active; 'I' for Inactive)
REMARK    1  A    between atoms: C_4  and  C_5 
REMARK    2  A    between atoms: C_5  and  N_6 
REMARK       I    between atoms: N_6  and  C_7 
REMARK    3  A    between atoms: C_7  and  C_8 
REMARK    4  A    between atoms: C_11  and  C_12 
REMARK    5  A    between atoms: C_12  and  O_13 
REMARK    6  A    between atoms: O_13  and  C_14 
REMARK    7  A    between atoms: C_25  and  C_26 
REMARK    8  A    between atoms: C_26  and  O_27 
ROOT
HETATM    1  N   UNL     1       7.553  30.793  59.273  1.00  0.00    -0.351 N 
HETATM    2  C   UNL     1       8.340  30.079  58.403  1.00  0.00     0.251 C 
HETATM    3  O   UNL     1       9.483  30.417  58.110  1.00  0.00    -0.268 OA
HETATM    4  H   UNL     1       6.566  30.600  59.394  1.00  0.00     0.163 HD
ENDROOT
BRANCH   2   5
HETATM    5  C   UNL     1       7.723  28.877  57.777  1.00  0.00     0.032 A 
HETATM    6  C   UNL     1       6.338  28.873  57.577  1.00  0.00     0.017 A 
HETATM    7  C   UNL     1       5.709  27.757  57.019  1.00  0.00     0.010 A 
HETATM    8  C   UNL     1       6.456  26.630  56.652  1.00  0.00    -0.034 A 
HETATM    9  C   UNL     1       7.849  26.656  56.813  1.00  0.00     0.010 A 
HETATM   10  C   UNL     1       8.481  27.770  57.375  1.00  0.00     0.017 A 
BRANCH   8  11
HETATM   11  C   UNL     1       5.771  25.420  56.064  1.00  0.00     0.214 C 
BRANCH  11  12
HETATM   12  O   UNL     1       6.202  25.264  54.716  1.00  0.00    -0.347 OA
BRANCH  12  13
HETATM   13  C   UNL     1       6.822  24.086  54.397  1.00  0.00     0.069 A 
HETATM   14  C   UNL     1       7.163  23.657  53.113  1.00  0.00     0.037 A 
HETATM   15  C   UNL     1       7.797  22.424  52.930  1.00  0.00     0.003 A 
HETATM   16  C   UNL     1       8.094  21.616  54.027  1.00  0.00     0.000 A 
HETATM   17  C   UNL     1       7.754  22.040  55.310  1.00  0.00     0.003 A 
HETATM   18  C   UNL     1       7.120  23.270  55.492  1.00  0.00     0.037 A 
ENDBRANCH  12  13
ENDBRANCH  11  12
ENDBRANCH   8  11
ENDBRANCH   2   5
BRANCH   1  19
HETATM   19  C   UNL     1       8.012  32.039  59.847  1.00  0.00     0.182 C 
BRANCH  19  20
HETATM   20  C   UNL     1       7.084  32.542  60.932  1.00  0.00     0.052 A 
HETATM   21  N   UNL     1       7.594  32.720  62.182  1.00  0.00    -0.256 NA
HETATM   22  C   UNL     1       6.765  33.162  63.165  1.00  0.00     0.040 A 
HETATM   23  C   UNL     1       7.408  33.334  64.511  1.00  0.00     0.071 C 
HETATM   24  C   UNL     1       5.412  33.447  62.942  1.00  0.00    -0.006 A 
HETATM   25  C   UNL     1       4.917  33.246  61.644  1.00  0.00     0.014 A 
HETATM   26  C   UNL     1       5.754  32.793  60.632  1.00  0.00     0.029 A 
BRANCH  24  27
HETATM   27  C   UNL     1       4.483  33.931  64.033  1.00  0.00     0.149 C 
HETATM   28  C   UNL     1       4.780  35.366  64.450  1.00  0.00     0.044 C 
BRANCH  27  29
HETATM   29  O   UNL     1       4.598  33.093  65.185  1.00  0.00    -0.391 OA
HETATM   30  H   UNL     1       5.060  33.606  65.871  1.00  0.00     0.210 HD
ENDBRANCH  27  29
ENDBRANCH  24  27
ENDBRANCH  19  20
ENDBRANCH   1  19
TORSDOF 8
ENDMDL
MODEL 8
REMARK VINA RESULT:      -8.2      2.555      3.617
REMARK  8 active torsions:
REMARK  status: ('A' for Active; 'I' for Inactive)
REMARK    1  A    between atoms: C_4  and  C_5 
REMARK    2  A    between atoms: C_5  and  N_6 
REMARK       I    between atoms: N_6  and  C_7 
REMARK    3  A    between atoms: C_7  and  C_8 
REMARK    4  A    between atoms: C_11  and  C_12 
REMARK    5  A    between atoms: C_12  and  O_13 
REMARK    6  A    between atoms: O_13  and  C_14 
REMARK    7  A    between atoms: C_25  and  C_26 
REMARK    8  A    between atoms: C_26  and  O_27 
ROOT
HETATM    1  N   UNL     1       5.548  29.940  54.951  1.00  0.00    -0.351 N 
HETATM    2  C   UNL     1       4.884  29.085  54.107  1.00  0.00     0.251 C 
HETATM    3  O   UNL     1       3.732  29.283  53.732  1.00  0.00    -0.268 OA
HETATM    4  H   UNL     1       6.435  29.700  55.378  1.00  0.00     0.163 HD
ENDROOT
BRANCH   2   5
HETATM    5  C   UNL     1       5.613  27.855  53.690  1.00  0.00     0.032 A 
HETATM    6  C   UNL     1       6.962  27.736  54.043  1.00  0.00     0.017 A 
HETATM    7  C   UNL     1       7.697  26.613  53.652  1.00  0.00     0.010 A 
HETATM    8  C   UNL     1       7.093  25.595  52.902  1.00  0.00    -0.034 A 
HETATM    9  C   UNL     1       5.730  25.699  52.589  1.00  0.00     0.010 A 
HETATM   10  C   UNL     1       4.993  26.822  52.977  1.00  0.00     0.017 A 
BRANCH   8  11
HETATM   11  C   UNL     1       7.894  24.392  52.467  1.00  0.00     0.214 C 
BRANCH  11  12
HETATM   12  O   UNL     1       7.101  23.225  52.658  1.00  0.00    -0.347 OA
BRANCH  12  13
HETATM   13  C   UNL     1       7.614  22.256  53.479  1.00  0.00     0.069 A 
HETATM   14  C   UNL     1       8.170  21.043  53.071  1.00  0.00     0.037 A 
HETATM   15  C   UNL     1       8.660  20.140  54.021  1.00  0.00     0.003 A 
HETATM   16  C   UNL     1       8.595  20.446  55.380  1.00  0.00     0.000 A 
HETATM   17  C   UNL     1       8.040  21.655  55.791  1.00  0.00     0.003 A 
HETATM   18  C   UNL     1       7.551  22.555  54.843  1.00  0.00     0.037 A 
ENDBRANCH  12  13
ENDBRANCH  11  12
ENDBRANCH   8  11
ENDBRANCH   2   5
BRANCH   1  19
HETATM   19  C   UNL     1       4.893  31.103  55.507  1.00  0.00     0.182 C 
BRANCH  19  20
HETATM   20  C   UNL     1       5.411  31.443  56.888  1.00  0.00     0.052 A 
HETATM   21  N   UNL     1       4.823  32.472  57.559  1.00  0.00    -0.256 NA
HETATM   22  C   UNL     1       5.288  32.791  58.796  1.00  0.00     0.040 A 
HETATM   23  C   UNL     1       4.582  33.934  59.467  1.00  0.00     0.071 C 
HETATM   24  C   UNL     1       6.342  32.102  59.409  1.00  0.00    -0.006 A 
HETATM   25  C   UNL     1       6.931  31.052  58.687  1.00  0.00     0.014 A 
HETATM   26  C   UNL     1       6.465  30.717  57.421  1.00  0.00     0.029 A 
BRANCH  24  27
HETATM   27  C   UNL     1       6.870  32.458  60.781  1.00  0.00     0.149 C 
HETATM   28  C   UNL     1       8.393  32.474  60.826  1.00  0.00     0.044 C 
BRANCH  27  29
HETATM   29  O   UNL     1       6.400  31.518  61.748  1.00  0.00    -0.391 OA
HETATM   30  H   UNL     1       6.561  31.903  62.628  1.00  0.00     0.210 HD
ENDBRANCH  27  29
ENDBRANCH  24  27
ENDBRANCH  19  20
ENDBRANCH   1  19
TORSDOF 8
ENDMDL
MODEL 9
REMARK VINA RESULT:      -8.1      2.536      3.918
REMARK  8 active torsions:
REMARK  status: ('A' for Active; 'I' for Inactive)
REMARK    1  A    between atoms: C_4  and  C_5 
REMARK    2  A    between atoms: C_5  and  N_6 
REMARK       I    between atoms: N_6  and  C_7 
REMARK    3  A    between atoms: C_7  and  C_8 
REMARK    4  A    between atoms: C_11  and  C_12 
REMARK    5  A    between atoms: C_12  and  O_13 
REMARK    6  A    between atoms: O_13  and  C_14 
REMARK    7  A    between atoms: C_25  and  C_26 
REMARK    8  A    between atoms: C_26  and  O_27 
ROOT
HETATM    1  N   UNL     1       4.526  31.658  59.468  1.00  0.00    -0.351 N 
HETATM    2  C   UNL     1       5.430  32.000  58.493  1.00  0.00     0.251 C 
HETATM    3  O   UNL     1       5.618  33.160  58.137  1.00  0.00    -0.268 OA
HETATM    4  H   UNL     1       4.265  30.697  59.651  1.00  0.00     0.163 HD
ENDROOT
BRANCH   2   5
HETATM    5  C   UNL     1       6.159  30.881  57.834  1.00  0.00     0.032 A 
HETATM    6  C   UNL     1       5.721  30.460  56.573  1.00  0.00     0.017 A 
HETATM    7  C   UNL     1       6.354  29.396  55.924  1.00  0.00     0.010 A 
HETATM    8  C   UNL     1       7.433  28.738  56.529  1.00  0.00    -0.034 A 
HETATM    9  C   UNL     1       7.896  29.191  57.772  1.00  0.00     0.010 A 
HETATM   10  C   UNL     1       7.263  30.254  58.424  1.00  0.00     0.017 A 
BRANCH   8  11
HETATM   11  C   UNL     1       8.104  27.578  55.834  1.00  0.00     0.214 C 
BRANCH  11  12
HETATM   12  O   UNL     1       7.144  26.544  55.645  1.00  0.00    -0.347 OA
BRANCH  12  13
HETATM   13  C   UNL     1       7.341  25.704  54.582  1.00  0.00     0.069 A 
HETATM   14  C   UNL     1       7.674  26.086  53.281  1.00  0.00     0.037 A 
HETATM   15  C   UNL     1       7.847  25.118  52.287  1.00  0.00     0.003 A 
HETATM   16  C   UNL     1       7.689  23.766  52.587  1.00  0.00     0.000 A 
HETATM   17  C   UNL     1       7.357  23.379  53.884  1.00  0.00     0.003 A 
HETATM   18  C   UNL     1       7.184  24.346  54.875  1.00  0.00     0.037 A 
ENDBRANCH  12  13
ENDBRANCH  11  12
ENDBRANCH   8  11
ENDBRANCH   2   5
BRANCH   1  19
HETATM   19  C   UNL     1       3.684  32.655  60.091  1.00  0.00     0.182 C 
BRANCH  19  20
HETATM   20  C   UNL     1       4.169  33.025  61.477  1.00  0.00     0.052 A 
HETATM   21  N   UNL     1       3.816  34.241  61.977  1.00  0.00    -0.256 NA
HETATM   22  C   UNL     1       4.255  34.585  63.217  1.00  0.00     0.040 A 
HETATM   23  C   UNL     1       3.819  35.941  63.693  1.00  0.00     0.071 C 
HETATM   24  C   UNL     1       5.048  33.739  64.001  1.00  0.00    -0.006 A 
HETATM   25  C   UNL     1       5.401  32.496  63.452  1.00  0.00     0.014 A 
HETATM   26  C   UNL     1       4.959  32.133  62.185  1.00  0.00     0.029 A 
BRANCH  24  27
HETATM   27  C   UNL     1       5.547  34.120  65.377  1.00  0.00     0.149 C 
HETATM   28  C   UNL     1       7.030  33.817  65.557  1.00  0.00     0.044 C 
BRANCH  27  29
HETATM   29  O   UNL     1       4.816  33.411  66.379  1.00  0.00    -0.391 OA
HETATM   30  H   UNL     1       4.056  32.990  65.939  1.00  0.00     0.210 HD
ENDBRANCH  27  29
ENDBRANCH  24  27
ENDBRANCH  19  20
ENDBRANCH   1  19
TORSDOF 8
ENDMDL
MODEL 10
REMARK VINA RESULT:      -8.0      2.729     10.407
REMARK  8 active torsions:
REMARK  status: ('A' for Active; 'I' for Inactive)
REMARK    1  A    between atoms: C_4  and  C_5 
REMARK    2  A    between atoms: C_5  and  N_6 
REMARK       I    between atoms: N_6  and  C_7 
REMARK    3  A    between atoms: C_7  and  C_8 
REMARK    4  A    between atoms: C_11  and  C_12 
REMARK    5  A    between atoms: C_12  and  O_13 
REMARK    6  A    between atoms: O_13  and  C_14 
REMARK    7  A    between atoms: C_25  and  C_26 
REMARK    8  A    between atoms: C_26  and  O_27 
ROOT
HETATM    1  N   UNL     1       5.720  28.003  55.494  1.00  0.00    -0.351 N 
HETATM    2  C   UNL     1       4.779  29.000  55.571  1.00  0.00     0.251 C 
HETATM    3  O   UNL     1       3.884  29.136  54.742  1.00  0.00    -0.268 OA
HETATM    4  H   UNL     1       6.541  27.985  56.087  1.00  0.00     0.163 HD
ENDROOT
BRANCH   2   5
HETATM    5  C   UNL     1       4.915  29.963  56.699  1.00  0.00     0.032 A 
HETATM    6  C   UNL     1       3.748  30.503  57.250  1.00  0.00     0.017 A 
HETATM    7  C   UNL     1       3.824  31.432  58.292  1.00  0.00     0.010 A 
HETATM    8  C   UNL     1       5.068  31.832  58.797  1.00  0.00    -0.034 A 
HETATM    9  C   UNL     1       6.233  31.253  58.272  1.00  0.00     0.010 A 
HETATM   10  C   UNL     1       6.159  30.326  57.228  1.00  0.00     0.017 A 
BRANCH   8  11
HETATM   11  C   UNL     1       5.147  32.847  59.912  1.00  0.00     0.214 C 
BRANCH  11  12
HETATM   12  O   UNL     1       4.947  32.177  61.152  1.00  0.00    -0.347 OA
BRANCH  12  13
HETATM   13  C   UNL     1       5.831  32.461  62.158  1.00  0.00     0.069 A 
HETATM   14  C   UNL     1       5.511  32.987  63.411  1.00  0.00     0.037 A 
HETATM   15  C   UNL     1       6.519  33.228  64.350  1.00  0.00     0.003 A 
HETATM   16  C   UNL     1       7.849  32.945  64.042  1.00  0.00     0.000 A 
HETATM   17  C   UNL     1       8.173  32.420  62.793  1.00  0.00     0.003 A 
HETATM   18  C   UNL     1       7.167  32.180  61.856  1.00  0.00     0.037 A 
ENDBRANCH  12  13
ENDBRANCH  11  12
ENDBRANCH   8  11
ENDBRANCH   2   5
BRANCH   1  19
HETATM   19  C   UNL     1       5.748  27.086  54.376  1.00  0.00     0.182 C 
BRANCH  19  20
HETATM   20  C   UNL     1       6.448  25.789  54.722  1.00  0.00     0.052 A 
HETATM   21  N   UNL     1       7.233  25.759  55.834  1.00  0.00    -0.256 NA
HETATM   22  C   UNL     1       7.872  24.601  56.147  1.00  0.00     0.040 A 
HETATM   23  C   UNL     1       8.713  24.653  57.390  1.00  0.00     0.071 C 
HETATM   24  C   UNL     1       7.753  23.438  55.375  1.00  0.00    -0.006 A 
HETATM   25  C   UNL     1       6.944  23.506  54.230  1.00  0.00     0.014 A 
HETATM   26  C   UNL     1       6.285  24.684  53.900  1.00  0.00     0.029 A 
BRANCH  24  27
HETATM   27  C   UNL     1       8.470  22.150  55.712  1.00  0.00     0.149 C 
HETATM   28  C   UNL     1       9.557  21.812  54.699  1.00  0.00     0.044 C 
BRANCH  27  29
HETATM   29  O   UNL     1       7.540  21.066  55.755  1.00  0.00    -0.391 OA
HETATM   30  H   UNL     1       7.549  20.642  54.879  1.00  0.00     0.210 HD
ENDBRANCH  27  29
ENDBRANCH  24  27
ENDBRANCH  19  20
ENDBRANCH   1  19
TORSDOF 8
ENDMDL
