MODEL 1
REMARK VINA RESULT:     -10.0      0.000      0.000
REMARK  6 active torsions:
REMARK  status: ('A' for Active; 'I' for Inactive)
REMARK    1  A    between atoms: O_2  and  C_3 
REMARK    2  A    between atoms: C_3  and  C_4 
REMARK    3  A    between atoms: C_7  and  C_8 
REMARK    4  A    between atoms: C_8  and  O_9 
REMARK    5  A    between atoms: O_9  and  C_10 
REMARK    6  A    between atoms: C_11  and  C_12 
ROOT
HETATM    1  C   UNL     1       6.984  26.479  53.682  1.00  0.00     0.079 A 
HETATM    2  C   UNL     1       6.487  25.311  54.293  1.00  0.00    -0.002 A 
HETATM    3  C   UNL     1       5.370  24.659  53.754  1.00  0.00     0.014 A 
HETATM    4  C   UNL     1       4.738  25.169  52.623  1.00  0.00     0.001 A 
HETATM    5  C   UNL     1       5.213  26.336  52.029  1.00  0.00     0.003 A 
HETATM    6  C   UNL     1       6.329  26.992  52.557  1.00  0.00     0.037 A 
ENDROOT
BRANCH   1   7
HETATM    7  O   UNL     1       8.092  27.044  54.262  1.00  0.00    -0.346 OA
BRANCH   7   8
HETATM    8  C   UNL     1       8.232  28.467  54.230  1.00  0.00     0.214 C 
BRANCH   8   9
HETATM    9  C   UNL     1       8.551  29.075  55.579  1.00  0.00    -0.034 A 
HETATM   10  C   UNL     1       7.541  29.239  56.536  1.00  0.00     0.010 A 
HETATM   11  C   UNL     1       7.823  29.833  57.768  1.00  0.00     0.018 A 
HETATM   12  C   UNL     1       9.123  30.268  58.063  1.00  0.00     0.039 A 
HETATM   13  C   UNL     1      10.143  30.070  57.127  1.00  0.00     0.018 A 
HETATM   14  C   UNL     1       9.860  29.468  55.899  1.00  0.00     0.010 A 
BRANCH  12  15
HETATM   15  C   UNL     1       9.359  30.940  59.369  1.00  0.00     0.292 C 
HETATM   16  O   UNL     1       9.900  32.030  59.479  1.00  0.00    -0.259 OA
BRANCH  15  17
HETATM   17  O   UNL     1       8.933  30.156  60.391  1.00  0.00    -0.323 OA
HETATM   18  C   UNL     1       9.368  30.595  61.679  1.00  0.00     0.213 C 
ENDBRANCH  15  17
ENDBRANCH  12  15
ENDBRANCH   8   9
ENDBRANCH   7   8
ENDBRANCH   1   7
BRANCH   2  19
HETATM   19  C   UNL     1       7.122  24.740  55.485  1.00  0.00     0.032 C 
HETATM   20  C   UNL     1       7.701  23.533  55.552  1.00  0.00     0.045 A 
HETATM   21  C   UNL     1       8.288  23.047  56.851  1.00  0.00     0.257 A 
HETATM   22  C   UNL     1       7.903  22.474  54.561  1.00  0.00     0.006 A 
HETATM   23  O   UNL     1       8.329  23.635  57.916  1.00  0.00    -0.267 OA
HETATM   24  N   UNL     1       8.775  21.781  56.572  1.00  0.00    -0.322 N 
HETATM   25  C   UNL     1       8.557  21.437  55.240  1.00  0.00     0.046 A 
HETATM   26  H   UNL     1       9.228  21.206  57.264  1.00  0.00     0.169 HD
HETATM   27  C   UNL     1       8.919  20.256  54.626  1.00  0.00     0.030 A 
HETATM   28  C   UNL     1       8.609  20.114  53.272  1.00  0.00     0.002 A 
HETATM   29  C   UNL     1       7.954  21.146  52.574  1.00  0.00     0.001 A 
HETATM   30  C   UNL     1       7.596  22.337  53.219  1.00  0.00     0.015 A 
ENDBRANCH   2  19
TORSDOF 6
ENDMDL
MODEL 2
REMARK VINA RESULT:     -10.0      1.624      2.225
REMARK  6 active torsions:
REMARK  status: ('A' for Active; 'I' for Inactive)
REMARK    1  A    between atoms: O_2  and  C_3 
REMARK    2  A    between atoms: C_3  and  C_4 
REMARK    3  A    between atoms: C_7  and  C_8 
REMARK    4  A    between atoms: C_8  and  O_9 
REMARK    5  A    between atoms: O_9  and  C_10 
REMARK    6  A    between atoms: C_11  and  C_12 
ROOT
HETATM    1  C   UNL     1       5.796  25.899  53.886  1.00  0.00     0.079 A 
HETATM    2  C   UNL     1       7.079  25.370  54.127  1.00  0.00    -0.002 A 
HETATM    3  C   UNL     1       7.882  24.965  53.053  1.00  0.00     0.014 A 
HETATM    4  C   UNL     1       7.412  25.070  51.746  1.00  0.00     0.001 A 
HETATM    5  C   UNL     1       6.135  25.572  51.506  1.00  0.00     0.003 A 
HETATM    6  C   UNL     1       5.327  25.981  52.571  1.00  0.00     0.037 A 
ENDROOT
BRANCH   1   7
HETATM    7  O   UNL     1       5.082  26.288  54.992  1.00  0.00    -0.346 OA
BRANCH   7   8
HETATM    8  C   UNL     1       5.019  27.681  55.312  1.00  0.00     0.214 C 
BRANCH   8   9
HETATM    9  C   UNL     1       6.315  28.234  55.867  1.00  0.00    -0.034 A 
HETATM   10  C   UNL     1       7.299  28.728  55.001  1.00  0.00     0.010 A 
HETATM   11  C   UNL     1       8.511  29.206  55.506  1.00  0.00     0.018 A 
HETATM   12  C   UNL     1       8.754  29.200  56.887  1.00  0.00     0.039 A 
HETATM   13  C   UNL     1       7.758  28.745  57.758  1.00  0.00     0.018 A 
HETATM   14  C   UNL     1       6.544  28.275  57.251  1.00  0.00     0.010 A 
BRANCH  12  15
HETATM   15  C   UNL     1      10.080  29.671  57.369  1.00  0.00     0.292 C 
HETATM   16  O   UNL     1      11.115  29.537  56.735  1.00  0.00    -0.259 OA
BRANCH  15  17
HETATM   17  O   UNL     1       9.968  30.218  58.606  1.00  0.00    -0.323 OA
HETATM   18  C   UNL     1       9.996  31.646  58.614  1.00  0.00     0.213 C 
ENDBRANCH  15  17
ENDBRANCH  12  15
ENDBRANCH   8   9
ENDBRANCH   7   8
ENDBRANCH   1   7
BRANCH   2  19
HETATM   19  C   UNL     1       7.613  25.241  55.486  1.00  0.00     0.032 C 
HETATM   20  C   UNL     1       7.968  24.090  56.074  1.00  0.00     0.045 A 
HETATM   21  C   UNL     1       8.471  24.089  57.493  1.00  0.00     0.257 A 
HETATM   22  C   UNL     1       7.967  22.700  55.612  1.00  0.00     0.006 A 
HETATM   23  O   UNL     1       8.628  25.046  58.228  1.00  0.00    -0.267 OA
HETATM   24  N   UNL     1       8.722  22.758  57.783  1.00  0.00    -0.322 N 
HETATM   25  C   UNL     1       8.432  21.940  56.693  1.00  0.00     0.046 A 
HETATM   26  H   UNL     1       9.072  22.451  58.676  1.00  0.00     0.169 HD
HETATM   27  C   UNL     1       8.571  20.568  56.636  1.00  0.00     0.030 A 
HETATM   28  C   UNL     1       8.228  19.938  55.439  1.00  0.00     0.002 A 
HETATM   29  C   UNL     1       7.761  20.686  54.342  1.00  0.00     0.001 A 
HETATM   30  C   UNL     1       7.628  22.077  54.424  1.00  0.00     0.015 A 
ENDBRANCH   2  19
TORSDOF 6
ENDMDL
MODEL 3
REMARK VINA RESULT:      -9.5      3.666      6.742
REMARK  6 active torsions:
REMARK  status: ('A' for Active; 'I' for Inactive)
REMARK    1  A    between atoms: O_2  and  C_3 
REMARK    2  A    between atoms: C_3  and  C_4 
REMARK    3  A    between atoms: C_7  and  C_8 
REMARK    4  A    between atoms: C_8  and  O_9 
REMARK    5  A    between atoms: O_9  and  C_10 
REMARK    6  A    between atoms: C_11  and  C_12 
ROOT
HETATM    1  C   UNL     1       8.972  30.244  58.454  1.00  0.00     0.079 A 
HETATM    2  C   UNL     1       8.349  29.886  57.243  1.00  0.00    -0.002 A 
HETATM    3  C   UNL     1       9.126  29.603  56.112  1.00  0.00     0.014 A 
HETATM    4  C   UNL     1      10.515  29.689  56.176  1.00  0.00     0.001 A 
HETATM    5  C   UNL     1      11.133  30.065  57.366  1.00  0.00     0.003 A 
HETATM    6  C   UNL     1      10.367  30.346  58.501  1.00  0.00     0.037 A 
ENDROOT
BRANCH   1   7
HETATM    7  O   UNL     1       8.139  30.487  59.518  1.00  0.00    -0.346 OA
BRANCH   7   8
HETATM    8  C   UNL     1       8.720  30.782  60.791  1.00  0.00     0.214 C 
BRANCH   8   9
HETATM    9  C   UNL     1       7.888  31.727  61.632  1.00  0.00    -0.034 A 
HETATM   10  C   UNL     1       8.299  32.065  62.929  1.00  0.00     0.010 A 
HETATM   11  C   UNL     1       7.516  32.907  63.722  1.00  0.00     0.018 A 
HETATM   12  C   UNL     1       6.312  33.427  63.227  1.00  0.00     0.039 A 
HETATM   13  C   UNL     1       5.919  33.125  61.919  1.00  0.00     0.018 A 
HETATM   14  C   UNL     1       6.707  32.290  61.125  1.00  0.00     0.010 A 
BRANCH  12  15
HETATM   15  C   UNL     1       5.490  34.278  64.130  1.00  0.00     0.292 C 
HETATM   16  O   UNL     1       5.611  35.491  64.209  1.00  0.00    -0.259 OA
BRANCH  15  17
HETATM   17  O   UNL     1       4.642  33.513  64.861  1.00  0.00    -0.323 OA
HETATM   18  C   UNL     1       4.606  33.850  66.249  1.00  0.00     0.213 C 
ENDBRANCH  15  17
ENDBRANCH  12  15
ENDBRANCH   8   9
ENDBRANCH   7   8
ENDBRANCH   1   7
BRANCH   2  19
HETATM   19  C   UNL     1       6.891  29.784  57.132  1.00  0.00     0.032 C 
HETATM   20  C   UNL     1       6.201  28.641  57.003  1.00  0.00     0.045 A 
HETATM   21  C   UNL     1       4.702  28.675  56.862  1.00  0.00     0.257 A 
HETATM   22  C   UNL     1       6.612  27.236  56.951  1.00  0.00     0.006 A 
HETATM   23  O   UNL     1       3.976  29.650  56.863  1.00  0.00    -0.267 OA
HETATM   24  N   UNL     1       4.326  27.348  56.732  1.00  0.00    -0.322 N 
HETATM   25  C   UNL     1       5.431  26.501  56.783  1.00  0.00     0.046 A 
HETATM   26  H   UNL     1       3.367  27.061  56.619  1.00  0.00     0.169 HD
HETATM   27  C   UNL     1       5.416  25.124  56.691  1.00  0.00     0.030 A 
HETATM   28  C   UNL     1       6.642  24.462  56.772  1.00  0.00     0.002 A 
HETATM   29  C   UNL     1       7.838  25.185  56.943  1.00  0.00     0.001 A 
HETATM   30  C   UNL     1       7.828  26.582  57.033  1.00  0.00     0.015 A 
ENDBRANCH   2  19
TORSDOF 6
ENDMDL
MODEL 4
REMARK VINA RESULT:      -9.3      6.725     13.197
REMARK  6 active torsions:
REMARK  status: ('A' for Active; 'I' for Inactive)
REMARK    1  A    between atoms: O_2  and  C_3 
REMARK    2  A    between atoms: C_3  and  C_4 
REMARK    3  A    between atoms: C_7  and  C_8 
REMARK    4  A    between atoms: C_8  and  O_9 
REMARK    5  A    between atoms: O_9  and  C_10 
REMARK    6  A    between atoms: C_11  and  C_12 
ROOT
HETATM    1  C   UNL     1       5.378  33.925  65.337  1.00  0.00     0.079 A 
HETATM    2  C   UNL     1       4.196  34.600  64.975  1.00  0.00    -0.002 A 
HETATM    3  C   UNL     1       3.587  35.479  65.880  1.00  0.00     0.014 A 
HETATM    4  C   UNL     1       4.138  35.678  67.144  1.00  0.00     0.001 A 
HETATM    5  C   UNL     1       5.295  34.995  67.512  1.00  0.00     0.003 A 
HETATM    6  C   UNL     1       5.911  34.118  66.615  1.00  0.00     0.037 A 
ENDROOT
BRANCH   1   7
HETATM    7  O   UNL     1       5.920  33.097  64.385  1.00  0.00    -0.346 OA
BRANCH   7   8
HETATM    8  C   UNL     1       7.341  33.084  64.216  1.00  0.00     0.214 C 
BRANCH   8   9
HETATM    9  C   UNL     1       7.781  32.684  62.824  1.00  0.00    -0.034 A 
HETATM   10  C   UNL     1       8.933  31.906  62.644  1.00  0.00     0.010 A 
HETATM   11  C   UNL     1       9.363  31.566  61.360  1.00  0.00     0.018 A 
HETATM   12  C   UNL     1       8.645  31.995  60.236  1.00  0.00     0.039 A 
HETATM   13  C   UNL     1       7.472  32.737  60.411  1.00  0.00     0.018 A 
HETATM   14  C   UNL     1       7.039  33.069  61.697  1.00  0.00     0.010 A 
BRANCH  12  15
HETATM   15  C   UNL     1       9.175  31.648  58.889  1.00  0.00     0.292 C 
HETATM   16  O   UNL     1      10.182  32.148  58.411  1.00  0.00    -0.259 OA
BRANCH  15  17
HETATM   17  O   UNL     1       8.363  30.751  58.276  1.00  0.00    -0.323 OA
HETATM   18  C   UNL     1       9.058  29.785  57.485  1.00  0.00     0.213 C 
ENDBRANCH  15  17
ENDBRANCH  12  15
ENDBRANCH   8   9
ENDBRANCH   7   8
ENDBRANCH   1   7
BRANCH   2  19
HETATM   19  C   UNL     1       3.583  34.419  63.656  1.00  0.00     0.032 C 
HETATM   20  C   UNL     1       3.803  35.196  62.585  1.00  0.00     0.045 A 
HETATM   21  C   UNL     1       3.080  34.924  61.293  1.00  0.00     0.257 A 
HETATM   22  C   UNL     1       4.658  36.366  62.369  1.00  0.00     0.006 A 
HETATM   23  O   UNL     1       2.285  34.035  61.057  1.00  0.00    -0.267 OA
HETATM   24  N   UNL     1       3.521  35.909  60.423  1.00  0.00    -0.322 N 
HETATM   25  C   UNL     1       4.441  36.754  61.040  1.00  0.00     0.046 A 
HETATM   26  H   UNL     1       3.201  35.978  59.471  1.00  0.00     0.169 HD
HETATM   27  C   UNL     1       5.080  37.833  60.464  1.00  0.00     0.030 A 
HETATM   28  C   UNL     1       5.975  38.549  61.261  1.00  0.00     0.002 A 
HETATM   29  C   UNL     1       6.207  38.172  62.597  1.00  0.00     0.001 A 
HETATM   30  C   UNL     1       5.545  37.073  63.160  1.00  0.00     0.015 A 
ENDBRANCH   2  19
TORSDOF 6
ENDMDL
MODEL 5
REMARK VINA RESULT:      -9.3      3.289      6.891
REMARK  6 active torsions:
REMARK  status: ('A' for Active; 'I' for Inactive)
REMARK    1  A    between atoms: O_2  and  C_3 
REMARK    2  A    between atoms: C_3  and  C_4 
REMARK    3  A    between atoms: C_7  and  C_8 
REMARK    4  A    between atoms: C_8  and  O_9 
REMARK    5  A    between atoms: O_9  and  C_10 
REMARK    6  A    between atoms: C_11  and  C_12 
ROOT
HETATM    1  C   UNL     1       4.606  27.963  52.291  1.00  0.00     0.079 A 
HETATM    2  C   UNL     1       4.491  29.278  52.783  1.00  0.00    -0.002 A 
HETATM    3  C   UNL     1       4.864  30.362  51.977  1.00  0.00     0.014 A 
HETATM    4  C   UNL     1       5.362  30.145  50.694  1.00  0.00     0.001 A 
HETATM    5  C   UNL     1       5.498  28.844  50.214  1.00  0.00     0.003 A 
HETATM    6  C   UNL     1       5.126  27.757  51.009  1.00  0.00     0.037 A 
ENDROOT
BRANCH   1   7
HETATM    7  O   UNL     1       4.202  26.961  53.137  1.00  0.00    -0.346 OA
BRANCH   7   8
HETATM    8  C   UNL     1       4.585  25.615  52.839  1.00  0.00     0.214 C 
BRANCH   8   9
HETATM    9  C   UNL     1       5.598  25.045  53.809  1.00  0.00    -0.034 A 
HETATM   10  C   UNL     1       6.669  24.273  53.339  1.00  0.00     0.010 A 
HETATM   11  C   UNL     1       7.584  23.714  54.234  1.00  0.00     0.018 A 
HETATM   12  C   UNL     1       7.444  23.922  55.613  1.00  0.00     0.039 A 
HETATM   13  C   UNL     1       6.399  24.725  56.084  1.00  0.00     0.018 A 
HETATM   14  C   UNL     1       5.490  25.290  55.187  1.00  0.00     0.010 A 
BRANCH  12  15
HETATM   15  C   UNL     1       8.415  23.263  56.526  1.00  0.00     0.292 C 
HETATM   16  O   UNL     1       8.762  23.736  57.598  1.00  0.00    -0.259 OA
BRANCH  15  17
HETATM   17  O   UNL     1       8.875  22.110  55.979  1.00  0.00    -0.323 OA
HETATM   18  C   UNL     1       8.580  20.944  56.749  1.00  0.00     0.213 C 
ENDBRANCH  15  17
ENDBRANCH  12  15
ENDBRANCH   8   9
ENDBRANCH   7   8
ENDBRANCH   1   7
BRANCH   2  19
HETATM   19  C   UNL     1       3.972  29.552  54.126  1.00  0.00     0.032 C 
HETATM   20  C   UNL     1       4.634  29.336  55.272  1.00  0.00     0.045 A 
HETATM   21  C   UNL     1       3.974  29.628  56.593  1.00  0.00     0.257 A 
HETATM   22  C   UNL     1       5.976  28.823  55.560  1.00  0.00     0.006 A 
HETATM   23  O   UNL     1       2.859  30.074  56.786  1.00  0.00    -0.267 OA
HETATM   24  N   UNL     1       4.915  29.279  57.548  1.00  0.00    -0.322 N 
HETATM   25  C   UNL     1       6.085  28.809  56.957  1.00  0.00     0.046 A 
HETATM   26  H   UNL     1       4.747  29.367  58.537  1.00  0.00     0.169 HD
HETATM   27  C   UNL     1       7.223  28.383  57.611  1.00  0.00     0.030 A 
HETATM   28  C   UNL     1       8.294  27.954  56.825  1.00  0.00     0.002 A 
HETATM   29  C   UNL     1       8.201  27.963  55.421  1.00  0.00     0.001 A 
HETATM   30  C   UNL     1       7.036  28.399  54.779  1.00  0.00     0.015 A 
ENDBRANCH   2  19
TORSDOF 6
ENDMDL
MODEL 6
REMARK VINA RESULT:      -9.2      3.267      7.271
REMARK  6 active torsions:
REMARK  status: ('A' for Active; 'I' for Inactive)
REMARK    1  A    between atoms: O_2  and  C_3 
REMARK    2  A    between atoms: C_3  and  C_4 
REMARK    3  A    between atoms: C_7  and  C_8 
REMARK    4  A    between atoms: C_8  and  O_9 
REMARK    5  A    between atoms: O_9  and  C_10 
REMARK    6  A    between atoms: C_11  and  C_12 
ROOT
HETATM    1  C   UNL     1       5.801  27.411  55.463  1.00  0.00     0.079 A 
HETATM    2  C   UNL     1       7.094  26.922  55.191  1.00  0.00    -0.002 A 
HETATM    3  C   UNL     1       8.143  27.181  56.084  1.00  0.00     0.014 A 
HETATM    4  C   UNL     1       7.915  27.934  57.234  1.00  0.00     0.001 A 
HETATM    5  C   UNL     1       6.643  28.438  57.494  1.00  0.00     0.003 A 
HETATM    6  C   UNL     1       5.590  28.182  56.611  1.00  0.00     0.037 A 
ENDROOT
BRANCH   1   7
HETATM    7  O   UNL     1       4.829  27.097  54.547  1.00  0.00    -0.346 OA
BRANCH   7   8
HETATM    8  C   UNL     1       4.359  28.121  53.667  1.00  0.00     0.214 C 
BRANCH   8   9
HETATM    9  C   UNL     1       4.400  27.729  52.204  1.00  0.00    -0.034 A 
HETATM   10  C   UNL     1       3.843  28.570  51.233  1.00  0.00     0.010 A 
HETATM   11  C   UNL     1       3.846  28.196  49.887  1.00  0.00     0.018 A 
HETATM   12  C   UNL     1       4.411  26.975  49.493  1.00  0.00     0.039 A 
HETATM   13  C   UNL     1       5.005  26.151  50.455  1.00  0.00     0.018 A 
HETATM   14  C   UNL     1       5.008  26.531  51.799  1.00  0.00     0.010 A 
BRANCH  12  15
HETATM   15  C   UNL     1       4.343  26.600  48.055  1.00  0.00     0.292 C 
HETATM   16  O   UNL     1       5.297  26.665  47.295  1.00  0.00    -0.259 OA
BRANCH  15  17
HETATM   17  O   UNL     1       3.082  26.228  47.720  1.00  0.00    -0.323 OA
HETATM   18  C   UNL     1       2.886  24.813  47.682  1.00  0.00     0.213 C 
ENDBRANCH  15  17
ENDBRANCH  12  15
ENDBRANCH   8   9
ENDBRANCH   7   8
ENDBRANCH   1   7
BRANCH   2  19
HETATM   19  C   UNL     1       7.377  26.127  53.993  1.00  0.00     0.032 C 
HETATM   20  C   UNL     1       7.737  24.835  53.987  1.00  0.00     0.045 A 
HETATM   21  C   UNL     1       8.036  24.140  52.686  1.00  0.00     0.257 A 
HETATM   22  C   UNL     1       7.936  23.857  55.059  1.00  0.00     0.006 A 
HETATM   23  O   UNL     1       7.979  24.604  51.563  1.00  0.00    -0.267 OA
HETATM   24  N   UNL     1       8.387  22.848  53.043  1.00  0.00    -0.322 N 
HETATM   25  C   UNL     1       8.332  22.672  54.424  1.00  0.00     0.046 A 
HETATM   26  H   UNL     1       8.643  22.146  52.368  1.00  0.00     0.169 HD
HETATM   27  C   UNL     1       8.614  21.513  55.116  1.00  0.00     0.030 A 
HETATM   28  C   UNL     1       8.490  21.549  56.507  1.00  0.00     0.002 A 
HETATM   29  C   UNL     1       8.092  22.730  57.161  1.00  0.00     0.001 A 
HETATM   30  C   UNL     1       7.812  23.895  56.436  1.00  0.00     0.015 A 
ENDBRANCH   2  19
TORSDOF 6
ENDMDL
MODEL 7
REMARK VINA RESULT:      -9.2      2.923      6.667
REMARK  6 active torsions:
REMARK  status: ('A' for Active; 'I' for Inactive)
REMARK    1  A    between atoms: O_2  and  C_3 
REMARK    2  A    between atoms: C_3  and  C_4 
REMARK    3  A    between atoms: C_7  and  C_8 
REMARK    4  A    between atoms: C_8  and  O_9 
REMARK    5  A    between atoms: O_9  and  C_10 
REMARK    6  A    between atoms: C_11  and  C_12 
ROOT
HETATM    1  C   UNL     1       4.699  30.145  54.779  1.00  0.00     0.079 A 
HETATM    2  C   UNL     1       5.334  30.444  56.001  1.00  0.00    -0.002 A 
HETATM    3  C   UNL     1       4.627  31.105  57.014  1.00  0.00     0.014 A 
HETATM    4  C   UNL     1       3.301  31.482  56.813  1.00  0.00     0.001 A 
HETATM    5  C   UNL     1       2.678  31.207  55.598  1.00  0.00     0.003 A 
HETATM    6  C   UNL     1       3.374  30.546  54.582  1.00  0.00     0.037 A 
ENDROOT
BRANCH   1   7
HETATM    7  O   UNL     1       5.457  29.479  53.848  1.00  0.00    -0.346 OA
BRANCH   7   8
HETATM    8  C   UNL     1       4.841  28.445  53.075  1.00  0.00     0.214 C 
BRANCH   8   9
HETATM    9  C   UNL     1       5.553  27.112  53.171  1.00  0.00    -0.034 A 
HETATM   10  C   UNL     1       4.824  25.917  53.110  1.00  0.00     0.010 A 
HETATM   11  C   UNL     1       5.472  24.686  53.235  1.00  0.00     0.018 A 
HETATM   12  C   UNL     1       6.860  24.632  53.418  1.00  0.00     0.039 A 
HETATM   13  C   UNL     1       7.597  25.821  53.439  1.00  0.00     0.018 A 
HETATM   14  C   UNL     1       6.948  27.050  53.306  1.00  0.00     0.010 A 
BRANCH  12  15
HETATM   15  C   UNL     1       7.495  23.298  53.597  1.00  0.00     0.292 C 
HETATM   16  O   UNL     1       7.839  22.585  52.667  1.00  0.00    -0.259 OA
BRANCH  15  17
HETATM   17  O   UNL     1       7.589  22.989  54.914  1.00  0.00    -0.323 OA
HETATM   18  C   UNL     1       8.923  22.743  55.359  1.00  0.00     0.213 C 
ENDBRANCH  15  17
ENDBRANCH  12  15
ENDBRANCH   8   9
ENDBRANCH   7   8
ENDBRANCH   1   7
BRANCH   2  19
HETATM   19  C   UNL     1       6.727  30.066  56.254  1.00  0.00     0.032 C 
HETATM   20  C   UNL     1       7.151  28.834  56.575  1.00  0.00     0.045 A 
HETATM   21  C   UNL     1       8.611  28.584  56.845  1.00  0.00     0.257 A 
HETATM   22  C   UNL     1       6.451  27.560  56.749  1.00  0.00     0.006 A 
HETATM   23  O   UNL     1       9.525  29.385  56.797  1.00  0.00    -0.267 OA
HETATM   24  N   UNL     1       8.689  27.237  57.159  1.00  0.00    -0.322 N 
HETATM   25  C   UNL     1       7.437  26.630  57.106  1.00  0.00     0.046 A 
HETATM   26  H   UNL     1       9.557  26.781  57.390  1.00  0.00     0.169 HD
HETATM   27  C   UNL     1       7.155  25.303  57.356  1.00  0.00     0.030 A 
HETATM   28  C   UNL     1       5.824  24.896  57.241  1.00  0.00     0.002 A 
HETATM   29  C   UNL     1       4.821  25.816  56.882  1.00  0.00     0.001 A 
HETATM   30  C   UNL     1       5.132  27.159  56.633  1.00  0.00     0.015 A 
ENDBRANCH   2  19
TORSDOF 6
ENDMDL
MODEL 8
REMARK VINA RESULT:      -9.0      6.147     12.192
REMARK  6 active torsions:
REMARK  status: ('A' for Active; 'I' for Inactive)
REMARK    1  A    between atoms: O_2  and  C_3 
REMARK    2  A    between atoms: C_3  and  C_4 
REMARK    3  A    between atoms: C_7  and  C_8 
REMARK    4  A    between atoms: C_8  and  O_9 
REMARK    5  A    between atoms: O_9  and  C_10 
REMARK    6  A    between atoms: C_11  and  C_12 
ROOT
HETATM    1  C   UNL     1       5.731  34.560  64.928  1.00  0.00     0.079 A 
HETATM    2  C   UNL     1       4.712  35.461  64.559  1.00  0.00    -0.002 A 
HETATM    3  C   UNL     1       3.651  35.715  65.439  1.00  0.00     0.014 A 
HETATM    4  C   UNL     1       3.592  35.070  66.672  1.00  0.00     0.001 A 
HETATM    5  C   UNL     1       4.586  34.162  67.029  1.00  0.00     0.003 A 
HETATM    6  C   UNL     1       5.650  33.904  66.160  1.00  0.00     0.037 A 
ENDROOT
BRANCH   1   7
HETATM    7  O   UNL     1       6.743  34.382  64.017  1.00  0.00    -0.346 OA
BRANCH   7   8
HETATM    8  C   UNL     1       7.585  33.233  64.143  1.00  0.00     0.214 C 
BRANCH   8   9
HETATM    9  C   UNL     1       7.858  32.535  62.828  1.00  0.00    -0.034 A 
HETATM   10  C   UNL     1       8.586  31.338  62.802  1.00  0.00     0.010 A 
HETATM   11  C   UNL     1       8.872  30.710  61.588  1.00  0.00     0.018 A 
HETATM   12  C   UNL     1       8.430  31.269  60.380  1.00  0.00     0.039 A 
HETATM   13  C   UNL     1       7.668  32.442  60.404  1.00  0.00     0.018 A 
HETATM   14  C   UNL     1       7.377  33.063  61.620  1.00  0.00     0.010 A 
BRANCH  12  15
HETATM   15  C   UNL     1       8.805  30.588  59.112  1.00  0.00     0.292 C 
HETATM   16  O   UNL     1       9.528  31.090  58.265  1.00  0.00    -0.259 OA
BRANCH  15  17
HETATM   17  O   UNL     1       8.201  29.376  59.026  1.00  0.00    -0.323 OA
HETATM   18  C   UNL     1       7.958  28.942  57.687  1.00  0.00     0.213 C 
ENDBRANCH  15  17
ENDBRANCH  12  15
ENDBRANCH   8   9
ENDBRANCH   7   8
ENDBRANCH   1   7
BRANCH   2  19
HETATM   19  C   UNL     1       4.736  36.161  63.272  1.00  0.00     0.032 C 
HETATM   20  C   UNL     1       4.475  35.602  62.081  1.00  0.00     0.045 A 
HETATM   21  C   UNL     1       4.568  36.426  60.824  1.00  0.00     0.257 A 
HETATM   22  C   UNL     1       4.096  34.244  61.685  1.00  0.00     0.006 A 
HETATM   23  O   UNL     1       4.849  37.605  60.725  1.00  0.00    -0.267 OA
HETATM   24  N   UNL     1       4.261  35.547  59.798  1.00  0.00    -0.322 N 
HETATM   25  C   UNL     1       3.983  34.273  60.288  1.00  0.00     0.046 A 
HETATM   26  H   UNL     1       4.245  35.823  58.829  1.00  0.00     0.169 HD
HETATM   27  C   UNL     1       3.637  33.163  59.545  1.00  0.00     0.030 A 
HETATM   28  C   UNL     1       3.394  31.976  60.238  1.00  0.00     0.002 A 
HETATM   29  C   UNL     1       3.501  31.930  61.641  1.00  0.00     0.001 A 
HETATM   30  C   UNL     1       3.854  33.069  62.374  1.00  0.00     0.015 A 
ENDBRANCH   2  19
TORSDOF 6
ENDMDL
MODEL 9
REMARK VINA RESULT:      -9.0      3.017      6.816
REMARK  6 active torsions:
REMARK  status: ('A' for Active; 'I' for Inactive)
REMARK    1  A    between atoms: O_2  and  C_3 
REMARK    2  A    between atoms: C_3  and  C_4 
REMARK    3  A    between atoms: C_7  and  C_8 
REMARK    4  A    between atoms: C_8  and  O_9 
REMARK    5  A    between atoms: O_9  and  C_10 
REMARK    6  A    between atoms: C_11  and  C_12 
ROOT
HETATM    1  C   UNL     1       3.636  29.407  53.981  1.00  0.00     0.079 A 
HETATM    2  C   UNL     1       3.917  29.294  55.357  1.00  0.00    -0.002 A 
HETATM    3  C   UNL     1       3.990  30.445  56.153  1.00  0.00     0.014 A 
HETATM    4  C   UNL     1       3.799  31.704  55.586  1.00  0.00     0.001 A 
HETATM    5  C   UNL     1       3.542  31.819  54.222  1.00  0.00     0.003 A 
HETATM    6  C   UNL     1       3.465  30.677  53.420  1.00  0.00     0.037 A 
ENDROOT
BRANCH   1   7
HETATM    7  O   UNL     1       3.564  28.230  53.278  1.00  0.00    -0.346 OA
BRANCH   7   8
HETATM    8  C   UNL     1       4.628  27.902  52.380  1.00  0.00     0.214 C 
BRANCH   8   9
HETATM    9  C   UNL     1       5.532  26.799  52.888  1.00  0.00    -0.034 A 
HETATM   10  C   UNL     1       6.906  27.026  53.039  1.00  0.00     0.010 A 
HETATM   11  C   UNL     1       7.749  26.000  53.472  1.00  0.00     0.018 A 
HETATM   12  C   UNL     1       7.228  24.732  53.766  1.00  0.00     0.039 A 
HETATM   13  C   UNL     1       5.851  24.513  53.655  1.00  0.00     0.018 A 
HETATM   14  C   UNL     1       5.009  25.542  53.230  1.00  0.00     0.010 A 
BRANCH  12  15
HETATM   15  C   UNL     1       8.176  23.660  54.175  1.00  0.00     0.292 C 
HETATM   16  O   UNL     1       8.782  23.664  55.235  1.00  0.00    -0.259 OA
BRANCH  15  17
HETATM   17  O   UNL     1       8.291  22.729  53.195  1.00  0.00    -0.323 OA
HETATM   18  C   UNL     1       8.149  21.384  53.654  1.00  0.00     0.213 C 
ENDBRANCH  15  17
ENDBRANCH  12  15
ENDBRANCH   8   9
ENDBRANCH   7   8
ENDBRANCH   1   7
BRANCH   2  19
HETATM   19  C   UNL     1       4.125  27.990  55.993  1.00  0.00     0.032 C 
HETATM   20  C   UNL     1       5.305  27.515  56.419  1.00  0.00     0.045 A 
HETATM   21  C   UNL     1       5.390  26.140  57.026  1.00  0.00     0.257 A 
HETATM   22  C   UNL     1       6.658  28.075  56.418  1.00  0.00     0.006 A 
HETATM   23  O   UNL     1       4.483  25.351  57.214  1.00  0.00    -0.267 OA
HETATM   24  N   UNL     1       6.730  25.966  57.331  1.00  0.00    -0.322 N 
HETATM   25  C   UNL     1       7.478  27.088  56.981  1.00  0.00     0.046 A 
HETATM   26  H   UNL     1       7.089  25.125  57.753  1.00  0.00     0.169 HD
HETATM   27  C   UNL     1       8.837  27.255  57.149  1.00  0.00     0.030 A 
HETATM   28  C   UNL     1       9.392  28.467  56.733  1.00  0.00     0.002 A 
HETATM   29  C   UNL     1       8.582  29.470  56.167  1.00  0.00     0.001 A 
HETATM   30  C   UNL     1       7.205  29.277  56.007  1.00  0.00     0.015 A 
ENDBRANCH   2  19
TORSDOF 6
ENDMDL
MODEL 10
REMARK VINA RESULT:      -8.8      3.272      9.530
REMARK  6 active torsions:
REMARK  status: ('A' for Active; 'I' for Inactive)
REMARK    1  A    between atoms: O_2  and  C_3 
REMARK    2  A    between atoms: C_3  and  C_4 
REMARK    3  A    between atoms: C_7  and  C_8 
REMARK    4  A    between atoms: C_8  and  O_9 
REMARK    5  A    between atoms: O_9  and  C_10 
REMARK    6  A    between atoms: C_11  and  C_12 
ROOT
HETATM    1  C   UNL     1       8.292  29.251  57.407  1.00  0.00     0.079 A 
HETATM    2  C   UNL     1       8.200  30.576  57.875  1.00  0.00    -0.002 A 
HETATM    3  C   UNL     1       9.360  31.349  58.019  1.00  0.00     0.014 A 
HETATM    4  C   UNL     1      10.607  30.808  57.714  1.00  0.00     0.001 A 
HETATM    5  C   UNL     1      10.702  29.490  57.272  1.00  0.00     0.003 A 
HETATM    6  C   UNL     1       9.551  28.712  57.123  1.00  0.00     0.037 A 
ENDROOT
BRANCH   1   7
HETATM    7  O   UNL     1       7.107  28.570  57.278  1.00  0.00    -0.346 OA
BRANCH   7   8
HETATM    8  C   UNL     1       6.711  28.124  55.978  1.00  0.00     0.214 C 
BRANCH   8   9
HETATM    9  C   UNL     1       6.990  26.657  55.729  1.00  0.00    -0.034 A 
HETATM   10  C   UNL     1       7.091  26.170  54.419  1.00  0.00     0.010 A 
HETATM   11  C   UNL     1       7.313  24.811  54.185  1.00  0.00     0.018 A 
HETATM   12  C   UNL     1       7.441  23.919  55.259  1.00  0.00     0.039 A 
HETATM   13  C   UNL     1       7.381  24.407  56.569  1.00  0.00     0.018 A 
HETATM   14  C   UNL     1       7.168  25.767  56.800  1.00  0.00     0.010 A 
BRANCH  12  15
HETATM   15  C   UNL     1       7.624  22.474  54.955  1.00  0.00     0.292 C 
HETATM   16  O   UNL     1       7.594  21.597  55.804  1.00  0.00    -0.259 OA
BRANCH  15  17
HETATM   17  O   UNL     1       7.866  22.294  53.632  1.00  0.00    -0.323 OA
HETATM   18  C   UNL     1       7.902  20.924  53.230  1.00  0.00     0.213 C 
ENDBRANCH  15  17
ENDBRANCH  12  15
ENDBRANCH   8   9
ENDBRANCH   7   8
ENDBRANCH   1   7
BRANCH   2  19
HETATM   19  C   UNL     1       6.909  31.185  58.208  1.00  0.00     0.032 C 
HETATM   20  C   UNL     1       6.578  31.698  59.402  1.00  0.00     0.045 A 
HETATM   21  C   UNL     1       5.202  32.265  59.626  1.00  0.00     0.257 A 
HETATM   22  C   UNL     1       7.315  31.835  60.660  1.00  0.00     0.006 A 
HETATM   23  O   UNL     1       4.290  32.345  58.825  1.00  0.00    -0.267 OA
HETATM   24  N   UNL     1       5.197  32.680  60.948  1.00  0.00    -0.322 N 
HETATM   25  C   UNL     1       6.424  32.435  61.560  1.00  0.00     0.046 A 
HETATM   26  H   UNL     1       4.394  33.105  61.383  1.00  0.00     0.169 HD
HETATM   27  C   UNL     1       6.765  32.727  62.864  1.00  0.00     0.030 A 
HETATM   28  C   UNL     1       8.058  32.402  63.279  1.00  0.00     0.002 A 
HETATM   29  C   UNL     1       8.967  31.801  62.388  1.00  0.00     0.001 A 
HETATM   30  C   UNL     1       8.598  31.513  61.068  1.00  0.00     0.015 A 
ENDBRANCH   2  19
TORSDOF 6
ENDMDL
