MODEL 1
REMARK VINA RESULT:      -9.4      0.000      0.000
REMARK  7 active torsions:
REMARK  status: ('A' for Active; 'I' for Inactive)
REMARK    1  A    between atoms: C_2  and  C_3 
REMARK    2  A    between atoms: C_3  and  C_4 
REMARK    3  A    between atoms: C_3  and  C_12 
REMARK    4  A    between atoms: C_7  and  O_8 
REMARK    5  A    between atoms: C_12  and  C_13 
REMARK       I    between atoms: C_13  and  N_14 
REMARK    6  A    between atoms: N_14  and  C_15 
REMARK    7  A    between atoms: C_22  and  C_23 
REMARK       I    between atoms: C_23  and  N_24 
ROOT
HETATM    1  C   UNL     1       7.641  25.880  57.442  1.00  0.00     0.222 C 
HETATM    2  N   UNL     1       7.704  27.094  56.768  1.00  0.00    -0.327 N 
HETATM    3  O   UNL     1       8.224  25.622  58.485  1.00  0.00    -0.273 OA
HETATM    4  H   UNL     1       7.334  27.112  55.827  1.00  0.00     0.169 HD
ENDROOT
BRANCH   2   5
HETATM    5  C   UNL     1       8.359  28.267  57.205  1.00  0.00     0.035 A 
HETATM    6  C   UNL     1       7.790  29.174  58.110  1.00  0.00     0.046 A 
HETATM    7  C   UNL     1       8.511  30.326  58.490  1.00  0.00     0.030 A 
HETATM    8  C   UNL     1       9.781  30.527  57.963  1.00  0.00     0.063 A 
HETATM    9  C   UNL     1       8.277  31.453  59.333  1.00  0.00     0.156 A 
HETATM   10  N   UNL     1      10.225  31.691  58.524  1.00  0.00    -0.277 N 
HETATM   11  C   UNL     1      10.375  29.650  57.052  1.00  0.00     0.034 A 
HETATM   12  H   UNL     1      11.121  32.140  58.377  1.00  0.00     0.189 HD
HETATM   13  N   UNL     1       9.346  32.283  59.350  1.00  0.00    -0.168 NA
HETATM   14  C   UNL     1       9.631  28.524  56.675  1.00  0.00     0.032 A 
BRANCH   9  15
HETATM   15  C   UNL     1       7.064  31.758  60.106  1.00  0.00     0.270 C 
HETATM   16  N   UNL     1       7.034  31.186  61.348  1.00  0.00    -0.365 N 
HETATM   17  H   UNL     1       7.828  30.633  61.647  1.00  0.00     0.159 HD
HETATM   18  H   UNL     1       6.254  31.367  61.959  1.00  0.00     0.159 HD
HETATM   19  O   UNL     1       6.144  32.467  59.713  1.00  0.00    -0.266 OA
ENDBRANCH   9  15
ENDBRANCH   2   5
BRANCH   1  20
HETATM   20  C   UNL     1       6.790  24.867  56.682  1.00  0.00     0.112 C 
BRANCH  20  21
HETATM   21  C   UNL     1       7.406  24.179  55.445  1.00  0.00     0.027 C 
BRANCH  21  22
HETATM   22  C   UNL     1       7.453  22.640  55.554  1.00  0.00     0.005 C 
HETATM   23  C   UNL     1       8.840  22.070  55.277  1.00  0.00     0.006 C 
ENDBRANCH  21  22
BRANCH  21  24
HETATM   24  C   UNL     1       6.834  24.685  54.128  1.00  0.00    -0.053 A 
HETATM   25  C   UNL     1       5.481  25.006  53.970  1.00  0.00     0.010 A 
HETATM   26  C   UNL     1       4.987  25.439  52.735  1.00  0.00     0.037 A 
HETATM   27  C   UNL     1       5.825  25.543  51.627  1.00  0.00     0.068 A 
HETATM   28  C   UNL     1       7.176  25.237  51.771  1.00  0.00     0.037 A 
HETATM   29  C   UNL     1       7.675  24.815  53.010  1.00  0.00     0.010 A 
BRANCH  27  30
HETATM   30  O   UNL     1       5.211  25.955  50.477  1.00  0.00    -0.356 OA
HETATM   31  C   UNL     1       4.781  27.309  50.435  1.00  0.00     0.210 C 
ENDBRANCH  27  30
ENDBRANCH  21  24
ENDBRANCH  20  21
ENDBRANCH   1  20
TORSDOF 7
ENDMDL
MODEL 2
REMARK VINA RESULT:      -9.1      4.309      8.036
REMARK  7 active torsions:
REMARK  status: ('A' for Active; 'I' for Inactive)
REMARK    1  A    between atoms: C_2  and  C_3 
REMARK    2  A    between atoms: C_3  and  C_4 
REMARK    3  A    between atoms: C_3  and  C_12 
REMARK    4  A    between atoms: C_7  and  O_8 
REMARK    5  A    between atoms: C_12  and  C_13 
REMARK       I    between atoms: C_13  and  N_14 
REMARK    6  A    between atoms: N_14  and  C_15 
REMARK    7  A    between atoms: C_22  and  C_23 
REMARK       I    between atoms: C_23  and  N_24 
ROOT
HETATM    1  C   UNL     1       7.555  24.325  52.584  1.00  0.00     0.222 C 
HETATM    2  N   UNL     1       6.182  24.528  52.509  1.00  0.00    -0.327 N 
HETATM    3  O   UNL     1       8.405  25.089  52.151  1.00  0.00    -0.273 OA
HETATM    4  H   UNL     1       5.592  23.737  52.731  1.00  0.00     0.169 HD
ENDROOT
BRANCH   2   5
HETATM    5  C   UNL     1       5.526  25.678  52.018  1.00  0.00     0.035 A 
HETATM    6  C   UNL     1       5.357  25.944  50.651  1.00  0.00     0.046 A 
HETATM    7  C   UNL     1       4.693  27.121  50.246  1.00  0.00     0.030 A 
HETATM    8  C   UNL     1       4.209  27.987  51.218  1.00  0.00     0.063 A 
HETATM    9  C   UNL     1       4.357  27.735  49.002  1.00  0.00     0.156 A 
HETATM   10  N   UNL     1       3.609  29.003  50.530  1.00  0.00    -0.277 N 
HETATM   11  C   UNL     1       4.368  27.760  52.587  1.00  0.00     0.034 A 
HETATM   12  H   UNL     1       3.136  29.812  50.917  1.00  0.00     0.189 HD
HETATM   13  N   UNL     1       3.682  28.892  49.193  1.00  0.00    -0.168 NA
HETATM   14  C   UNL     1       5.048  26.595  52.964  1.00  0.00     0.032 A 
BRANCH   9  15
HETATM   15  C   UNL     1       4.673  27.251  47.650  1.00  0.00     0.270 C 
HETATM   16  N   UNL     1       5.974  27.451  47.274  1.00  0.00    -0.365 N 
HETATM   17  H   UNL     1       6.610  27.880  47.936  1.00  0.00     0.159 HD
HETATM   18  H   UNL     1       6.287  27.122  46.375  1.00  0.00     0.159 HD
HETATM   19  O   UNL     1       3.875  26.702  46.899  1.00  0.00    -0.266 OA
ENDBRANCH   9  15
ENDBRANCH   2   5
BRANCH   1  20
HETATM   20  C   UNL     1       7.883  22.983  53.230  1.00  0.00     0.112 C 
BRANCH  20  21
HETATM   21  C   UNL     1       7.236  22.652  54.592  1.00  0.00     0.027 C 
BRANCH  21  22
HETATM   22  C   UNL     1       7.617  21.257  55.134  1.00  0.00     0.005 C 
HETATM   23  C   UNL     1       8.308  20.386  54.091  1.00  0.00     0.006 C 
ENDBRANCH  21  22
BRANCH  21  24
HETATM   24  C   UNL     1       7.382  23.769  55.617  1.00  0.00    -0.053 A 
HETATM   25  C   UNL     1       6.341  24.655  55.915  1.00  0.00     0.010 A 
HETATM   26  C   UNL     1       6.523  25.689  56.840  1.00  0.00     0.037 A 
HETATM   27  C   UNL     1       7.750  25.873  57.474  1.00  0.00     0.068 A 
HETATM   28  C   UNL     1       8.792  24.992  57.195  1.00  0.00     0.037 A 
HETATM   29  C   UNL     1       8.608  23.949  56.278  1.00  0.00     0.010 A 
BRANCH  27  30
HETATM   30  O   UNL     1       7.800  26.932  58.337  1.00  0.00    -0.356 OA
HETATM   31  C   UNL     1       7.601  28.222  57.773  1.00  0.00     0.210 C 
ENDBRANCH  27  30
ENDBRANCH  21  24
ENDBRANCH  20  21
ENDBRANCH   1  20
TORSDOF 7
ENDMDL
MODEL 3
REMARK VINA RESULT:      -8.7      2.033      3.712
REMARK  7 active torsions:
REMARK  status: ('A' for Active; 'I' for Inactive)
REMARK    1  A    between atoms: C_2  and  C_3 
REMARK    2  A    between atoms: C_3  and  C_4 
REMARK    3  A    between atoms: C_3  and  C_12 
REMARK    4  A    between atoms: C_7  and  O_8 
REMARK    5  A    between atoms: C_12  and  C_13 
REMARK       I    between atoms: C_13  and  N_14 
REMARK    6  A    between atoms: N_14  and  C_15 
REMARK    7  A    between atoms: C_22  and  C_23 
REMARK       I    between atoms: C_23  and  N_24 
ROOT
HETATM    1  C   UNL     1       6.147  27.596  55.674  1.00  0.00     0.222 C 
HETATM    2  N   UNL     1       7.279  27.479  56.471  1.00  0.00    -0.327 N 
HETATM    3  O   UNL     1       5.627  28.650  55.337  1.00  0.00    -0.273 OA
HETATM    4  H   UNL     1       7.490  26.557  56.829  1.00  0.00     0.169 HD
ENDROOT
BRANCH   2   5
HETATM    5  C   UNL     1       8.086  28.536  56.949  1.00  0.00     0.035 A 
HETATM    6  C   UNL     1       7.839  29.207  58.155  1.00  0.00     0.046 A 
HETATM    7  C   UNL     1       8.692  30.256  58.557  1.00  0.00     0.030 A 
HETATM    8  C   UNL     1       9.769  30.592  57.748  1.00  0.00     0.063 A 
HETATM    9  C   UNL     1       8.758  31.162  59.658  1.00  0.00     0.156 A 
HETATM   10  N   UNL     1      10.408  31.608  58.401  1.00  0.00    -0.277 N 
HETATM   11  C   UNL     1      10.040  29.953  56.536  1.00  0.00     0.034 A 
HETATM   12  H   UNL     1      11.248  32.095  58.106  1.00  0.00     0.189 HD
HETATM   13  N   UNL     1       9.828  31.985  59.552  1.00  0.00    -0.168 NA
HETATM   14  C   UNL     1       9.167  28.927  56.149  1.00  0.00     0.032 A 
BRANCH   9  15
HETATM   15  C   UNL     1       7.828  31.265  60.792  1.00  0.00     0.270 C 
HETATM   16  N   UNL     1       6.593  31.750  60.460  1.00  0.00    -0.365 N 
HETATM   17  H   UNL     1       6.404  31.975  59.490  1.00  0.00     0.159 HD
HETATM   18  H   UNL     1       5.882  31.825  61.168  1.00  0.00     0.159 HD
HETATM   19  O   UNL     1       8.092  30.943  61.945  1.00  0.00    -0.266 OA
ENDBRANCH   9  15
ENDBRANCH   2   5
BRANCH   1  20
HETATM   20  C   UNL     1       5.582  26.227  55.309  1.00  0.00     0.112 C 
BRANCH  20  21
HETATM   21  C   UNL     1       6.031  25.582  53.981  1.00  0.00     0.027 C 
BRANCH  21  22
HETATM   22  C   UNL     1       6.720  26.571  53.016  1.00  0.00     0.005 C 
HETATM   23  C   UNL     1       5.805  27.028  51.885  1.00  0.00     0.006 C 
ENDBRANCH  21  22
BRANCH  21  24
HETATM   24  C   UNL     1       6.793  24.278  54.171  1.00  0.00    -0.053 A 
HETATM   25  C   UNL     1       7.272  23.523  53.094  1.00  0.00     0.010 A 
HETATM   26  C   UNL     1       7.941  22.314  53.307  1.00  0.00     0.037 A 
HETATM   27  C   UNL     1       8.132  21.821  54.597  1.00  0.00     0.068 A 
HETATM   28  C   UNL     1       7.671  22.566  55.680  1.00  0.00     0.037 A 
HETATM   29  C   UNL     1       7.011  23.784  55.468  1.00  0.00     0.010 A 
BRANCH  27  30
HETATM   30  O   UNL     1       8.781  20.620  54.664  1.00  0.00    -0.356 OA
HETATM   31  C   UNL     1       9.356  20.276  55.918  1.00  0.00     0.210 C 
ENDBRANCH  27  30
ENDBRANCH  21  24
ENDBRANCH  20  21
ENDBRANCH   1  20
TORSDOF 7
ENDMDL
MODEL 4
REMARK VINA RESULT:      -8.7      3.184      8.977
REMARK  7 active torsions:
REMARK  status: ('A' for Active; 'I' for Inactive)
REMARK    1  A    between atoms: C_2  and  C_3 
REMARK    2  A    between atoms: C_3  and  C_4 
REMARK    3  A    between atoms: C_3  and  C_12 
REMARK    4  A    between atoms: C_7  and  O_8 
REMARK    5  A    between atoms: C_12  and  C_13 
REMARK       I    between atoms: C_13  and  N_14 
REMARK    6  A    between atoms: N_14  and  C_15 
REMARK    7  A    between atoms: C_22  and  C_23 
REMARK       I    between atoms: C_23  and  N_24 
ROOT
HETATM    1  C   UNL     1       7.946  26.727  56.880  1.00  0.00     0.222 C 
HETATM    2  N   UNL     1       7.276  26.364  55.718  1.00  0.00    -0.327 N 
HETATM    3  O   UNL     1       8.729  26.017  57.494  1.00  0.00    -0.273 OA
HETATM    4  H   UNL     1       6.520  26.967  55.422  1.00  0.00     0.169 HD
ENDROOT
BRANCH   2   5
HETATM    5  C   UNL     1       7.447  25.168  54.986  1.00  0.00     0.035 A 
HETATM    6  C   UNL     1       7.819  23.952  55.576  1.00  0.00     0.046 A 
HETATM    7  C   UNL     1       7.973  22.804  54.770  1.00  0.00     0.030 A 
HETATM    8  C   UNL     1       7.738  22.907  53.405  1.00  0.00     0.063 A 
HETATM    9  C   UNL     1       8.347  21.443  54.981  1.00  0.00     0.156 A 
HETATM   10  N   UNL     1       7.943  21.650  52.908  1.00  0.00    -0.277 N 
HETATM   11  C   UNL     1       7.377  24.104  52.782  1.00  0.00     0.034 A 
HETATM   12  H   UNL     1       7.849  21.349  51.944  1.00  0.00     0.189 HD
HETATM   13  N   UNL     1       8.316  20.742  53.824  1.00  0.00    -0.168 NA
HETATM   14  C   UNL     1       7.250  25.234  53.600  1.00  0.00     0.032 A 
BRANCH   9  15
HETATM   15  C   UNL     1       8.740  20.807  56.247  1.00  0.00     0.270 C 
HETATM   16  N   UNL     1       9.755  19.899  56.125  1.00  0.00    -0.365 N 
HETATM   17  H   UNL     1      10.166  19.749  55.211  1.00  0.00     0.159 HD
HETATM   18  H   UNL     1      10.110  19.438  56.947  1.00  0.00     0.159 HD
HETATM   19  O   UNL     1       8.236  21.051  57.337  1.00  0.00    -0.266 OA
ENDBRANCH   9  15
ENDBRANCH   2   5
BRANCH   1  20
HETATM   20  C   UNL     1       7.538  28.122  57.344  1.00  0.00     0.112 C 
BRANCH  20  21
HETATM   21  C   UNL     1       8.644  29.084  57.827  1.00  0.00     0.027 C 
BRANCH  21  22
HETATM   22  C   UNL     1       9.555  29.598  56.691  1.00  0.00     0.005 C 
HETATM   23  C   UNL     1      11.002  29.787  57.135  1.00  0.00     0.006 C 
ENDBRANCH  21  22
BRANCH  21  24
HETATM   24  C   UNL     1       8.128  30.183  58.746  1.00  0.00    -0.053 A 
HETATM   25  C   UNL     1       8.695  30.442  59.999  1.00  0.00     0.010 A 
HETATM   26  C   UNL     1       8.175  31.440  60.828  1.00  0.00     0.037 A 
HETATM   27  C   UNL     1       7.068  32.190  60.435  1.00  0.00     0.068 A 
HETATM   28  C   UNL     1       6.500  31.952  59.186  1.00  0.00     0.037 A 
HETATM   29  C   UNL     1       7.027  30.960  58.349  1.00  0.00     0.010 A 
BRANCH  27  30
HETATM   30  O   UNL     1       6.646  33.117  61.348  1.00  0.00    -0.356 OA
HETATM   31  C   UNL     1       5.359  33.681  61.134  1.00  0.00     0.210 C 
ENDBRANCH  27  30
ENDBRANCH  21  24
ENDBRANCH  20  21
ENDBRANCH   1  20
TORSDOF 7
ENDMDL
MODEL 5
REMARK VINA RESULT:      -8.5      2.605      4.503
REMARK  7 active torsions:
REMARK  status: ('A' for Active; 'I' for Inactive)
REMARK    1  A    between atoms: C_2  and  C_3 
REMARK    2  A    between atoms: C_3  and  C_4 
REMARK    3  A    between atoms: C_3  and  C_12 
REMARK    4  A    between atoms: C_7  and  O_8 
REMARK    5  A    between atoms: C_12  and  C_13 
REMARK       I    between atoms: C_13  and  N_14 
REMARK    6  A    between atoms: N_14  and  C_15 
REMARK    7  A    between atoms: C_22  and  C_23 
REMARK       I    between atoms: C_23  and  N_24 
ROOT
HETATM    1  C   UNL     1       7.373  27.584  54.047  1.00  0.00     0.222 C 
HETATM    2  N   UNL     1       6.287  27.628  54.913  1.00  0.00    -0.327 N 
HETATM    3  O   UNL     1       8.225  28.454  53.940  1.00  0.00    -0.273 OA
HETATM    4  H   UNL     1       5.561  26.939  54.767  1.00  0.00     0.169 HD
ENDROOT
BRANCH   2   5
HETATM    5  C   UNL     1       6.023  28.618  55.885  1.00  0.00     0.035 A 
HETATM    6  C   UNL     1       6.991  29.094  56.781  1.00  0.00     0.046 A 
HETATM    7  C   UNL     1       6.642  30.083  57.725  1.00  0.00     0.030 A 
HETATM    8  C   UNL     1       5.342  30.572  57.735  1.00  0.00     0.063 A 
HETATM    9  C   UNL     1       7.308  30.779  58.779  1.00  0.00     0.156 A 
HETATM   10  N   UNL     1       5.318  31.513  58.725  1.00  0.00    -0.277 N 
HETATM   11  C   UNL     1       4.350  30.114  56.865  1.00  0.00     0.034 A 
HETATM   12  H   UNL     1       4.531  32.086  59.008  1.00  0.00     0.189 HD
HETATM   13  N   UNL     1       6.480  31.664  59.381  1.00  0.00    -0.168 NA
HETATM   14  C   UNL     1       4.716  29.118  55.950  1.00  0.00     0.032 A 
BRANCH   9  15
HETATM   15  C   UNL     1       8.699  30.611  59.224  1.00  0.00     0.270 C 
HETATM   16  N   UNL     1       9.630  31.092  58.344  1.00  0.00    -0.365 N 
HETATM   17  H   UNL     1       9.309  31.534  57.491  1.00  0.00     0.159 HD
HETATM   18  H   UNL     1      10.607  31.048  58.582  1.00  0.00     0.159 HD
HETATM   19  O   UNL     1       9.036  30.103  60.287  1.00  0.00    -0.266 OA
ENDBRANCH   9  15
ENDBRANCH   2   5
BRANCH   1  20
HETATM   20  C   UNL     1       7.346  26.326  53.186  1.00  0.00     0.112 C 
BRANCH  20  21
HETATM   21  C   UNL     1       6.332  25.218  53.544  1.00  0.00     0.027 C 
BRANCH  21  22
HETATM   22  C   UNL     1       5.174  25.088  52.531  1.00  0.00     0.005 C 
HETATM   23  C   UNL     1       5.466  25.787  51.208  1.00  0.00     0.006 C 
ENDBRANCH  21  22
BRANCH  21  24
HETATM   24  C   UNL     1       6.990  23.891  53.898  1.00  0.00    -0.053 A 
HETATM   25  C   UNL     1       7.198  23.485  55.221  1.00  0.00     0.010 A 
HETATM   26  C   UNL     1       7.833  22.272  55.507  1.00  0.00     0.037 A 
HETATM   27  C   UNL     1       8.292  21.446  54.482  1.00  0.00     0.068 A 
HETATM   28  C   UNL     1       8.082  21.832  53.160  1.00  0.00     0.037 A 
HETATM   29  C   UNL     1       7.435  23.041  52.872  1.00  0.00     0.010 A 
BRANCH  27  30
HETATM   30  O   UNL     1       8.914  20.303  54.898  1.00  0.00    -0.356 OA
HETATM   31  C   UNL     1       9.243  20.223  56.279  1.00  0.00     0.210 C 
ENDBRANCH  27  30
ENDBRANCH  21  24
ENDBRANCH  20  21
ENDBRANCH   1  20
TORSDOF 7
ENDMDL
MODEL 6
REMARK VINA RESULT:      -8.4      3.375      6.172
REMARK  7 active torsions:
REMARK  status: ('A' for Active; 'I' for Inactive)
REMARK    1  A    between atoms: C_2  and  C_3 
REMARK    2  A    between atoms: C_3  and  C_4 
REMARK    3  A    between atoms: C_3  and  C_12 
REMARK    4  A    between atoms: C_7  and  O_8 
REMARK    5  A    between atoms: C_12  and  C_13 
REMARK       I    between atoms: C_13  and  N_14 
REMARK    6  A    between atoms: N_14  and  C_15 
REMARK    7  A    between atoms: C_22  and  C_23 
REMARK       I    between atoms: C_23  and  N_24 
ROOT
HETATM    1  C   UNL     1       7.505  24.132  52.698  1.00  0.00     0.222 C 
HETATM    2  N   UNL     1       6.146  24.418  52.650  1.00  0.00    -0.327 N 
HETATM    3  O   UNL     1       8.402  24.930  52.473  1.00  0.00    -0.273 OA
HETATM    4  H   UNL     1       5.514  23.629  52.669  1.00  0.00     0.169 HD
ENDROOT
BRANCH   2   5
HETATM    5  C   UNL     1       5.559  25.685  52.435  1.00  0.00     0.035 A 
HETATM    6  C   UNL     1       5.320  26.607  53.464  1.00  0.00     0.046 A 
HETATM    7  C   UNL     1       4.724  27.850  53.162  1.00  0.00     0.030 A 
HETATM    8  C   UNL     1       4.398  28.134  51.842  1.00  0.00     0.063 A 
HETATM    9  C   UNL     1       4.313  28.999  53.902  1.00  0.00     0.156 A 
HETATM   10  N   UNL     1       3.868  29.394  51.865  1.00  0.00    -0.277 N 
HETATM   11  C   UNL     1       4.611  27.236  50.794  1.00  0.00     0.034 A 
HETATM   12  H   UNL     1       3.529  29.932  51.075  1.00  0.00     0.189 HD
HETATM   13  N   UNL     1       3.794  29.946  53.087  1.00  0.00    -0.168 NA
HETATM   14  C   UNL     1       5.186  26.001  51.121  1.00  0.00     0.032 A 
BRANCH   9  15
HETATM   15  C   UNL     1       4.395  29.205  55.355  1.00  0.00     0.270 C 
HETATM   16  N   UNL     1       3.857  28.189  56.096  1.00  0.00    -0.365 N 
HETATM   17  H   UNL     1       3.474  27.385  55.612  1.00  0.00     0.159 HD
HETATM   18  H   UNL     1       3.897  28.231  57.101  1.00  0.00     0.159 HD
HETATM   19  O   UNL     1       4.903  30.181  55.896  1.00  0.00    -0.266 OA
ENDBRANCH   9  15
ENDBRANCH   2   5
BRANCH   1  20
HETATM   20  C   UNL     1       7.751  22.660  53.014  1.00  0.00     0.112 C 
BRANCH  20  21
HETATM   21  C   UNL     1       7.700  22.212  54.490  1.00  0.00     0.027 C 
BRANCH  21  22
HETATM   22  C   UNL     1       8.697  21.082  54.829  1.00  0.00     0.005 C 
HETATM   23  C   UNL     1       8.215  20.190  55.968  1.00  0.00     0.006 C 
ENDBRANCH  21  22
BRANCH  21  24
HETATM   24  C   UNL     1       7.731  23.374  55.474  1.00  0.00    -0.053 A 
HETATM   25  C   UNL     1       8.916  23.824  56.067  1.00  0.00     0.010 A 
HETATM   26  C   UNL     1       8.901  24.875  56.990  1.00  0.00     0.037 A 
HETATM   27  C   UNL     1       7.704  25.487  57.356  1.00  0.00     0.068 A 
HETATM   28  C   UNL     1       6.518  25.057  56.766  1.00  0.00     0.037 A 
HETATM   29  C   UNL     1       6.533  24.012  55.833  1.00  0.00     0.010 A 
BRANCH  27  30
HETATM   30  O   UNL     1       7.827  26.485  58.283  1.00  0.00    -0.356 OA
HETATM   31  C   UNL     1       7.581  27.809  57.829  1.00  0.00     0.210 C 
ENDBRANCH  27  30
ENDBRANCH  21  24
ENDBRANCH  20  21
ENDBRANCH   1  20
TORSDOF 7
ENDMDL
MODEL 7
REMARK VINA RESULT:      -8.4      3.835     10.088
REMARK  7 active torsions:
REMARK  status: ('A' for Active; 'I' for Inactive)
REMARK    1  A    between atoms: C_2  and  C_3 
REMARK    2  A    between atoms: C_3  and  C_4 
REMARK    3  A    between atoms: C_3  and  C_12 
REMARK    4  A    between atoms: C_7  and  O_8 
REMARK    5  A    between atoms: C_12  and  C_13 
REMARK       I    between atoms: C_13  and  N_14 
REMARK    6  A    between atoms: N_14  and  C_15 
REMARK    7  A    between atoms: C_22  and  C_23 
REMARK       I    between atoms: C_23  and  N_24 
ROOT
HETATM    1  C   UNL     1       7.547  31.776  59.408  1.00  0.00     0.222 C 
HETATM    2  N   UNL     1       6.875  30.605  59.080  1.00  0.00    -0.327 N 
HETATM    3  O   UNL     1       8.493  32.244  58.790  1.00  0.00    -0.273 OA
HETATM    4  H   UNL     1       6.243  30.233  59.776  1.00  0.00     0.169 HD
ENDROOT
BRANCH   2   5
HETATM    5  C   UNL     1       7.088  29.804  57.936  1.00  0.00     0.035 A 
HETATM    6  C   UNL     1       6.228  29.799  56.829  1.00  0.00     0.046 A 
HETATM    7  C   UNL     1       6.512  28.963  55.728  1.00  0.00     0.030 A 
HETATM    8  C   UNL     1       7.651  28.171  55.764  1.00  0.00     0.063 A 
HETATM    9  C   UNL     1       5.894  28.668  54.476  1.00  0.00     0.156 A 
HETATM   10  N   UNL     1       7.666  27.505  54.571  1.00  0.00    -0.277 N 
HETATM   11  C   UNL     1       8.525  28.142  56.854  1.00  0.00     0.034 A 
HETATM   12  H   UNL     1       8.363  26.844  54.246  1.00  0.00     0.189 HD
HETATM   13  N   UNL     1       6.622  27.772  53.770  1.00  0.00    -0.168 NA
HETATM   14  C   UNL     1       8.211  28.965  57.943  1.00  0.00     0.032 A 
BRANCH   9  15
HETATM   15  C   UNL     1       4.632  29.209  53.949  1.00  0.00     0.270 C 
HETATM   16  N   UNL     1       4.663  30.552  53.694  1.00  0.00    -0.365 N 
HETATM   17  H   UNL     1       5.525  31.058  53.857  1.00  0.00     0.159 HD
HETATM   18  H   UNL     1       3.852  31.002  53.301  1.00  0.00     0.159 HD
HETATM   19  O   UNL     1       3.624  28.546  53.732  1.00  0.00    -0.266 OA
ENDBRANCH   9  15
ENDBRANCH   2   5
BRANCH   1  20
HETATM   20  C   UNL     1       6.995  32.392  60.690  1.00  0.00     0.112 C 
BRANCH  20  21
HETATM   21  C   UNL     1       7.512  31.854  62.040  1.00  0.00     0.027 C 
BRANCH  21  22
HETATM   22  C   UNL     1       9.048  31.704  62.099  1.00  0.00     0.005 C 
HETATM   23  C   UNL     1       9.501  30.248  62.083  1.00  0.00     0.006 C 
ENDBRANCH  21  22
BRANCH  21  24
HETATM   24  C   UNL     1       6.919  32.574  63.244  1.00  0.00    -0.053 A 
HETATM   25  C   UNL     1       7.714  33.123  64.257  1.00  0.00     0.010 A 
HETATM   26  C   UNL     1       7.131  33.750  65.363  1.00  0.00     0.037 A 
HETATM   27  C   UNL     1       5.746  33.829  65.493  1.00  0.00     0.068 A 
HETATM   28  C   UNL     1       4.943  33.297  64.487  1.00  0.00     0.037 A 
HETATM   29  C   UNL     1       5.525  32.678  63.373  1.00  0.00     0.010 A 
BRANCH  27  30
HETATM   30  O   UNL     1       5.308  34.447  66.630  1.00  0.00    -0.356 OA
HETATM   31  C   UNL     1       3.927  34.780  66.683  1.00  0.00     0.210 C 
ENDBRANCH  27  30
ENDBRANCH  21  24
ENDBRANCH  20  21
ENDBRANCH   1  20
TORSDOF 7
ENDMDL
MODEL 8
REMARK VINA RESULT:      -8.4      3.248      8.674
REMARK  7 active torsions:
REMARK  status: ('A' for Active; 'I' for Inactive)
REMARK    1  A    between atoms: C_2  and  C_3 
REMARK    2  A    between atoms: C_3  and  C_4 
REMARK    3  A    between atoms: C_3  and  C_12 
REMARK    4  A    between atoms: C_7  and  O_8 
REMARK    5  A    between atoms: C_12  and  C_13 
REMARK       I    between atoms: C_13  and  N_14 
REMARK    6  A    between atoms: N_14  and  C_15 
REMARK    7  A    between atoms: C_22  and  C_23 
REMARK       I    between atoms: C_23  and  N_24 
ROOT
HETATM    1  C   UNL     1       5.662  26.478  56.629  1.00  0.00     0.222 C 
HETATM    2  N   UNL     1       6.667  26.365  55.676  1.00  0.00    -0.327 N 
HETATM    3  O   UNL     1       4.856  25.603  56.911  1.00  0.00    -0.273 OA
HETATM    4  H   UNL     1       7.138  27.219  55.408  1.00  0.00     0.169 HD
ENDROOT
BRANCH   2   5
HETATM    5  C   UNL     1       7.005  25.207  54.941  1.00  0.00     0.035 A 
HETATM    6  C   UNL     1       7.496  24.035  55.534  1.00  0.00     0.046 A 
HETATM    7  C   UNL     1       7.814  22.924  54.723  1.00  0.00     0.030 A 
HETATM    8  C   UNL     1       7.620  23.017  53.352  1.00  0.00     0.063 A 
HETATM    9  C   UNL     1       8.339  21.614  54.937  1.00  0.00     0.156 A 
HETATM   10  N   UNL     1       7.990  21.800  52.852  1.00  0.00    -0.277 N 
HETATM   11  C   UNL     1       7.143  24.171  52.726  1.00  0.00     0.034 A 
HETATM   12  H   UNL     1       7.969  21.502  51.883  1.00  0.00     0.189 HD
HETATM   13  N   UNL     1       8.434  20.929  53.773  1.00  0.00    -0.168 NA
HETATM   14  C   UNL     1       6.853  25.267  53.549  1.00  0.00     0.032 A 
BRANCH   9  15
HETATM   15  C   UNL     1       8.757  21.012  56.211  1.00  0.00     0.270 C 
HETATM   16  N   UNL     1       9.646  19.981  56.078  1.00  0.00    -0.365 N 
HETATM   17  H   UNL     1       9.960  19.727  55.148  1.00  0.00     0.159 HD
HETATM   18  H   UNL     1      10.010  19.530  56.901  1.00  0.00     0.159 HD
HETATM   19  O   UNL     1       8.376  21.380  57.316  1.00  0.00    -0.266 OA
ENDBRANCH   9  15
ENDBRANCH   2   5
BRANCH   1  20
HETATM   20  C   UNL     1       5.643  27.869  57.253  1.00  0.00     0.112 C 
BRANCH  20  21
HETATM   21  C   UNL     1       6.382  29.008  56.520  1.00  0.00     0.027 C 
BRANCH  21  22
HETATM   22  C   UNL     1       5.473  29.834  55.584  1.00  0.00     0.005 C 
HETATM   23  C   UNL     1       3.998  29.742  55.961  1.00  0.00     0.006 C 
ENDBRANCH  21  22
BRANCH  21  24
HETATM   24  C   UNL     1       7.247  29.858  57.442  1.00  0.00    -0.053 A 
HETATM   25  C   UNL     1       6.724  30.907  58.206  1.00  0.00     0.010 A 
HETATM   26  C   UNL     1       7.555  31.685  59.018  1.00  0.00     0.037 A 
HETATM   27  C   UNL     1       8.927  31.446  59.074  1.00  0.00     0.068 A 
HETATM   28  C   UNL     1       9.460  30.397  58.328  1.00  0.00     0.037 A 
HETATM   29  C   UNL     1       8.627  29.610  57.523  1.00  0.00     0.010 A 
BRANCH  27  30
HETATM   30  O   UNL     1       9.627  32.292  59.889  1.00  0.00    -0.356 OA
HETATM   31  C   UNL     1       9.764  31.898  61.247  1.00  0.00     0.210 C 
ENDBRANCH  27  30
ENDBRANCH  21  24
ENDBRANCH  20  21
ENDBRANCH   1  20
TORSDOF 7
ENDMDL
MODEL 9
REMARK VINA RESULT:      -8.3      2.323      3.983
REMARK  7 active torsions:
REMARK  status: ('A' for Active; 'I' for Inactive)
REMARK    1  A    between atoms: C_2  and  C_3 
REMARK    2  A    between atoms: C_3  and  C_4 
REMARK    3  A    between atoms: C_3  and  C_12 
REMARK    4  A    between atoms: C_7  and  O_8 
REMARK    5  A    between atoms: C_12  and  C_13 
REMARK       I    between atoms: C_13  and  N_14 
REMARK    6  A    between atoms: N_14  and  C_15 
REMARK    7  A    between atoms: C_22  and  C_23 
REMARK       I    between atoms: C_23  and  N_24 
ROOT
HETATM    1  C   UNL     1       7.227  27.420  55.040  1.00  0.00     0.222 C 
HETATM    2  N   UNL     1       8.133  28.409  55.404  1.00  0.00    -0.327 N 
HETATM    3  O   UNL     1       6.222  27.118  55.667  1.00  0.00    -0.273 OA
HETATM    4  H   UNL     1       9.013  28.426  54.906  1.00  0.00     0.169 HD
ENDROOT
BRANCH   2   5
HETATM    5  C   UNL     1       8.013  29.302  56.492  1.00  0.00     0.035 A 
HETATM    6  C   UNL     1       6.792  29.862  56.897  1.00  0.00     0.046 A 
HETATM    7  C   UNL     1       6.762  30.751  57.992  1.00  0.00     0.030 A 
HETATM    8  C   UNL     1       7.948  31.042  58.653  1.00  0.00     0.063 A 
HETATM    9  C   UNL     1       5.764  31.515  58.667  1.00  0.00     0.156 A 
HETATM   10  N   UNL     1       7.600  31.896  59.661  1.00  0.00    -0.277 N 
HETATM   11  C   UNL     1       9.183  30.512  58.271  1.00  0.00     0.034 A 
HETATM   12  H   UNL     1       8.212  32.309  60.355  1.00  0.00     0.189 HD
HETATM   13  N   UNL     1       6.295  32.211  59.700  1.00  0.00    -0.168 NA
HETATM   14  C   UNL     1       9.191  29.647  57.168  1.00  0.00     0.032 A 
BRANCH   9  15
HETATM   15  C   UNL     1       4.332  31.603  58.345  1.00  0.00     0.270 C 
HETATM   16  N   UNL     1       3.608  30.500  58.708  1.00  0.00    -0.365 N 
HETATM   17  H   UNL     1       4.085  29.739  59.176  1.00  0.00     0.159 HD
HETATM   18  H   UNL     1       2.613  30.486  58.555  1.00  0.00     0.159 HD
HETATM   19  O   UNL     1       3.793  32.566  57.811  1.00  0.00    -0.266 OA
ENDBRANCH   9  15
ENDBRANCH   2   5
BRANCH   1  20
HETATM   20  C   UNL     1       7.673  26.699  53.771  1.00  0.00     0.112 C 
BRANCH  20  21
HETATM   21  C   UNL     1       6.775  25.571  53.220  1.00  0.00     0.027 C 
BRANCH  21  22
HETATM   22  C   UNL     1       6.520  25.671  51.700  1.00  0.00     0.005 C 
HETATM   23  C   UNL     1       5.042  25.552  51.341  1.00  0.00     0.006 C 
ENDBRANCH  21  22
BRANCH  21  24
HETATM   24  C   UNL     1       7.200  24.183  53.681  1.00  0.00    -0.053 A 
HETATM   25  C   UNL     1       7.146  23.789  55.023  1.00  0.00     0.010 A 
HETATM   26  C   UNL     1       7.574  22.515  55.412  1.00  0.00     0.037 A 
HETATM   27  C   UNL     1       8.080  21.614  54.477  1.00  0.00     0.068 A 
HETATM   28  C   UNL     1       8.128  21.989  53.136  1.00  0.00     0.037 A 
HETATM   29  C   UNL     1       7.690  23.260  52.743  1.00  0.00     0.010 A 
BRANCH  27  30
HETATM   30  O   UNL     1       8.483  20.414  54.993  1.00  0.00    -0.356 OA
HETATM   31  C   UNL     1       9.013  20.434  56.311  1.00  0.00     0.210 C 
ENDBRANCH  27  30
ENDBRANCH  21  24
ENDBRANCH  20  21
ENDBRANCH   1  20
TORSDOF 7
ENDMDL
MODEL 10
REMARK VINA RESULT:      -8.2      5.055      8.034
REMARK  7 active torsions:
REMARK  status: ('A' for Active; 'I' for Inactive)
REMARK    1  A    between atoms: C_2  and  C_3 
REMARK    2  A    between atoms: C_3  and  C_4 
REMARK    3  A    between atoms: C_3  and  C_12 
REMARK    4  A    between atoms: C_7  and  O_8 
REMARK    5  A    between atoms: C_12  and  C_13 
REMARK       I    between atoms: C_13  and  N_14 
REMARK    6  A    between atoms: N_14  and  C_15 
REMARK    7  A    between atoms: C_22  and  C_23 
REMARK       I    between atoms: C_23  and  N_24 
ROOT
HETATM    1  C   UNL     1       5.628  25.775  51.911  1.00  0.00     0.222 C 
HETATM    2  N   UNL     1       6.865  25.804  52.544  1.00  0.00    -0.327 N 
HETATM    3  O   UNL     1       4.676  25.090  52.255  1.00  0.00    -0.273 OA
HETATM    4  H   UNL     1       7.618  26.263  52.050  1.00  0.00     0.169 HD
ENDROOT
BRANCH   2   5
HETATM    5  C   UNL     1       7.216  25.138  53.739  1.00  0.00     0.035 A 
HETATM    6  C   UNL     1       7.516  23.769  53.797  1.00  0.00     0.046 A 
HETATM    7  C   UNL     1       7.852  23.180  55.035  1.00  0.00     0.030 A 
HETATM    8  C   UNL     1       7.890  23.980  56.169  1.00  0.00     0.063 A 
HETATM    9  C   UNL     1       8.184  21.870  55.492  1.00  0.00     0.156 A 
HETATM   10  N   UNL     1       8.260  23.146  57.186  1.00  0.00    -0.277 N 
HETATM   11  C   UNL     1       7.587  25.343  56.151  1.00  0.00     0.034 A 
HETATM   12  H   UNL     1       8.400  23.390  58.160  1.00  0.00     0.189 HD
HETATM   13  N   UNL     1       8.441  21.866  56.821  1.00  0.00    -0.168 NA
HETATM   14  C   UNL     1       7.237  25.900  54.914  1.00  0.00     0.032 A 
BRANCH   9  15
HETATM   15  C   UNL     1       8.251  20.633  54.700  1.00  0.00     0.270 C 
HETATM   16  N   UNL     1       9.032  19.656  55.253  1.00  0.00    -0.365 N 
HETATM   17  H   UNL     1       9.475  19.835  56.146  1.00  0.00     0.159 HD
HETATM   18  H   UNL     1       9.110  18.763  54.793  1.00  0.00     0.159 HD
HETATM   19  O   UNL     1       7.664  20.450  53.639  1.00  0.00    -0.266 OA
ENDBRANCH   9  15
ENDBRANCH   2   5
BRANCH   1  20
HETATM   20  C   UNL     1       5.615  26.671  50.677  1.00  0.00     0.112 C 
BRANCH  20  21
HETATM   21  C   UNL     1       4.513  27.747  50.568  1.00  0.00     0.027 C 
BRANCH  21  22
HETATM   22  C   UNL     1       5.056  29.192  50.585  1.00  0.00     0.005 C 
HETATM   23  C   UNL     1       5.801  29.558  49.305  1.00  0.00     0.006 C 
ENDBRANCH  21  22
BRANCH  21  24
HETATM   24  C   UNL     1       3.517  27.478  49.448  1.00  0.00    -0.053 A 
HETATM   25  C   UNL     1       3.740  26.511  48.461  1.00  0.00     0.010 A 
HETATM   26  C   UNL     1       2.816  26.313  47.430  1.00  0.00     0.037 A 
HETATM   27  C   UNL     1       1.659  27.087  47.349  1.00  0.00     0.068 A 
HETATM   28  C   UNL     1       1.418  28.045  48.331  1.00  0.00     0.037 A 
HETATM   29  C   UNL     1       2.338  28.236  49.371  1.00  0.00     0.010 A 
BRANCH  27  30
HETATM   30  O   UNL     1       0.853  26.807  46.281  1.00  0.00    -0.356 OA
HETATM   31  C   UNL     1      -0.126  27.784  45.950  1.00  0.00     0.210 C 
ENDBRANCH  27  30
ENDBRANCH  21  24
ENDBRANCH  20  21
ENDBRANCH   1  20
TORSDOF 7
ENDMDL
