MODEL 1
REMARK VINA RESULT:     -10.5      0.000      0.000
REMARK  8 active torsions:
REMARK  status: ('A' for Active; 'I' for Inactive)
REMARK    1  A    between atoms: C_4  and  S_5 
REMARK    2  A    between atoms: S_5  and  C_6 
REMARK    3  A    between atoms: C_6  and  C_7 
REMARK       I    between atoms: C_7  and  N_8 
REMARK    4  A    between atoms: N_8  and  C_9 
REMARK    5  A    between atoms: C_20  and  C_21 
REMARK    6  A    between atoms: C_27  and  C_28 
REMARK       I    between atoms: C_28  and  N_29 
REMARK    7  A    between atoms: N_29  and  C_30 
REMARK    8  A    between atoms: C_31  and  O_32 
ROOT
HETATM    1  C   UNL     1       8.966  25.780  57.376  1.00  0.00     0.069 C 
HETATM    2  C   UNL     1       7.775  26.459  56.750  1.00  0.00     0.019 C 
HETATM    3  N   UNL     1       7.619  27.799  57.027  1.00  0.00    -0.353 N 
HETATM    4  C   UNL     1       6.584  28.596  56.577  1.00  0.00     0.088 C 
HETATM    5  C   UNL     1       5.685  28.098  55.690  1.00  0.00     0.069 C 
HETATM    6  C   UNL     1       4.640  28.898  55.129  1.00  0.00     0.099 C 
HETATM    7  N   UNL     1       3.792  29.560  54.691  1.00  0.00    -0.192 NA
HETATM    8  C   UNL     1       5.691  26.597  55.351  1.00  0.00     0.106 C 
HETATM    9  C   UNL     1       6.854  25.845  55.979  1.00  0.00     0.046 C 
HETATM   10  H   UNL     1       8.314  28.263  57.604  1.00  0.00     0.166 HD
ENDROOT
BRANCH   4  11
HETATM   11  S   UNL     1       6.492  30.221  57.232  1.00  0.00    -0.102 SA
BRANCH  11  12
HETATM   12  C   UNL     1       8.043  30.400  58.169  1.00  0.00     0.184 C 
BRANCH  12  13
HETATM   13  C   UNL     1       8.055  31.524  59.198  1.00  0.00     0.231 C 
HETATM   14  N   UNL     1       7.170  31.353  60.245  1.00  0.00    -0.325 N 
HETATM   15  H   UNL     1       6.497  30.594  60.183  1.00  0.00     0.169 HD
HETATM   16  O   UNL     1       8.817  32.482  59.077  1.00  0.00    -0.272 OA
BRANCH  14  17
HETATM   17  C   UNL     1       7.079  32.141  61.424  1.00  0.00     0.056 A 
HETATM   18  C   UNL     1       7.883  31.799  62.529  1.00  0.00     0.060 A 
HETATM   19 CL   UNL     1       8.934  30.425  62.471  1.00  0.00    -0.082 Cl
HETATM   20  C   UNL     1       7.860  32.561  63.702  1.00  0.00     0.026 A 
HETATM   21  C   UNL     1       7.032  33.679  63.790  1.00  0.00     0.002 A 
HETATM   22  C   UNL     1       6.232  34.030  62.709  1.00  0.00     0.002 A 
HETATM   23  C   UNL     1       6.256  33.267  61.534  1.00  0.00     0.031 A 
ENDBRANCH  14  17
ENDBRANCH  12  13
ENDBRANCH  11  12
ENDBRANCH   4  11
BRANCH   8  24
HETATM   24  C   UNL     1       5.543  26.337  53.854  1.00  0.00    -0.044 A 
HETATM   25  C   UNL     1       4.797  25.259  53.357  1.00  0.00     0.008 A 
HETATM   26  C   UNL     1       4.700  25.042  51.981  1.00  0.00     0.001 A 
HETATM   27  C   UNL     1       5.352  25.889  51.087  1.00  0.00     0.000 A 
HETATM   28  C   UNL     1       6.105  26.958  51.567  1.00  0.00     0.001 A 
HETATM   29  C   UNL     1       6.199  27.181  52.940  1.00  0.00     0.008 A 
ENDBRANCH   8  24
BRANCH   9  30
HETATM   30  C   UNL     1       6.873  24.364  55.874  1.00  0.00     0.255 C 
HETATM   31  N   UNL     1       7.772  23.979  54.898  1.00  0.00    -0.321 N 
HETATM   32  H   UNL     1       8.191  24.738  54.373  1.00  0.00     0.169 HD
HETATM   33  O   UNL     1       6.057  23.702  56.495  1.00  0.00    -0.268 OA
BRANCH  31  34
HETATM   34  C   UNL     1       8.038  22.687  54.390  1.00  0.00     0.068 A 
HETATM   35  C   UNL     1       8.574  21.604  55.099  1.00  0.00     0.095 A 
HETATM   36  C   UNL     1       8.777  20.373  54.456  1.00  0.00     0.039 A 
HETATM   37  C   UNL     1       8.433  20.205  53.116  1.00  0.00     0.003 A 
HETATM   38  C   UNL     1       7.914  21.276  52.399  1.00  0.00     0.002 A 
HETATM   39  C   UNL     1       7.729  22.509  53.028  1.00  0.00     0.032 A 
BRANCH  35  40
HETATM   40  O   UNL     1       9.068  21.766  56.365  1.00  0.00    -0.354 OA
HETATM   41  C   UNL     1       8.310  21.040  57.333  1.00  0.00     0.210 C 
ENDBRANCH  35  40
ENDBRANCH  31  34
ENDBRANCH   9  30
TORSDOF 8
ENDMDL
MODEL 2
REMARK VINA RESULT:     -10.5      2.630     10.328
REMARK  8 active torsions:
REMARK  status: ('A' for Active; 'I' for Inactive)
REMARK    1  A    between atoms: C_4  and  S_5 
REMARK    2  A    between atoms: S_5  and  C_6 
REMARK    3  A    between atoms: C_6  and  C_7 
REMARK       I    between atoms: C_7  and  N_8 
REMARK    4  A    between atoms: N_8  and  C_9 
REMARK    5  A    between atoms: C_20  and  C_21 
REMARK    6  A    between atoms: C_27  and  C_28 
REMARK       I    between atoms: C_28  and  N_29 
REMARK    7  A    between atoms: N_29  and  C_30 
REMARK    8  A    between atoms: C_31  and  O_32 
ROOT
HETATM    1  C   UNL     1       3.789  30.629  55.917  1.00  0.00     0.069 C 
HETATM    2  C   UNL     1       4.864  29.709  56.438  1.00  0.00     0.019 C 
HETATM    3  N   UNL     1       4.817  28.404  56.000  1.00  0.00    -0.353 N 
HETATM    4  C   UNL     1       5.688  27.399  56.377  1.00  0.00     0.088 C 
HETATM    5  C   UNL     1       6.766  27.695  57.148  1.00  0.00     0.069 C 
HETATM    6  C   UNL     1       7.743  26.713  57.505  1.00  0.00     0.099 C 
HETATM    7  N   UNL     1       8.521  25.901  57.792  1.00  0.00    -0.192 NA
HETATM    8  C   UNL     1       6.902  29.094  57.773  1.00  0.00     0.106 C 
HETATM    9  C   UNL     1       5.828  30.065  57.312  1.00  0.00     0.046 C 
HETATM   10  H   UNL     1       4.094  28.136  55.339  1.00  0.00     0.166 HD
ENDROOT
BRANCH   4  11
HETATM   11  S   UNL     1       5.301  25.773  55.845  1.00  0.00    -0.102 SA
BRANCH  11  12
HETATM   12  C   UNL     1       5.961  25.702  54.149  1.00  0.00     0.184 C 
BRANCH  12  13
HETATM   13  C   UNL     1       7.077  24.689  53.927  1.00  0.00     0.231 C 
HETATM   14  N   UNL     1       6.859  23.457  54.516  1.00  0.00    -0.325 N 
HETATM   15  H   UNL     1       6.071  23.364  55.150  1.00  0.00     0.169 HD
HETATM   16  O   UNL     1       8.069  24.979  53.261  1.00  0.00    -0.272 OA
BRANCH  14  17
HETATM   17  C   UNL     1       7.633  22.279  54.342  1.00  0.00     0.056 A 
HETATM   18  C   UNL     1       8.299  21.737  55.457  1.00  0.00     0.060 A 
HETATM   19 CL   UNL     1       8.211  22.507  57.005  1.00  0.00    -0.082 Cl
HETATM   20  C   UNL     1       9.046  20.558  55.350  1.00  0.00     0.026 A 
HETATM   21  C   UNL     1       9.139  19.902  54.124  1.00  0.00     0.002 A 
HETATM   22  C   UNL     1       8.488  20.424  53.013  1.00  0.00     0.002 A 
HETATM   23  C   UNL     1       7.740  21.603  53.120  1.00  0.00     0.031 A 
ENDBRANCH  14  17
ENDBRANCH  12  13
ENDBRANCH  11  12
ENDBRANCH   4  11
BRANCH   8  24
HETATM   24  C   UNL     1       8.317  29.653  57.644  1.00  0.00    -0.044 A 
HETATM   25  C   UNL     1       9.108  29.421  56.509  1.00  0.00     0.008 A 
HETATM   26  C   UNL     1      10.405  29.933  56.436  1.00  0.00     0.001 A 
HETATM   27  C   UNL     1      10.931  30.672  57.495  1.00  0.00     0.000 A 
HETATM   28  C   UNL     1      10.161  30.902  58.632  1.00  0.00     0.001 A 
HETATM   29  C   UNL     1       8.863  30.397  58.706  1.00  0.00     0.008 A 
ENDBRANCH   8  24
BRANCH   9  30
HETATM   30  C   UNL     1       5.746  31.391  57.975  1.00  0.00     0.255 C 
HETATM   31  N   UNL     1       5.138  31.256  59.209  1.00  0.00    -0.321 N 
HETATM   32  H   UNL     1       4.782  30.330  59.416  1.00  0.00     0.169 HD
HETATM   33  O   UNL     1       6.056  32.397  57.359  1.00  0.00    -0.268 OA
BRANCH  31  34
HETATM   34  C   UNL     1       4.759  32.258  60.131  1.00  0.00     0.068 A 
HETATM   35  C   UNL     1       5.595  32.905  61.051  1.00  0.00     0.095 A 
HETATM   36  C   UNL     1       5.072  33.891  61.903  1.00  0.00     0.039 A 
HETATM   37  C   UNL     1       3.727  34.250  61.835  1.00  0.00     0.003 A 
HETATM   38  C   UNL     1       2.886  33.605  60.936  1.00  0.00     0.002 A 
HETATM   39  C   UNL     1       3.397  32.610  60.100  1.00  0.00     0.032 A 
BRANCH  35  40
HETATM   40  O   UNL     1       6.878  32.479  61.259  1.00  0.00    -0.354 OA
HETATM   41  C   UNL     1       6.984  31.641  62.410  1.00  0.00     0.210 C 
ENDBRANCH  35  40
ENDBRANCH  31  34
ENDBRANCH   9  30
TORSDOF 8
ENDMDL
MODEL 3
REMARK VINA RESULT:     -10.2      2.746      9.572
REMARK  8 active torsions:
REMARK  status: ('A' for Active; 'I' for Inactive)
REMARK    1  A    between atoms: C_4  and  S_5 
REMARK    2  A    between atoms: S_5  and  C_6 
REMARK    3  A    between atoms: C_6  and  C_7 
REMARK       I    between atoms: C_7  and  N_8 
REMARK    4  A    between atoms: N_8  and  C_9 
REMARK    5  A    between atoms: C_20  and  C_21 
REMARK    6  A    between atoms: C_27  and  C_28 
REMARK       I    between atoms: C_28  and  N_29 
REMARK    7  A    between atoms: N_29  and  C_30 
REMARK    8  A    between atoms: C_31  and  O_32 
ROOT
HETATM    1  C   UNL     1       7.971  26.853  57.729  1.00  0.00     0.069 C 
HETATM    2  C   UNL     1       7.124  27.646  56.767  1.00  0.00     0.019 C 
HETATM    3  N   UNL     1       6.438  26.924  55.817  1.00  0.00    -0.353 N 
HETATM    4  C   UNL     1       5.631  27.458  54.830  1.00  0.00     0.088 C 
HETATM    5  C   UNL     1       5.366  28.790  54.823  1.00  0.00     0.069 C 
HETATM    6  C   UNL     1       4.477  29.388  53.874  1.00  0.00     0.099 C 
HETATM    7  N   UNL     1       3.760  29.857  53.091  1.00  0.00    -0.192 NA
HETATM    8  C   UNL     1       6.124  29.729  55.776  1.00  0.00     0.106 C 
HETATM    9  C   UNL     1       7.023  28.992  56.756  1.00  0.00     0.046 C 
HETATM   10  H   UNL     1       6.510  25.911  55.827  1.00  0.00     0.166 HD
ENDROOT
BRANCH   4  11
HETATM   11  S   UNL     1       5.028  26.350  53.611  1.00  0.00    -0.102 SA
BRANCH  11  12
HETATM   12  C   UNL     1       6.406  26.215  52.427  1.00  0.00     0.184 C 
BRANCH  12  13
HETATM   13  C   UNL     1       7.348  25.040  52.657  1.00  0.00     0.231 C 
HETATM   14  N   UNL     1       6.868  24.081  53.529  1.00  0.00    -0.325 N 
HETATM   15  H   UNL     1       6.019  24.288  54.047  1.00  0.00     0.169 HD
HETATM   16  O   UNL     1       8.434  24.980  52.082  1.00  0.00    -0.272 OA
BRANCH  14  17
HETATM   17  C   UNL     1       7.442  22.810  53.802  1.00  0.00     0.056 A 
HETATM   18  C   UNL     1       7.720  22.467  55.139  1.00  0.00     0.060 A 
HETATM   19 CL   UNL     1       7.406  23.582  56.426  1.00  0.00    -0.082 Cl
HETATM   20  C   UNL     1       8.253  21.216  55.468  1.00  0.00     0.026 A 
HETATM   21  C   UNL     1       8.516  20.285  54.464  1.00  0.00     0.002 A 
HETATM   22  C   UNL     1       8.247  20.609  53.138  1.00  0.00     0.002 A 
HETATM   23  C   UNL     1       7.714  21.861  52.810  1.00  0.00     0.031 A 
ENDBRANCH  14  17
ENDBRANCH  12  13
ENDBRANCH  11  12
ENDBRANCH   4  11
BRANCH   8  24
HETATM   24  C   UNL     1       5.203  30.743  56.449  1.00  0.00    -0.044 A 
HETATM   25  C   UNL     1       4.226  30.359  57.379  1.00  0.00     0.008 A 
HETATM   26  C   UNL     1       3.388  31.314  57.959  1.00  0.00     0.001 A 
HETATM   27  C   UNL     1       3.507  32.659  57.612  1.00  0.00     0.000 A 
HETATM   28  C   UNL     1       4.466  33.054  56.682  1.00  0.00     0.001 A 
HETATM   29  C   UNL     1       5.308  32.104  56.105  1.00  0.00     0.008 A 
ENDBRANCH   8  24
BRANCH   9  30
HETATM   30  C   UNL     1       7.939  29.791  57.608  1.00  0.00     0.255 C 
HETATM   31  N   UNL     1       7.342  30.037  58.829  1.00  0.00    -0.321 N 
HETATM   32  H   UNL     1       6.382  29.723  58.912  1.00  0.00     0.169 HD
HETATM   33  O   UNL     1       8.971  30.238  57.135  1.00  0.00    -0.268 OA
BRANCH  31  34
HETATM   34  C   UNL     1       7.799  30.838  59.900  1.00  0.00     0.068 A 
HETATM   35  C   UNL     1       7.153  31.958  60.441  1.00  0.00     0.095 A 
HETATM   36  C   UNL     1       7.732  32.653  61.515  1.00  0.00     0.039 A 
HETATM   37  C   UNL     1       8.941  32.231  62.067  1.00  0.00     0.003 A 
HETATM   38  C   UNL     1       9.597  31.131  61.529  1.00  0.00     0.002 A 
HETATM   39  C   UNL     1       9.036  30.449  60.448  1.00  0.00     0.032 A 
BRANCH  35  40
HETATM   40  O   UNL     1       6.051  32.497  59.836  1.00  0.00    -0.354 OA
HETATM   41  C   UNL     1       5.298  33.320  60.727  1.00  0.00     0.210 C 
ENDBRANCH  35  40
ENDBRANCH  31  34
ENDBRANCH   9  30
TORSDOF 8
ENDMDL
MODEL 4
REMARK VINA RESULT:     -10.0      2.926      5.573
REMARK  8 active torsions:
REMARK  status: ('A' for Active; 'I' for Inactive)
REMARK    1  A    between atoms: C_4  and  S_5 
REMARK    2  A    between atoms: S_5  and  C_6 
REMARK    3  A    between atoms: C_6  and  C_7 
REMARK       I    between atoms: C_7  and  N_8 
REMARK    4  A    between atoms: N_8  and  C_9 
REMARK    5  A    between atoms: C_20  and  C_21 
REMARK    6  A    between atoms: C_27  and  C_28 
REMARK       I    between atoms: C_28  and  N_29 
REMARK    7  A    between atoms: N_29  and  C_30 
REMARK    8  A    between atoms: C_31  and  O_32 
ROOT
HETATM    1  C   UNL     1       3.358  30.450  53.458  1.00  0.00     0.069 C 
HETATM    2  C   UNL     1       4.535  29.706  54.037  1.00  0.00     0.019 C 
HETATM    3  N   UNL     1       4.736  29.838  55.392  1.00  0.00    -0.353 N 
HETATM    4  C   UNL     1       5.767  29.264  56.111  1.00  0.00     0.088 C 
HETATM    5  C   UNL     1       6.613  28.394  55.500  1.00  0.00     0.069 C 
HETATM    6  C   UNL     1       7.649  27.710  56.209  1.00  0.00     0.099 C 
HETATM    7  N   UNL     1       8.491  27.170  56.800  1.00  0.00    -0.192 NA
HETATM    8  C   UNL     1       6.554  28.211  53.974  1.00  0.00     0.106 C 
HETATM    9  C   UNL     1       5.405  28.962  53.322  1.00  0.00     0.046 C 
HETATM   10  H   UNL     1       4.079  30.395  55.932  1.00  0.00     0.166 HD
ENDROOT
BRANCH   4  11
HETATM   11  S   UNL     1       5.929  29.746  57.790  1.00  0.00    -0.102 SA
BRANCH  11  12
HETATM   12  C   UNL     1       7.588  30.493  57.870  1.00  0.00     0.184 C 
BRANCH  12  13
HETATM   13  C   UNL     1       7.793  31.504  58.991  1.00  0.00     0.231 C 
HETATM   14  N   UNL     1       6.925  31.362  60.057  1.00  0.00    -0.325 N 
HETATM   15  H   UNL     1       6.149  30.714  59.958  1.00  0.00     0.169 HD
HETATM   16  O   UNL     1       8.680  32.353  58.921  1.00  0.00    -0.272 OA
BRANCH  14  17
HETATM   17  C   UNL     1       6.984  32.041  61.304  1.00  0.00     0.056 A 
HETATM   18  C   UNL     1       7.990  31.683  62.221  1.00  0.00     0.060 A 
HETATM   19 CL   UNL     1       9.111  30.414  61.860  1.00  0.00    -0.082 Cl
HETATM   20  C   UNL     1       8.117  32.343  63.449  1.00  0.00     0.026 A 
HETATM   21  C   UNL     1       7.239  33.374  63.778  1.00  0.00     0.002 A 
HETATM   22  C   UNL     1       6.240  33.741  62.883  1.00  0.00     0.002 A 
HETATM   23  C   UNL     1       6.114  33.080  61.655  1.00  0.00     0.031 A 
ENDBRANCH  14  17
ENDBRANCH  12  13
ENDBRANCH  11  12
ENDBRANCH   4  11
BRANCH   8  24
HETATM   24  C   UNL     1       6.627  26.743  53.561  1.00  0.00    -0.044 A 
HETATM   25  C   UNL     1       7.737  26.215  52.886  1.00  0.00     0.008 A 
HETATM   26  C   UNL     1       7.759  24.871  52.507  1.00  0.00     0.001 A 
HETATM   27  C   UNL     1       6.673  24.043  52.786  1.00  0.00     0.000 A 
HETATM   28  C   UNL     1       5.559  24.556  53.446  1.00  0.00     0.001 A 
HETATM   29  C   UNL     1       5.537  25.896  53.831  1.00  0.00     0.008 A 
ENDBRANCH   8  24
BRANCH   9  30
HETATM   30  C   UNL     1       5.345  29.009  51.839  1.00  0.00     0.255 C 
HETATM   31  N   UNL     1       4.414  28.096  51.382  1.00  0.00    -0.321 N 
HETATM   32  H   UNL     1       4.003  27.504  52.095  1.00  0.00     0.169 HD
HETATM   33  O   UNL     1       6.157  29.678  51.222  1.00  0.00    -0.268 OA
BRANCH  31  34
HETATM   34  C   UNL     1       4.104  27.728  50.054  1.00  0.00     0.068 A 
HETATM   35  C   UNL     1       3.389  28.490  49.120  1.00  0.00     0.095 A 
HETATM   36  C   UNL     1       3.164  27.990  47.828  1.00  0.00     0.039 A 
HETATM   37  C   UNL     1       3.660  26.744  47.451  1.00  0.00     0.003 A 
HETATM   38  C   UNL     1       4.358  25.972  48.372  1.00  0.00     0.002 A 
HETATM   39  C   UNL     1       4.567  26.456  49.665  1.00  0.00     0.032 A 
BRANCH  35  40
HETATM   40  O   UNL     1       2.755  29.645  49.491  1.00  0.00    -0.354 OA
HETATM   41  C   UNL     1       1.427  29.401  49.957  1.00  0.00     0.210 C 
ENDBRANCH  35  40
ENDBRANCH  31  34
ENDBRANCH   9  30
TORSDOF 8
ENDMDL
MODEL 5
REMARK VINA RESULT:     -10.0      2.139      3.043
REMARK  8 active torsions:
REMARK  status: ('A' for Active; 'I' for Inactive)
REMARK    1  A    between atoms: C_4  and  S_5 
REMARK    2  A    between atoms: S_5  and  C_6 
REMARK    3  A    between atoms: C_6  and  C_7 
REMARK       I    between atoms: C_7  and  N_8 
REMARK    4  A    between atoms: N_8  and  C_9 
REMARK    5  A    between atoms: C_20  and  C_21 
REMARK    6  A    between atoms: C_27  and  C_28 
REMARK       I    between atoms: C_28  and  N_29 
REMARK    7  A    between atoms: N_29  and  C_30 
REMARK    8  A    between atoms: C_31  and  O_32 
ROOT
HETATM    1  C   UNL     1       7.922  27.846  57.750  1.00  0.00     0.069 C 
HETATM    2  C   UNL     1       6.756  28.546  57.101  1.00  0.00     0.019 C 
HETATM    3  N   UNL     1       6.542  29.853  57.475  1.00  0.00    -0.353 N 
HETATM    4  C   UNL     1       5.516  30.661  57.022  1.00  0.00     0.088 C 
HETATM    5  C   UNL     1       4.693  30.217  56.037  1.00  0.00     0.069 C 
HETATM    6  C   UNL     1       3.665  31.036  55.473  1.00  0.00     0.099 C 
HETATM    7  N   UNL     1       2.829  31.711  55.034  1.00  0.00    -0.192 NA
HETATM    8  C   UNL     1       4.767  28.751  55.578  1.00  0.00     0.106 C 
HETATM    9  C   UNL     1       5.907  27.977  56.220  1.00  0.00     0.046 C 
HETATM   10  H   UNL     1       7.183  30.284  58.135  1.00  0.00     0.166 HD
ENDROOT
BRANCH   4  11
HETATM   11  S   UNL     1       5.332  32.222  57.800  1.00  0.00    -0.102 SA
BRANCH  11  12
HETATM   12  C   UNL     1       4.307  31.860  59.262  1.00  0.00     0.184 C 
BRANCH  12  13
HETATM   13  C   UNL     1       4.660  32.651  60.515  1.00  0.00     0.231 C 
HETATM   14  N   UNL     1       5.303  31.917  61.494  1.00  0.00    -0.325 N 
HETATM   15  H   UNL     1       5.363  30.910  61.374  1.00  0.00     0.169 HD
HETATM   16  O   UNL     1       4.390  33.848  60.604  1.00  0.00    -0.272 OA
BRANCH  14  17
HETATM   17  C   UNL     1       5.896  32.416  62.685  1.00  0.00     0.056 A 
HETATM   18  C   UNL     1       7.301  32.460  62.773  1.00  0.00     0.060 A 
HETATM   19 CL   UNL     1       8.291  31.884  61.475  1.00  0.00    -0.082 Cl
HETATM   20  C   UNL     1       7.937  32.975  63.908  1.00  0.00     0.026 A 
HETATM   21  C   UNL     1       7.179  33.455  64.974  1.00  0.00     0.002 A 
HETATM   22  C   UNL     1       5.791  33.418  64.903  1.00  0.00     0.002 A 
HETATM   23  C   UNL     1       5.154  32.903  63.767  1.00  0.00     0.031 A 
ENDBRANCH  14  17
ENDBRANCH  12  13
ENDBRANCH  11  12
ENDBRANCH   4  11
BRANCH   8  24
HETATM   24  C   UNL     1       4.726  28.614  54.058  1.00  0.00    -0.044 A 
HETATM   25  C   UNL     1       5.865  28.809  53.263  1.00  0.00     0.008 A 
HETATM   26  C   UNL     1       5.785  28.694  51.874  1.00  0.00     0.001 A 
HETATM   27  C   UNL     1       4.569  28.396  51.261  1.00  0.00     0.000 A 
HETATM   28  C   UNL     1       3.427  28.210  52.037  1.00  0.00     0.001 A 
HETATM   29  C   UNL     1       3.505  28.318  53.425  1.00  0.00     0.008 A 
ENDBRANCH   8  24
BRANCH   9  30
HETATM   30  C   UNL     1       5.977  26.511  55.995  1.00  0.00     0.255 C 
HETATM   31  N   UNL     1       7.022  26.221  55.139  1.00  0.00    -0.321 N 
HETATM   32  H   UNL     1       7.498  27.027  54.750  1.00  0.00     0.169 HD
HETATM   33  O   UNL     1       5.093  25.789  56.427  1.00  0.00    -0.268 OA
BRANCH  31  34
HETATM   34  C   UNL     1       7.392  24.981  54.572  1.00  0.00     0.068 A 
HETATM   35  C   UNL     1       7.096  24.533  53.277  1.00  0.00     0.095 A 
HETATM   36  C   UNL     1       7.540  23.271  52.851  1.00  0.00     0.039 A 
HETATM   37  C   UNL     1       8.292  22.458  53.697  1.00  0.00     0.003 A 
HETATM   38  C   UNL     1       8.579  22.886  54.988  1.00  0.00     0.002 A 
HETATM   39  C   UNL     1       8.123  24.132  55.424  1.00  0.00     0.032 A 
BRANCH  35  40
HETATM   40  O   UNL     1       6.235  25.227  52.471  1.00  0.00    -0.354 OA
HETATM   41  C   UNL     1       4.880  24.821  52.660  1.00  0.00     0.210 C 
ENDBRANCH  35  40
ENDBRANCH  31  34
ENDBRANCH   9  30
TORSDOF 8
ENDMDL
MODEL 6
REMARK VINA RESULT:      -9.9      1.537      2.158
REMARK  8 active torsions:
REMARK  status: ('A' for Active; 'I' for Inactive)
REMARK    1  A    between atoms: C_4  and  S_5 
REMARK    2  A    between atoms: S_5  and  C_6 
REMARK    3  A    between atoms: C_6  and  C_7 
REMARK       I    between atoms: C_7  and  N_8 
REMARK    4  A    between atoms: N_8  and  C_9 
REMARK    5  A    between atoms: C_20  and  C_21 
REMARK    6  A    between atoms: C_27  and  C_28 
REMARK       I    between atoms: C_28  and  N_29 
REMARK    7  A    between atoms: N_29  and  C_30 
REMARK    8  A    between atoms: C_31  and  O_32 
ROOT
HETATM    1  C   UNL     1       8.188  26.149  57.766  1.00  0.00     0.069 C 
HETATM    2  C   UNL     1       7.151  27.015  57.098  1.00  0.00     0.019 C 
HETATM    3  N   UNL     1       7.109  28.334  57.491  1.00  0.00    -0.353 N 
HETATM    4  C   UNL     1       6.220  29.283  57.024  1.00  0.00     0.088 C 
HETATM    5  C   UNL     1       5.374  28.973  56.008  1.00  0.00     0.069 C 
HETATM    6  C   UNL     1       4.487  29.936  55.431  1.00  0.00     0.099 C 
HETATM    7  N   UNL     1       3.767  30.728  54.981  1.00  0.00    -0.192 NA
HETATM    8  C   UNL     1       5.257  27.518  55.524  1.00  0.00     0.106 C 
HETATM    9  C   UNL     1       6.258  26.583  56.183  1.00  0.00     0.046 C 
HETATM   10  H   UNL     1       7.784  28.661  58.176  1.00  0.00     0.166 HD
ENDROOT
BRANCH   4  11
HETATM   11  S   UNL     1       6.232  30.843  57.826  1.00  0.00    -0.102 SA
BRANCH  11  12
HETATM   12  C   UNL     1       7.881  30.925  58.594  1.00  0.00     0.184 C 
BRANCH  12  13
HETATM   13  C   UNL     1       8.027  31.947  59.714  1.00  0.00     0.231 C 
HETATM   14  N   UNL     1       7.052  31.870  60.691  1.00  0.00    -0.325 N 
HETATM   15  H   UNL     1       6.257  31.260  60.526  1.00  0.00     0.169 HD
HETATM   16  O   UNL     1       8.960  32.749  59.720  1.00  0.00    -0.272 OA
BRANCH  14  17
HETATM   17  C   UNL     1       7.024  32.571  61.927  1.00  0.00     0.056 A 
HETATM   18  C   UNL     1       6.069  33.590  62.105  1.00  0.00     0.060 A 
HETATM   19 CL   UNL     1       4.973  34.012  60.833  1.00  0.00    -0.082 Cl
HETATM   20  C   UNL     1       5.974  34.288  63.314  1.00  0.00     0.026 A 
HETATM   21  C   UNL     1       6.833  33.978  64.366  1.00  0.00     0.002 A 
HETATM   22  C   UNL     1       7.782  32.974  64.207  1.00  0.00     0.002 A 
HETATM   23  C   UNL     1       7.877  32.275  62.997  1.00  0.00     0.031 A 
ENDBRANCH  14  17
ENDBRANCH  12  13
ENDBRANCH  11  12
ENDBRANCH   4  11
BRANCH   8  24
HETATM   24  C   UNL     1       5.244  27.411  54.001  1.00  0.00    -0.044 A 
HETATM   25  C   UNL     1       4.468  26.455  53.329  1.00  0.00     0.008 A 
HETATM   26  C   UNL     1       4.497  26.375  51.935  1.00  0.00     0.001 A 
HETATM   27  C   UNL     1       5.307  27.237  51.197  1.00  0.00     0.000 A 
HETATM   28  C   UNL     1       6.091  28.184  51.851  1.00  0.00     0.001 A 
HETATM   29  C   UNL     1       6.060  28.271  53.242  1.00  0.00     0.008 A 
ENDBRANCH   8  24
BRANCH   9  30
HETATM   30  C   UNL     1       6.130  25.125  55.932  1.00  0.00     0.255 C 
HETATM   31  N   UNL     1       7.244  24.671  55.252  1.00  0.00    -0.321 N 
HETATM   32  H   UNL     1       7.899  25.390  54.968  1.00  0.00     0.169 HD
HETATM   33  O   UNL     1       5.084  24.555  56.193  1.00  0.00    -0.268 OA
BRANCH  31  34
HETATM   34  C   UNL     1       7.501  23.388  54.719  1.00  0.00     0.068 A 
HETATM   35  C   UNL     1       7.511  23.033  53.363  1.00  0.00     0.095 A 
HETATM   36  C   UNL     1       7.791  21.710  52.985  1.00  0.00     0.039 A 
HETATM   37  C   UNL     1       8.079  20.741  53.944  1.00  0.00     0.003 A 
HETATM   38  C   UNL     1       8.058  21.079  55.292  1.00  0.00     0.002 A 
HETATM   39  C   UNL     1       7.760  22.388  55.675  1.00  0.00     0.032 A 
BRANCH  35  40
HETATM   40  O   UNL     1       7.084  23.908  52.402  1.00  0.00    -0.354 OA
HETATM   41  C   UNL     1       8.086  24.869  52.070  1.00  0.00     0.210 C 
ENDBRANCH  35  40
ENDBRANCH  31  34
ENDBRANCH   9  30
TORSDOF 8
ENDMDL
MODEL 7
REMARK VINA RESULT:      -9.7      4.814      8.666
REMARK  8 active torsions:
REMARK  status: ('A' for Active; 'I' for Inactive)
REMARK    1  A    between atoms: C_4  and  S_5 
REMARK    2  A    between atoms: S_5  and  C_6 
REMARK    3  A    between atoms: C_6  and  C_7 
REMARK       I    between atoms: C_7  and  N_8 
REMARK    4  A    between atoms: N_8  and  C_9 
REMARK    5  A    between atoms: C_20  and  C_21 
REMARK    6  A    between atoms: C_27  and  C_28 
REMARK       I    between atoms: C_28  and  N_29 
REMARK    7  A    between atoms: N_29  and  C_30 
REMARK    8  A    between atoms: C_31  and  O_32 
ROOT
HETATM    1  C   UNL     1       4.700  24.572  51.551  1.00  0.00     0.069 C 
HETATM    2  C   UNL     1       5.031  25.778  52.393  1.00  0.00     0.019 C 
HETATM    3  N   UNL     1       4.157  26.838  52.314  1.00  0.00    -0.353 N 
HETATM    4  C   UNL     1       4.292  28.042  52.980  1.00  0.00     0.088 C 
HETATM    5  C   UNL     1       5.286  28.200  53.892  1.00  0.00     0.069 C 
HETATM    6  C   UNL     1       5.428  29.393  54.669  1.00  0.00     0.099 C 
HETATM    7  N   UNL     1       5.533  30.372  55.283  1.00  0.00    -0.192 NA
HETATM    8  C   UNL     1       6.381  27.128  54.028  1.00  0.00     0.106 C 
HETATM    9  C   UNL     1       6.123  25.895  53.178  1.00  0.00     0.046 C 
HETATM   10  H   UNL     1       3.333  26.750  51.726  1.00  0.00     0.166 HD
ENDROOT
BRANCH   4  11
HETATM   11  S   UNL     1       3.160  29.313  52.558  1.00  0.00    -0.102 SA
BRANCH  11  12
HETATM   12  C   UNL     1       4.000  30.215  51.217  1.00  0.00     0.184 C 
BRANCH  12  13
HETATM   13  C   UNL     1       3.633  29.771  49.806  1.00  0.00     0.231 C 
HETATM   14  N   UNL     1       2.504  28.977  49.730  1.00  0.00    -0.325 N 
HETATM   15  H   UNL     1       2.098  28.639  50.597  1.00  0.00     0.169 HD
HETATM   16  O   UNL     1       4.306  30.124  48.839  1.00  0.00    -0.272 OA
BRANCH  14  17
HETATM   17  C   UNL     1       1.833  28.558  48.549  1.00  0.00     0.056 A 
HETATM   18  C   UNL     1       2.161  27.308  47.992  1.00  0.00     0.060 A 
HETATM   19 CL   UNL     1       3.385  26.312  48.705  1.00  0.00    -0.082 Cl
HETATM   20  C   UNL     1       1.507  26.831  46.851  1.00  0.00     0.026 A 
HETATM   21  C   UNL     1       0.511  27.597  46.248  1.00  0.00     0.002 A 
HETATM   22  C   UNL     1       0.175  28.835  46.786  1.00  0.00     0.002 A 
HETATM   23  C   UNL     1       0.830  29.312  47.928  1.00  0.00     0.031 A 
ENDBRANCH  14  17
ENDBRANCH  12  13
ENDBRANCH  11  12
ENDBRANCH   4  11
BRANCH   8  24
HETATM   24  C   UNL     1       6.697  26.801  55.485  1.00  0.00    -0.044 A 
HETATM   25  C   UNL     1       7.843  27.295  56.126  1.00  0.00     0.008 A 
HETATM   26  C   UNL     1       8.109  26.958  57.455  1.00  0.00     0.001 A 
HETATM   27  C   UNL     1       7.244  26.119  58.155  1.00  0.00     0.000 A 
HETATM   28  C   UNL     1       6.108  25.612  57.528  1.00  0.00     0.001 A 
HETATM   29  C   UNL     1       5.836  25.951  56.203  1.00  0.00     0.008 A 
ENDBRANCH   8  24
BRANCH   9  30
HETATM   30  C   UNL     1       7.190  24.867  53.086  1.00  0.00     0.255 C 
HETATM   31  N   UNL     1       6.782  23.714  53.727  1.00  0.00    -0.321 N 
HETATM   32  H   UNL     1       5.895  23.780  54.212  1.00  0.00     0.169 HD
HETATM   33  O   UNL     1       8.281  25.167  52.628  1.00  0.00    -0.268 OA
BRANCH  31  34
HETATM   34  C   UNL     1       7.509  22.528  53.977  1.00  0.00     0.068 A 
HETATM   35  C   UNL     1       8.004  22.096  55.215  1.00  0.00     0.095 A 
HETATM   36  C   UNL     1       8.706  20.884  55.307  1.00  0.00     0.039 A 
HETATM   37  C   UNL     1       8.906  20.089  54.180  1.00  0.00     0.003 A 
HETATM   38  C   UNL     1       8.433  20.514  52.945  1.00  0.00     0.002 A 
HETATM   39  C   UNL     1       7.751  21.728  52.844  1.00  0.00     0.032 A 
BRANCH  35  40
HETATM   40  O   UNL     1       7.967  22.912  56.312  1.00  0.00    -0.354 OA
HETATM   41  C   UNL     1       9.134  23.728  56.413  1.00  0.00     0.210 C 
ENDBRANCH  35  40
ENDBRANCH  31  34
ENDBRANCH   9  30
TORSDOF 8
ENDMDL
MODEL 8
REMARK VINA RESULT:      -9.5      2.326      3.495
REMARK  8 active torsions:
REMARK  status: ('A' for Active; 'I' for Inactive)
REMARK    1  A    between atoms: C_4  and  S_5 
REMARK    2  A    between atoms: S_5  and  C_6 
REMARK    3  A    between atoms: C_6  and  C_7 
REMARK       I    between atoms: C_7  and  N_8 
REMARK    4  A    between atoms: N_8  and  C_9 
REMARK    5  A    between atoms: C_20  and  C_21 
REMARK    6  A    between atoms: C_27  and  C_28 
REMARK       I    between atoms: C_28  and  N_29 
REMARK    7  A    between atoms: N_29  and  C_30 
REMARK    8  A    between atoms: C_31  and  O_32 
ROOT
HETATM    1  C   UNL     1       8.000  28.044  54.871  1.00  0.00     0.069 C 
HETATM    2  C   UNL     1       6.692  28.152  54.131  1.00  0.00     0.019 C 
HETATM    3  N   UNL     1       5.865  29.190  54.499  1.00  0.00    -0.353 N 
HETATM    4  C   UNL     1       4.616  29.449  53.967  1.00  0.00     0.088 C 
HETATM    5  C   UNL     1       4.169  28.722  52.910  1.00  0.00     0.069 C 
HETATM    6  C   UNL     1       2.920  28.995  52.268  1.00  0.00     0.099 C 
HETATM    7  N   UNL     1       1.899  29.226  51.765  1.00  0.00    -0.192 NA
HETATM    8  C   UNL     1       4.952  27.483  52.444  1.00  0.00     0.106 C 
HETATM    9  C   UNL     1       6.272  27.298  53.175  1.00  0.00     0.046 C 
HETATM   10  H   UNL     1       6.181  29.836  55.216  1.00  0.00     0.166 HD
ENDROOT
BRANCH   4  11
HETATM   11  S   UNL     1       3.668  30.705  54.742  1.00  0.00    -0.102 SA
BRANCH  11  12
HETATM   12  C   UNL     1       3.974  30.445  56.519  1.00  0.00     0.184 C 
BRANCH  12  13
HETATM   13  C   UNL     1       5.126  31.252  57.105  1.00  0.00     0.231 C 
HETATM   14  N   UNL     1       5.897  30.566  58.026  1.00  0.00    -0.325 N 
HETATM   15  H   UNL     1       5.568  29.659  58.342  1.00  0.00     0.169 HD
HETATM   16  O   UNL     1       5.329  32.412  56.750  1.00  0.00    -0.272 OA
BRANCH  14  17
HETATM   17  C   UNL     1       7.121  30.997  58.604  1.00  0.00     0.056 A 
HETATM   18  C   UNL     1       7.078  31.895  59.687  1.00  0.00     0.060 A 
HETATM   19 CL   UNL     1       5.568  32.497  60.282  1.00  0.00    -0.082 Cl
HETATM   20  C   UNL     1       8.251  32.324  60.317  1.00  0.00     0.026 A 
HETATM   21  C   UNL     1       9.489  31.860  59.874  1.00  0.00     0.002 A 
HETATM   22  C   UNL     1       9.549  30.973  58.806  1.00  0.00     0.002 A 
HETATM   23  C   UNL     1       8.374  30.543  58.176  1.00  0.00     0.031 A 
ENDBRANCH  14  17
ENDBRANCH  12  13
ENDBRANCH  11  12
ENDBRANCH   4  11
BRANCH   8  24
HETATM   24  C   UNL     1       5.089  27.419  50.925  1.00  0.00    -0.044 A 
HETATM   25  C   UNL     1       5.645  28.471  50.183  1.00  0.00     0.008 A 
HETATM   26  C   UNL     1       5.736  28.383  48.792  1.00  0.00     0.001 A 
HETATM   27  C   UNL     1       5.265  27.253  48.126  1.00  0.00     0.000 A 
HETATM   28  C   UNL     1       4.701  26.205  48.849  1.00  0.00     0.001 A 
HETATM   29  C   UNL     1       4.614  26.286  50.238  1.00  0.00     0.008 A 
ENDBRANCH   8  24
BRANCH   9  30
HETATM   30  C   UNL     1       7.036  26.046  52.942  1.00  0.00     0.255 C 
HETATM   31  N   UNL     1       6.642  25.085  53.853  1.00  0.00    -0.321 N 
HETATM   32  H   UNL     1       5.988  25.401  54.559  1.00  0.00     0.169 HD
HETATM   33  O   UNL     1       7.957  26.038  52.142  1.00  0.00    -0.268 OA
BRANCH  31  34
HETATM   34  C   UNL     1       7.169  23.791  54.068  1.00  0.00     0.068 A 
HETATM   35  C   UNL     1       7.410  23.182  55.307  1.00  0.00     0.095 A 
HETATM   36  C   UNL     1       7.934  21.881  55.361  1.00  0.00     0.039 A 
HETATM   37  C   UNL     1       8.204  21.173  54.191  1.00  0.00     0.003 A 
HETATM   38  C   UNL     1       7.983  21.772  52.957  1.00  0.00     0.002 A 
HETATM   39  C   UNL     1       7.481  23.074  52.898  1.00  0.00     0.032 A 
BRANCH  35  40
HETATM   40  O   UNL     1       7.306  23.891  56.473  1.00  0.00    -0.354 OA
HETATM   41  C   UNL     1       8.578  24.341  56.941  1.00  0.00     0.210 C 
ENDBRANCH  35  40
ENDBRANCH  31  34
ENDBRANCH   9  30
TORSDOF 8
ENDMDL
MODEL 9
REMARK VINA RESULT:      -9.2      3.095     11.315
REMARK  8 active torsions:
REMARK  status: ('A' for Active; 'I' for Inactive)
REMARK    1  A    between atoms: C_4  and  S_5 
REMARK    2  A    between atoms: S_5  and  C_6 
REMARK    3  A    between atoms: C_6  and  C_7 
REMARK       I    between atoms: C_7  and  N_8 
REMARK    4  A    between atoms: N_8  and  C_9 
REMARK    5  A    between atoms: C_20  and  C_21 
REMARK    6  A    between atoms: C_27  and  C_28 
REMARK       I    between atoms: C_28  and  N_29 
REMARK    7  A    between atoms: N_29  and  C_30 
REMARK    8  A    between atoms: C_31  and  O_32 
ROOT
HETATM    1  C   UNL     1       8.574  30.508  62.321  1.00  0.00     0.069 C 
HETATM    2  C   UNL     1       7.843  31.001  61.099  1.00  0.00     0.019 C 
HETATM    3  N   UNL     1       7.982  30.245  59.956  1.00  0.00    -0.353 N 
HETATM    4  C   UNL     1       7.420  30.536  58.728  1.00  0.00     0.088 C 
HETATM    5  C   UNL     1       6.555  31.577  58.611  1.00  0.00     0.069 C 
HETATM    6  C   UNL     1       5.882  31.877  57.385  1.00  0.00     0.099 C 
HETATM    7  N   UNL     1       5.353  32.113  56.378  1.00  0.00    -0.192 NA
HETATM    8  C   UNL     1       6.365  32.552  59.784  1.00  0.00     0.106 C 
HETATM    9  C   UNL     1       7.103  32.129  61.043  1.00  0.00     0.046 C 
HETATM   10  H   UNL     1       8.535  29.394  59.998  1.00  0.00     0.166 HD
ENDROOT
BRANCH   4  11
HETATM   11  S   UNL     1       7.909  29.533  57.374  1.00  0.00    -0.102 SA
BRANCH  11  12
HETATM   12  C   UNL     1       6.841  28.064  57.513  1.00  0.00     0.184 C 
BRANCH  12  13
HETATM   13  C   UNL     1       7.445  26.769  56.986  1.00  0.00     0.231 C 
HETATM   14  N   UNL     1       6.707  26.155  55.991  1.00  0.00    -0.325 N 
HETATM   15  H   UNL     1       5.780  26.518  55.791  1.00  0.00     0.169 HD
HETATM   16  O   UNL     1       8.512  26.345  57.426  1.00  0.00    -0.272 OA
BRANCH  14  17
HETATM   17  C   UNL     1       7.099  25.041  55.201  1.00  0.00     0.056 A 
HETATM   18  C   UNL     1       7.557  25.269  53.890  1.00  0.00     0.060 A 
HETATM   19 CL   UNL     1       7.609  26.870  53.233  1.00  0.00    -0.082 Cl
HETATM   20  C   UNL     1       7.989  24.211  53.081  1.00  0.00     0.026 A 
HETATM   21  C   UNL     1       7.970  22.907  53.572  1.00  0.00     0.002 A 
HETATM   22  C   UNL     1       7.520  22.664  54.865  1.00  0.00     0.002 A 
HETATM   23  C   UNL     1       7.089  23.723  55.674  1.00  0.00     0.031 A 
ENDBRANCH  14  17
ENDBRANCH  12  13
ENDBRANCH  11  12
ENDBRANCH   4  11
BRANCH   8  24
HETATM   24  C   UNL     1       4.896  32.889  60.030  1.00  0.00    -0.044 A 
HETATM   25  C   UNL     1       3.979  31.928  60.481  1.00  0.00     0.008 A 
HETATM   26  C   UNL     1       2.639  32.268  60.676  1.00  0.00     0.001 A 
HETATM   27  C   UNL     1       2.197  33.564  60.415  1.00  0.00     0.000 A 
HETATM   28  C   UNL     1       3.094  34.526  59.957  1.00  0.00     0.001 A 
HETATM   29  C   UNL     1       4.434  34.191  59.767  1.00  0.00     0.008 A 
ENDBRANCH   8  24
BRANCH   9  30
HETATM   30  C   UNL     1       7.144  33.074  62.187  1.00  0.00     0.255 C 
HETATM   31  N   UNL     1       6.366  32.588  63.220  1.00  0.00    -0.321 N 
HETATM   32  H   UNL     1       5.844  31.746  63.008  1.00  0.00     0.169 HD
HETATM   33  O   UNL     1       7.688  34.159  62.058  1.00  0.00    -0.268 OA
BRANCH  31  34
HETATM   34  C   UNL     1       6.032  33.200  64.450  1.00  0.00     0.068 A 
HETATM   35  C   UNL     1       4.743  33.494  64.914  1.00  0.00     0.095 A 
HETATM   36  C   UNL     1       4.569  34.102  66.168  1.00  0.00     0.039 A 
HETATM   37  C   UNL     1       5.667  34.404  66.971  1.00  0.00     0.003 A 
HETATM   38  C   UNL     1       6.951  34.131  66.514  1.00  0.00     0.002 A 
HETATM   39  C   UNL     1       7.130  33.545  65.259  1.00  0.00     0.032 A 
BRANCH  35  40
HETATM   40  O   UNL     1       3.652  33.358  64.100  1.00  0.00    -0.354 OA
HETATM   41  C   UNL     1       2.995  34.605  63.870  1.00  0.00     0.210 C 
ENDBRANCH  35  40
ENDBRANCH  31  34
ENDBRANCH   9  30
TORSDOF 8
ENDMDL
MODEL 10
REMARK VINA RESULT:      -9.2      5.663     10.516
REMARK  8 active torsions:
REMARK  status: ('A' for Active; 'I' for Inactive)
REMARK    1  A    between atoms: C_4  and  S_5 
REMARK    2  A    between atoms: S_5  and  C_6 
REMARK    3  A    between atoms: C_6  and  C_7 
REMARK       I    between atoms: C_7  and  N_8 
REMARK    4  A    between atoms: N_8  and  C_9 
REMARK    5  A    between atoms: C_20  and  C_21 
REMARK    6  A    between atoms: C_27  and  C_28 
REMARK       I    between atoms: C_28  and  N_29 
REMARK    7  A    between atoms: N_29  and  C_30 
REMARK    8  A    between atoms: C_31  and  O_32 
ROOT
HETATM    1  C   UNL     1       4.539  26.124  48.368  1.00  0.00     0.069 C 
HETATM    2  C   UNL     1       4.382  27.093  49.513  1.00  0.00     0.019 C 
HETATM    3  N   UNL     1       4.780  26.645  50.752  1.00  0.00    -0.353 N 
HETATM    4  C   UNL     1       4.695  27.362  51.931  1.00  0.00     0.088 C 
HETATM    5  C   UNL     1       4.304  28.662  51.903  1.00  0.00     0.069 C 
HETATM    6  C   UNL     1       4.273  29.476  53.078  1.00  0.00     0.099 C 
HETATM    7  N   UNL     1       4.244  30.119  54.044  1.00  0.00    -0.192 NA
HETATM    8  C   UNL     1       3.758  29.271  50.600  1.00  0.00     0.106 C 
HETATM    9  C   UNL     1       3.858  28.332  49.409  1.00  0.00     0.046 C 
HETATM   10  H   UNL     1       5.178  25.713  50.830  1.00  0.00     0.166 HD
ENDROOT
BRANCH   4  11
HETATM   11  S   UNL     1       5.074  26.501  53.412  1.00  0.00    -0.102 SA
BRANCH  11  12
HETATM   12  C   UNL     1       6.895  26.480  53.448  1.00  0.00     0.184 C 
BRANCH  12  13
HETATM   13  C   UNL     1       7.535  25.131  53.148  1.00  0.00     0.231 C 
HETATM   14  N   UNL     1       7.536  24.247  54.211  1.00  0.00    -0.325 N 
HETATM   15  H   UNL     1       7.252  24.596  55.122  1.00  0.00     0.169 HD
HETATM   16  O   UNL     1       7.991  24.882  52.033  1.00  0.00    -0.272 OA
BRANCH  14  17
HETATM   17  C   UNL     1       7.906  22.875  54.182  1.00  0.00     0.056 A 
HETATM   18  C   UNL     1       8.306  22.258  55.382  1.00  0.00     0.060 A 
HETATM   19 CL   UNL     1       8.385  23.155  56.860  1.00  0.00    -0.082 Cl
HETATM   20  C   UNL     1       8.647  20.901  55.417  1.00  0.00     0.026 A 
HETATM   21  C   UNL     1       8.593  20.139  54.251  1.00  0.00     0.002 A 
HETATM   22  C   UNL     1       8.199  20.734  53.058  1.00  0.00     0.002 A 
HETATM   23  C   UNL     1       7.857  22.091  53.023  1.00  0.00     0.031 A 
ENDBRANCH  14  17
ENDBRANCH  12  13
ENDBRANCH  11  12
ENDBRANCH   4  11
BRANCH   8  24
HETATM   24  C   UNL     1       4.328  30.660  50.323  1.00  0.00    -0.044 A 
HETATM   25  C   UNL     1       5.666  30.854  49.950  1.00  0.00     0.008 A 
HETATM   26  C   UNL     1       6.156  32.141  49.723  1.00  0.00     0.001 A 
HETATM   27  C   UNL     1       5.324  33.249  49.877  1.00  0.00     0.000 A 
HETATM   28  C   UNL     1       3.995  33.072  50.257  1.00  0.00     0.001 A 
HETATM   29  C   UNL     1       3.501  31.788  50.478  1.00  0.00     0.008 A 
ENDBRANCH   8  24
BRANCH   9  30
HETATM   30  C   UNL     1       3.205  28.735  48.138  1.00  0.00     0.255 C 
HETATM   31  N   UNL     1       1.848  28.486  48.214  1.00  0.00    -0.321 N 
HETATM   32  H   UNL     1       1.542  28.009  49.053  1.00  0.00     0.169 HD
HETATM   33  O   UNL     1       3.889  29.072  47.186  1.00  0.00    -0.268 OA
BRANCH  31  34
HETATM   34  C   UNL     1       0.861  28.615  47.211  1.00  0.00     0.068 A 
HETATM   35  C   UNL     1       0.163  29.781  46.869  1.00  0.00     0.095 A 
HETATM   36  C   UNL     1      -0.791  29.754  45.839  1.00  0.00     0.039 A 
HETATM   37  C   UNL     1      -1.043  28.579  45.134  1.00  0.00     0.003 A 
HETATM   38  C   UNL     1      -0.368  27.413  45.473  1.00  0.00     0.002 A 
HETATM   39  C   UNL     1       0.567  27.430  46.510  1.00  0.00     0.032 A 
BRANCH  35  40
HETATM   40  O   UNL     1       0.264  30.912  47.633  1.00  0.00    -0.354 OA
HETATM   41  C   UNL     1       1.183  31.853  47.077  1.00  0.00     0.210 C 
ENDBRANCH  35  40
ENDBRANCH  31  34
ENDBRANCH   9  30
TORSDOF 8
ENDMDL
