MODEL 1
REMARK VINA RESULT:      -9.0      0.000      0.000
REMARK  4 active torsions:
REMARK  status: ('A' for Active; 'I' for Inactive)
REMARK    1  A    between atoms: C_2  and  N_3 
REMARK    2  A    between atoms: C_2  and  C_14 
REMARK    3  A    between atoms: N_3  and  C_6 
REMARK    4  A    between atoms: C_6  and  C_7 
ROOT
HETATM    1  C   UNL     1       5.098  25.459  57.101  1.00  0.00     0.048 C 
HETATM    2  C   UNL     1       6.184  25.993  56.178  1.00  0.00     0.251 C 
ENDROOT
BRANCH   2   3
HETATM    3  N   UNL     1       7.287  26.573  57.029  1.00  0.00    -0.060 N 
HETATM    4  H   UNL     1       6.925  27.029  57.875  1.00  0.00     0.278 HD
HETATM    5  H   UNL     1       7.855  25.770  57.347  1.00  0.00     0.278 HD
BRANCH   3   6
HETATM    6  C   UNL     1       8.211  27.504  56.323  1.00  0.00     0.271 C 
BRANCH   6   7
HETATM    7  C   UNL     1       8.586  28.656  57.211  1.00  0.00    -0.033 A 
HETATM    8  C   UNL     1       9.829  29.293  57.060  1.00  0.00     0.010 A 
HETATM    9  C   UNL     1      10.194  30.342  57.911  1.00  0.00     0.024 A 
HETATM   10  C   UNL     1       9.322  30.758  58.914  1.00  0.00     0.034 A 
HETATM   11 CL   UNL     1       9.773  32.045  59.959  1.00  0.00    -0.084 Cl
HETATM   12  C   UNL     1       8.089  30.133  59.077  1.00  0.00     0.024 A 
HETATM   13  C   UNL     1       7.721  29.082  58.231  1.00  0.00     0.010 A 
ENDBRANCH   6   7
ENDBRANCH   3   6
ENDBRANCH   2   3
BRANCH   2  14
HETATM   14  C   UNL     1       6.738  24.857  55.310  1.00  0.00     0.138 A 
HETATM   15  N   UNL     1       6.957  23.706  55.868  1.00  0.00    -0.232 NA
HETATM   16  C   UNL     1       7.456  22.671  55.049  1.00  0.00     0.074 A 
HETATM   17  C   UNL     1       7.730  22.854  53.688  1.00  0.00     0.061 A 
HETATM   18  C   UNL     1       7.691  21.416  55.613  1.00  0.00     0.032 A 
HETATM   19  C   UNL     1       7.464  24.183  53.118  1.00  0.00     0.259 A 
HETATM   20  C   UNL     1       8.232  21.818  52.897  1.00  0.00     0.019 A 
HETATM   21  O   UNL     1       7.676  24.461  51.946  1.00  0.00    -0.267 OA
HETATM   22  N   UNL     1       6.961  25.118  53.989  1.00  0.00    -0.309 N 
HETATM   23  H   UNL     1       6.781  26.017  53.559  1.00  0.00     0.170 HD
HETATM   24  C   UNL     1       8.464  20.572  53.475  1.00  0.00     0.001 A 
HETATM   25  C   UNL     1       8.192  20.370  54.830  1.00  0.00     0.002 A 
ENDBRANCH   2  14
TORSDOF 4
ENDMDL
MODEL 2
REMARK VINA RESULT:      -9.0      3.517      8.155
REMARK  4 active torsions:
REMARK  status: ('A' for Active; 'I' for Inactive)
REMARK    1  A    between atoms: C_2  and  N_3 
REMARK    2  A    between atoms: C_2  and  C_14 
REMARK    3  A    between atoms: N_3  and  C_6 
REMARK    4  A    between atoms: C_6  and  C_7 
ROOT
HETATM    1  C   UNL     1       5.541  27.346  56.900  1.00  0.00     0.048 C 
HETATM    2  C   UNL     1       7.012  26.954  56.869  1.00  0.00     0.251 C 
ENDROOT
BRANCH   2   3
HETATM    3  N   UNL     1       7.348  26.486  55.475  1.00  0.00    -0.060 N 
HETATM    4  H   UNL     1       7.542  27.269  54.840  1.00  0.00     0.278 HD
HETATM    5  H   UNL     1       8.227  25.948  55.558  1.00  0.00     0.278 HD
BRANCH   3   6
HETATM    6  C   UNL     1       6.345  25.579  54.850  1.00  0.00     0.271 C 
BRANCH   6   7
HETATM    7  C   UNL     1       6.985  24.283  54.439  1.00  0.00    -0.033 A 
HETATM    8  C   UNL     1       7.201  23.998  53.080  1.00  0.00     0.010 A 
HETATM    9  C   UNL     1       7.762  22.776  52.695  1.00  0.00     0.024 A 
HETATM   10  C   UNL     1       8.108  21.835  53.661  1.00  0.00     0.034 A 
HETATM   11 CL   UNL     1       8.796  20.334  53.186  1.00  0.00    -0.084 Cl
HETATM   12  C   UNL     1       7.896  22.103  55.011  1.00  0.00     0.024 A 
HETATM   13  C   UNL     1       7.332  23.322  55.401  1.00  0.00     0.010 A 
ENDBRANCH   6   7
ENDBRANCH   3   6
ENDBRANCH   2   3
BRANCH   2  14
HETATM   14  C   UNL     1       7.883  28.160  57.240  1.00  0.00     0.138 A 
HETATM   15  N   UNL     1       7.704  28.716  58.399  1.00  0.00    -0.232 NA
HETATM   16  C   UNL     1       8.523  29.817  58.725  1.00  0.00     0.074 A 
HETATM   17  C   UNL     1       9.487  30.325  57.847  1.00  0.00     0.061 A 
HETATM   18  C   UNL     1       8.366  30.431  59.969  1.00  0.00     0.032 A 
HETATM   19  C   UNL     1       9.637  29.653  56.547  1.00  0.00     0.259 A 
HETATM   20  C   UNL     1      10.282  31.422  58.187  1.00  0.00     0.019 A 
HETATM   21  O   UNL     1      10.437  30.016  55.696  1.00  0.00    -0.267 OA
HETATM   22  N   UNL     1       8.809  28.579  56.329  1.00  0.00    -0.309 N 
HETATM   23  H   UNL     1       8.948  28.136  55.430  1.00  0.00     0.170 HD
HETATM   24  C   UNL     1      10.112  32.025  59.431  1.00  0.00     0.001 A 
HETATM   25  C   UNL     1       9.158  31.530  60.321  1.00  0.00     0.002 A 
ENDBRANCH   2  14
TORSDOF 4
ENDMDL
MODEL 3
REMARK VINA RESULT:      -8.9      5.614      8.268
REMARK  4 active torsions:
REMARK  status: ('A' for Active; 'I' for Inactive)
REMARK    1  A    between atoms: C_2  and  N_3 
REMARK    2  A    between atoms: C_2  and  C_14 
REMARK    3  A    between atoms: N_3  and  C_6 
REMARK    4  A    between atoms: C_6  and  C_7 
ROOT
HETATM    1  C   UNL     1       4.763  24.904  52.401  1.00  0.00     0.048 C 
HETATM    2  C   UNL     1       5.738  25.944  51.868  1.00  0.00     0.251 C 
ENDROOT
BRANCH   2   3
HETATM    3  N   UNL     1       7.010  25.239  51.467  1.00  0.00    -0.060 N 
HETATM    4  H   UNL     1       6.836  24.280  51.145  1.00  0.00     0.278 HD
HETATM    5  H   UNL     1       7.383  25.761  50.656  1.00  0.00     0.278 HD
BRANCH   3   6
HETATM    6  C   UNL     1       8.082  25.227  52.501  1.00  0.00     0.271 C 
BRANCH   6   7
HETATM    7  C   UNL     1       7.946  24.026  53.394  1.00  0.00    -0.033 A 
HETATM    8  C   UNL     1       7.873  24.183  54.789  1.00  0.00     0.010 A 
HETATM    9  C   UNL     1       7.783  23.063  55.622  1.00  0.00     0.024 A 
HETATM   10  C   UNL     1       7.766  21.785  55.069  1.00  0.00     0.034 A 
HETATM   11 CL   UNL     1       7.657  20.411  56.094  1.00  0.00    -0.084 Cl
HETATM   12  C   UNL     1       7.840  21.616  53.689  1.00  0.00     0.024 A 
HETATM   13  C   UNL     1       7.934  22.732  52.852  1.00  0.00     0.010 A 
ENDBRANCH   6   7
ENDBRANCH   3   6
ENDBRANCH   2   3
BRANCH   2  14
HETATM   14  C   UNL     1       5.131  26.658  50.654  1.00  0.00     0.138 A 
HETATM   15  N   UNL     1       5.467  27.892  50.433  1.00  0.00    -0.232 NA
HETATM   16  C   UNL     1       4.906  28.526  49.305  1.00  0.00     0.074 A 
HETATM   17  C   UNL     1       4.006  27.881  48.449  1.00  0.00     0.061 A 
HETATM   18  C   UNL     1       5.256  29.849  49.030  1.00  0.00     0.032 A 
HETATM   19  C   UNL     1       3.662  26.485  48.757  1.00  0.00     0.259 A 
HETATM   20  C   UNL     1       3.455  28.531  47.342  1.00  0.00     0.019 A 
HETATM   21  O   UNL     1       2.878  25.827  48.087  1.00  0.00    -0.267 OA
HETATM   22  N   UNL     1       4.274  25.948  49.864  1.00  0.00    -0.309 N 
HETATM   23  H   UNL     1       4.022  24.984  50.038  1.00  0.00     0.170 HD
HETATM   24  C   UNL     1       3.812  29.852  47.082  1.00  0.00     0.001 A 
HETATM   25  C   UNL     1       4.711  30.510  47.922  1.00  0.00     0.002 A 
ENDBRANCH   2  14
TORSDOF 4
ENDMDL
MODEL 4
REMARK VINA RESULT:      -8.8      5.026      7.454
REMARK  4 active torsions:
REMARK  status: ('A' for Active; 'I' for Inactive)
REMARK    1  A    between atoms: C_2  and  N_3 
REMARK    2  A    between atoms: C_2  and  C_14 
REMARK    3  A    between atoms: N_3  and  C_6 
REMARK    4  A    between atoms: C_6  and  C_7 
ROOT
HETATM    1  C   UNL     1       4.552  28.260  54.793  1.00  0.00     0.048 C 
HETATM    2  C   UNL     1       5.579  27.452  54.014  1.00  0.00     0.251 C 
ENDROOT
BRANCH   2   3
HETATM    3  N   UNL     1       5.307  25.987  54.248  1.00  0.00    -0.060 N 
HETATM    4  H   UNL     1       4.321  25.807  54.471  1.00  0.00     0.278 HD
HETATM    5  H   UNL     1       5.498  25.513  53.350  1.00  0.00     0.278 HD
BRANCH   3   6
HETATM    6  C   UNL     1       6.172  25.336  55.272  1.00  0.00     0.271 C 
BRANCH   6   7
HETATM    7  C   UNL     1       6.848  24.122  54.702  1.00  0.00    -0.033 A 
HETATM    8  C   UNL     1       7.055  24.009  53.316  1.00  0.00     0.010 A 
HETATM    9  C   UNL     1       7.650  22.862  52.782  1.00  0.00     0.024 A 
HETATM   10  C   UNL     1       8.040  21.824  53.625  1.00  0.00     0.034 A 
HETATM   11 CL   UNL     1       8.770  20.416  52.966  1.00  0.00    -0.084 Cl
HETATM   12  C   UNL     1       7.838  21.921  54.999  1.00  0.00     0.024 A 
HETATM   13  C   UNL     1       7.239  23.064  55.538  1.00  0.00     0.010 A 
ENDBRANCH   6   7
ENDBRANCH   3   6
ENDBRANCH   2   3
BRANCH   2  14
HETATM   14  C   UNL     1       5.471  27.771  52.518  1.00  0.00     0.138 A 
HETATM   15  N   UNL     1       5.077  26.831  51.715  1.00  0.00    -0.232 NA
HETATM   16  C   UNL     1       4.974  27.148  50.344  1.00  0.00     0.074 A 
HETATM   17  C   UNL     1       5.293  28.414  49.838  1.00  0.00     0.061 A 
HETATM   18  C   UNL     1       4.541  26.165  49.453  1.00  0.00     0.032 A 
HETATM   19  C   UNL     1       5.737  29.434  50.800  1.00  0.00     0.259 A 
HETATM   20  C   UNL     1       5.191  28.704  48.476  1.00  0.00     0.019 A 
HETATM   21  O   UNL     1       6.054  30.568  50.471  1.00  0.00    -0.267 OA
HETATM   22  N   UNL     1       5.787  29.036  52.114  1.00  0.00    -0.309 N 
HETATM   23  H   UNL     1       6.087  29.766  52.747  1.00  0.00     0.170 HD
HETATM   24  C   UNL     1       4.760  27.711  47.599  1.00  0.00     0.001 A 
HETATM   25  C   UNL     1       4.434  26.445  48.086  1.00  0.00     0.002 A 
ENDBRANCH   2  14
TORSDOF 4
ENDMDL
MODEL 5
REMARK VINA RESULT:      -8.6      3.783      7.886
REMARK  4 active torsions:
REMARK  status: ('A' for Active; 'I' for Inactive)
REMARK    1  A    between atoms: C_2  and  N_3 
REMARK    2  A    between atoms: C_2  and  C_14 
REMARK    3  A    between atoms: N_3  and  C_6 
REMARK    4  A    between atoms: C_6  and  C_7 
ROOT
HETATM    1  C   UNL     1       4.691  27.885  55.595  1.00  0.00     0.048 C 
HETATM    2  C   UNL     1       5.531  27.336  56.740  1.00  0.00     0.251 C 
ENDROOT
BRANCH   2   3
HETATM    3  N   UNL     1       6.224  26.084  56.261  1.00  0.00    -0.060 N 
HETATM    4  H   UNL     1       7.227  26.087  56.482  1.00  0.00     0.278 HD
HETATM    5  H   UNL     1       5.806  25.304  56.795  1.00  0.00     0.278 HD
BRANCH   3   6
HETATM    6  C   UNL     1       6.037  25.768  54.817  1.00  0.00     0.271 C 
BRANCH   6   7
HETATM    7  C   UNL     1       6.744  24.492  54.457  1.00  0.00    -0.033 A 
HETATM    8  C   UNL     1       7.086  24.223  53.121  1.00  0.00     0.010 A 
HETATM    9  C   UNL     1       7.711  23.019  52.780  1.00  0.00     0.024 A 
HETATM   10  C   UNL     1       7.997  22.080  53.768  1.00  0.00     0.034 A 
HETATM   11 CL   UNL     1       8.763  20.601  53.347  1.00  0.00    -0.084 Cl
HETATM   12  C   UNL     1       7.660  22.333  55.096  1.00  0.00     0.024 A 
HETATM   13  C   UNL     1       7.032  23.533  55.441  1.00  0.00     0.010 A 
ENDBRANCH   6   7
ENDBRANCH   3   6
ENDBRANCH   2   3
BRANCH   2  14
HETATM   14  C   UNL     1       6.571  28.376  57.171  1.00  0.00     0.138 A 
HETATM   15  N   UNL     1       7.806  28.199  56.812  1.00  0.00    -0.232 NA
HETATM   16  C   UNL     1       8.745  29.174  57.211  1.00  0.00     0.074 A 
HETATM   17  C   UNL     1       8.392  30.290  57.978  1.00  0.00     0.061 A 
HETATM   18  C   UNL     1      10.079  29.021  56.831  1.00  0.00     0.032 A 
HETATM   19  C   UNL     1       6.978  30.430  58.356  1.00  0.00     0.259 A 
HETATM   20  C   UNL     1       9.340  31.239  58.368  1.00  0.00     0.019 A 
HETATM   21  O   UNL     1       6.557  31.357  59.034  1.00  0.00    -0.267 OA
HETATM   22  N   UNL     1       6.137  29.442  57.905  1.00  0.00    -0.309 N 
HETATM   23  H   UNL     1       5.171  29.578  58.176  1.00  0.00     0.170 HD
HETATM   24  C   UNL     1      10.668  31.071  57.983  1.00  0.00     0.001 A 
HETATM   25  C   UNL     1      11.037  29.966  57.215  1.00  0.00     0.002 A 
ENDBRANCH   2  14
TORSDOF 4
ENDMDL
MODEL 6
REMARK VINA RESULT:      -8.5      5.802      8.020
REMARK  4 active torsions:
REMARK  status: ('A' for Active; 'I' for Inactive)
REMARK    1  A    between atoms: C_2  and  N_3 
REMARK    2  A    between atoms: C_2  and  C_14 
REMARK    3  A    between atoms: N_3  and  C_6 
REMARK    4  A    between atoms: C_6  and  C_7 
ROOT
HETATM    1  C   UNL     1       5.698  27.703  52.352  1.00  0.00     0.048 C 
HETATM    2  C   UNL     1       4.887  26.431  52.555  1.00  0.00     0.251 C 
ENDROOT
BRANCH   2   3
HETATM    3  N   UNL     1       4.587  25.839  51.200  1.00  0.00    -0.060 N 
HETATM    4  H   UNL     1       4.967  24.892  51.098  1.00  0.00     0.278 HD
HETATM    5  H   UNL     1       3.558  25.753  51.147  1.00  0.00     0.278 HD
BRANCH   3   6
HETATM    6  C   UNL     1       5.009  26.670  50.037  1.00  0.00     0.271 C 
BRANCH   6   7
HETATM    7  C   UNL     1       3.880  26.826  49.058  1.00  0.00    -0.033 A 
HETATM    8  C   UNL     1       2.945  27.863  49.211  1.00  0.00     0.010 A 
HETATM    9  C   UNL     1       1.873  27.986  48.321  1.00  0.00     0.024 A 
HETATM   10  C   UNL     1       1.730  27.076  47.276  1.00  0.00     0.034 A 
HETATM   11 CL   UNL     1       0.412  27.228  46.185  1.00  0.00    -0.084 Cl
HETATM   12  C   UNL     1       2.648  26.042  47.115  1.00  0.00     0.024 A 
HETATM   13  C   UNL     1       3.719  25.912  48.004  1.00  0.00     0.010 A 
ENDBRANCH   6   7
ENDBRANCH   3   6
ENDBRANCH   2   3
BRANCH   2  14
HETATM   14  C   UNL     1       5.687  25.429  53.396  1.00  0.00     0.138 A 
HETATM   15  N   UNL     1       6.362  24.508  52.780  1.00  0.00    -0.232 NA
HETATM   16  C   UNL     1       7.100  23.603  53.573  1.00  0.00     0.074 A 
HETATM   17  C   UNL     1       7.108  23.661  54.971  1.00  0.00     0.061 A 
HETATM   18  C   UNL     1       7.849  22.608  52.943  1.00  0.00     0.032 A 
HETATM   19  C   UNL     1       6.318  24.726  55.608  1.00  0.00     0.259 A 
HETATM   20  C   UNL     1       7.839  22.750  55.737  1.00  0.00     0.019 A 
HETATM   21  O   UNL     1       6.241  24.865  56.821  1.00  0.00    -0.267 OA
HETATM   22  N   UNL     1       5.650  25.568  54.754  1.00  0.00    -0.309 N 
HETATM   23  H   UNL     1       5.127  26.294  55.227  1.00  0.00     0.170 HD
HETATM   24  C   UNL     1       8.579  21.761  55.094  1.00  0.00     0.001 A 
HETATM   25  C   UNL     1       8.586  21.691  53.700  1.00  0.00     0.002 A 
ENDBRANCH   2  14
TORSDOF 4
ENDMDL
MODEL 7
REMARK VINA RESULT:      -8.5      4.231      6.606
REMARK  4 active torsions:
REMARK  status: ('A' for Active; 'I' for Inactive)
REMARK    1  A    between atoms: C_2  and  N_3 
REMARK    2  A    between atoms: C_2  and  C_14 
REMARK    3  A    between atoms: N_3  and  C_6 
REMARK    4  A    between atoms: C_6  and  C_7 
ROOT
HETATM    1  C   UNL     1       8.985  31.699  58.922  1.00  0.00     0.048 C 
HETATM    2  C   UNL     1       8.717  30.334  59.539  1.00  0.00     0.251 C 
ENDROOT
BRANCH   2   3
HETATM    3  N   UNL     1       8.073  30.542  60.888  1.00  0.00    -0.060 N 
HETATM    4  H   UNL     1       7.058  30.677  60.816  1.00  0.00     0.278 HD
HETATM    5  H   UNL     1       8.218  29.662  61.412  1.00  0.00     0.278 HD
BRANCH   3   6
HETATM    6  C   UNL     1       8.661  31.636  61.709  1.00  0.00     0.271 C 
BRANCH   6   7
HETATM    7  C   UNL     1       7.644  32.184  62.670  1.00  0.00    -0.033 A 
HETATM    8  C   UNL     1       8.055  32.910  63.801  1.00  0.00     0.010 A 
HETATM    9  C   UNL     1       7.110  33.388  64.715  1.00  0.00     0.024 A 
HETATM   10  C   UNL     1       5.755  33.145  64.505  1.00  0.00     0.034 A 
HETATM   11 CL   UNL     1       4.596  33.733  65.630  1.00  0.00    -0.084 Cl
HETATM   12  C   UNL     1       5.335  32.425  63.390  1.00  0.00     0.024 A 
HETATM   13  C   UNL     1       6.275  31.941  62.476  1.00  0.00     0.010 A 
ENDBRANCH   6   7
ENDBRANCH   3   6
ENDBRANCH   2   3
BRANCH   2  14
HETATM   14  C   UNL     1       7.781  29.525  58.633  1.00  0.00     0.138 A 
HETATM   15  N   UNL     1       8.169  28.350  58.239  1.00  0.00    -0.232 NA
HETATM   16  C   UNL     1       7.289  27.618  57.414  1.00  0.00     0.074 A 
HETATM   17  C   UNL     1       6.047  28.119  57.006  1.00  0.00     0.061 A 
HETATM   18  C   UNL     1       7.668  26.346  56.983  1.00  0.00     0.032 A 
HETATM   19  C   UNL     1       5.669  29.458  57.483  1.00  0.00     0.259 A 
HETATM   20  C   UNL     1       5.194  27.381  56.183  1.00  0.00     0.019 A 
HETATM   21  O   UNL     1       4.616  30.002  57.182  1.00  0.00    -0.267 OA
HETATM   22  N   UNL     1       6.583  30.084  58.296  1.00  0.00    -0.309 N 
HETATM   23  H   UNL     1       6.284  30.998  58.613  1.00  0.00     0.170 HD
HETATM   24  C   UNL     1       5.588  26.114  55.758  1.00  0.00     0.001 A 
HETATM   25  C   UNL     1       6.821  25.596  56.159  1.00  0.00     0.002 A 
ENDBRANCH   2  14
TORSDOF 4
ENDMDL
MODEL 8
REMARK VINA RESULT:      -8.5      1.850      2.383
REMARK  4 active torsions:
REMARK  status: ('A' for Active; 'I' for Inactive)
REMARK    1  A    between atoms: C_2  and  N_3 
REMARK    2  A    between atoms: C_2  and  C_14 
REMARK    3  A    between atoms: N_3  and  C_6 
REMARK    4  A    between atoms: C_6  and  C_7 
ROOT
HETATM    1  C   UNL     1       4.809  25.693  53.161  1.00  0.00     0.048 C 
HETATM    2  C   UNL     1       6.289  25.904  53.445  1.00  0.00     0.251 C 
ENDROOT
BRANCH   2   3
HETATM    3  N   UNL     1       6.424  27.028  54.442  1.00  0.00    -0.060 N 
HETATM    4  H   UNL     1       5.609  27.651  54.437  1.00  0.00     0.278 HD
HETATM    5  H   UNL     1       6.450  26.582  55.375  1.00  0.00     0.278 HD
BRANCH   3   6
HETATM    6  C   UNL     1       7.668  27.840  54.319  1.00  0.00     0.271 C 
BRANCH   6   7
HETATM    7  C   UNL     1       8.002  28.502  55.625  1.00  0.00    -0.033 A 
HETATM    8  C   UNL     1       9.168  29.276  55.751  1.00  0.00     0.010 A 
HETATM    9  C   UNL     1       9.498  29.862  56.977  1.00  0.00     0.024 A 
HETATM   10  C   UNL     1       8.670  29.677  58.082  1.00  0.00     0.034 A 
HETATM   11 CL   UNL     1       9.079  30.396  59.587  1.00  0.00    -0.084 Cl
HETATM   12  C   UNL     1       7.514  28.909  57.972  1.00  0.00     0.024 A 
HETATM   13  C   UNL     1       7.181  28.319  56.749  1.00  0.00     0.010 A 
ENDBRANCH   6   7
ENDBRANCH   3   6
ENDBRANCH   2   3
BRANCH   2  14
HETATM   14  C   UNL     1       6.900  24.620  54.019  1.00  0.00     0.138 A 
HETATM   15  N   UNL     1       7.083  23.615  53.220  1.00  0.00    -0.232 NA
HETATM   16  C   UNL     1       7.657  22.447  53.765  1.00  0.00     0.074 A 
HETATM   17  C   UNL     1       8.009  22.341  55.116  1.00  0.00     0.061 A 
HETATM   18  C   UNL     1       7.881  21.350  52.931  1.00  0.00     0.032 A 
HETATM   19  C   UNL     1       7.772  23.515  55.970  1.00  0.00     0.259 A 
HETATM   20  C   UNL     1       8.569  21.172  55.637  1.00  0.00     0.019 A 
HETATM   21  O   UNL     1       8.028  23.534  57.166  1.00  0.00    -0.267 OA
HETATM   22  N   UNL     1       7.228  24.610  55.344  1.00  0.00    -0.309 N 
HETATM   23  H   UNL     1       7.089  25.401  55.960  1.00  0.00     0.170 HD
HETATM   24  C   UNL     1       8.783  20.086  54.793  1.00  0.00     0.001 A 
HETATM   25  C   UNL     1       8.442  20.174  53.442  1.00  0.00     0.002 A 
ENDBRANCH   2  14
TORSDOF 4
ENDMDL
MODEL 9
REMARK VINA RESULT:      -8.5      2.397      3.566
REMARK  4 active torsions:
REMARK  status: ('A' for Active; 'I' for Inactive)
REMARK    1  A    between atoms: C_2  and  N_3 
REMARK    2  A    between atoms: C_2  and  C_14 
REMARK    3  A    between atoms: N_3  and  C_6 
REMARK    4  A    between atoms: C_6  and  C_7 
ROOT
HETATM    1  C   UNL     1       5.509  28.766  57.247  1.00  0.00     0.048 C 
HETATM    2  C   UNL     1       6.999  28.624  56.970  1.00  0.00     0.251 C 
ENDROOT
BRANCH   2   3
HETATM    3  N   UNL     1       7.750  28.938  58.240  1.00  0.00    -0.060 N 
HETATM    4  H   UNL     1       7.150  28.872  59.071  1.00  0.00     0.278 HD
HETATM    5  H   UNL     1       8.471  28.203  58.335  1.00  0.00     0.278 HD
BRANCH   3   6
HETATM    6  C   UNL     1       8.463  30.246  58.248  1.00  0.00     0.271 C 
BRANCH   6   7
HETATM    7  C   UNL     1       8.356  30.901  59.596  1.00  0.00    -0.033 A 
HETATM    8  C   UNL     1       9.341  30.678  60.574  1.00  0.00     0.010 A 
HETATM    9  C   UNL     1       9.222  31.258  61.840  1.00  0.00     0.024 A 
HETATM   10  C   UNL     1       8.123  32.061  62.138  1.00  0.00     0.034 A 
HETATM   11 CL   UNL     1       7.979  32.771  63.695  1.00  0.00    -0.084 Cl
HETATM   12  C   UNL     1       7.139  32.287  61.179  1.00  0.00     0.024 A 
HETATM   13  C   UNL     1       7.251  31.706  59.912  1.00  0.00     0.010 A 
ENDBRANCH   6   7
ENDBRANCH   3   6
ENDBRANCH   2   3
BRANCH   2  14
HETATM   14  C   UNL     1       7.312  27.192  56.518  1.00  0.00     0.138 A 
HETATM   15  N   UNL     1       6.891  26.808  55.352  1.00  0.00    -0.232 NA
HETATM   16  C   UNL     1       7.200  25.490  54.952  1.00  0.00     0.074 A 
HETATM   17  C   UNL     1       7.915  24.604  55.766  1.00  0.00     0.061 A 
HETATM   18  C   UNL     1       6.775  25.048  53.698  1.00  0.00     0.032 A 
HETATM   19  C   UNL     1       8.359  25.100  57.077  1.00  0.00     0.259 A 
HETATM   20  C   UNL     1       8.202  23.301  55.353  1.00  0.00     0.019 A 
HETATM   21  O   UNL     1       8.979  24.411  57.876  1.00  0.00    -0.267 OA
HETATM   22  N   UNL     1       8.028  26.400  57.369  1.00  0.00    -0.309 N 
HETATM   23  H   UNL     1       8.359  26.709  58.274  1.00  0.00     0.170 HD
HETATM   24  C   UNL     1       7.768  22.873  54.100  1.00  0.00     0.001 A 
HETATM   25  C   UNL     1       7.058  23.745  53.273  1.00  0.00     0.002 A 
ENDBRANCH   2  14
TORSDOF 4
ENDMDL
MODEL 10
REMARK VINA RESULT:      -8.4      4.012      5.549
REMARK  4 active torsions:
REMARK  status: ('A' for Active; 'I' for Inactive)
REMARK    1  A    between atoms: C_2  and  N_3 
REMARK    2  A    between atoms: C_2  and  C_14 
REMARK    3  A    between atoms: N_3  and  C_6 
REMARK    4  A    between atoms: C_6  and  C_7 
ROOT
HETATM    1  C   UNL     1       7.632  25.920  57.750  1.00  0.00     0.048 C 
HETATM    2  C   UNL     1       6.827  25.414  56.561  1.00  0.00     0.251 C 
ENDROOT
BRANCH   2   3
HETATM    3  N   UNL     1       7.002  26.388  55.422  1.00  0.00    -0.060 N 
HETATM    4  H   UNL     1       7.762  27.055  55.596  1.00  0.00     0.278 HD
HETATM    5  H   UNL     1       7.286  25.822  54.604  1.00  0.00     0.278 HD
BRANCH   3   6
HETATM    6  C   UNL     1       5.772  27.130  55.027  1.00  0.00     0.271 C 
BRANCH   6   7
HETATM    7  C   UNL     1       5.489  26.947  53.563  1.00  0.00    -0.033 A 
HETATM    8  C   UNL     1       5.178  25.675  53.053  1.00  0.00     0.010 A 
HETATM    9  C   UNL     1       4.951  25.499  51.685  1.00  0.00     0.024 A 
HETATM   10  C   UNL     1       5.032  26.588  50.821  1.00  0.00     0.034 A 
HETATM   11 CL   UNL     1       4.753  26.368  49.139  1.00  0.00    -0.084 Cl
HETATM   12  C   UNL     1       5.342  27.853  51.312  1.00  0.00     0.024 A 
HETATM   13  C   UNL     1       5.574  28.034  52.679  1.00  0.00     0.010 A 
ENDBRANCH   6   7
ENDBRANCH   3   6
ENDBRANCH   2   3
BRANCH   2  14
HETATM   14  C   UNL     1       7.326  24.026  56.144  1.00  0.00     0.138 A 
HETATM   15  N   UNL     1       7.332  23.727  54.881  1.00  0.00    -0.232 NA
HETATM   16  C   UNL     1       7.805  22.449  54.517  1.00  0.00     0.074 A 
HETATM   17  C   UNL     1       8.242  21.512  55.460  1.00  0.00     0.061 A 
HETATM   18  C   UNL     1       7.837  22.099  53.166  1.00  0.00     0.032 A 
HETATM   19  C   UNL     1       8.206  21.910  56.876  1.00  0.00     0.259 A 
HETATM   20  C   UNL     1       8.699  20.248  55.079  1.00  0.00     0.019 A 
HETATM   21  O   UNL     1       8.551  21.170  57.786  1.00  0.00    -0.267 OA
HETATM   22  N   UNL     1       7.748  23.180  57.129  1.00  0.00    -0.309 N 
HETATM   23  H   UNL     1       7.748  23.422  58.111  1.00  0.00     0.170 HD
HETATM   24  C   UNL     1       8.723  19.913  53.727  1.00  0.00     0.001 A 
HETATM   25  C   UNL     1       8.295  20.837  52.772  1.00  0.00     0.002 A 
ENDBRANCH   2  14
TORSDOF 4
ENDMDL
