MODEL 1
REMARK VINA RESULT:      -8.5      0.000      0.000
REMARK  8 active torsions:
REMARK  status: ('A' for Active; 'I' for Inactive)
REMARK    1  A    between atoms: C_7  and  C_8 
REMARK    2  A    between atoms: C_8  and  C_9 
REMARK    3  A    between atoms: C_9  and  N_10 
REMARK       I    between atoms: N_10  and  C_11 
REMARK    4  A    between atoms: C_11  and  C_12 
REMARK    5  A    between atoms: C_12  and  S_13 
REMARK    6  A    between atoms: S_13  and  C_14 
REMARK    7  A    between atoms: C_23  and  O_24 
REMARK    8  A    between atoms: O_24  and  C_25 
ROOT
HETATM    1  C   UNL     1       4.720  27.855  55.443  1.00  0.00     0.068 C 
HETATM    2  C   UNL     1       5.572  26.696  55.066  1.00  0.00     0.013 A 
HETATM    3  N   UNL     1       5.558  26.171  53.799  1.00  0.00    -0.359 N 
HETATM    4  H   UNL     1       4.991  26.513  53.034  1.00  0.00     0.166 HD
HETATM    5  C   UNL     1       6.417  25.102  53.710  1.00  0.00     0.043 A 
HETATM    6  C   UNL     1       7.010  24.946  54.959  1.00  0.00     0.002 A 
HETATM    7  C   UNL     1       6.474  25.960  55.819  1.00  0.00    -0.022 A 
HETATM    8  C   UNL     1       6.713  24.270  52.625  1.00  0.00     0.033 A 
HETATM    9  C   UNL     1       7.641  23.240  52.825  1.00  0.00     0.039 A 
HETATM   10  C   UNL     1       8.253  23.049  54.062  1.00  0.00     0.077 A 
HETATM   11  C   UNL     1       7.943  23.904  55.131  1.00  0.00     0.051 A 
ENDROOT
BRANCH   7  12
HETATM   12  C   UNL     1       6.812  26.175  57.263  1.00  0.00     0.061 C 
BRANCH  12  13
HETATM   13  C   UNL     1       8.103  26.979  57.434  1.00  0.00     0.127 C 
BRANCH  13  14
HETATM   14  N   UNL     1       7.883  28.264  58.073  1.00  0.00    -0.360 N 
HETATM   15  C   UNL     1       7.776  29.426  57.338  1.00  0.00     0.227 C 
HETATM   16  O   UNL     1       7.975  29.476  56.126  1.00  0.00    -0.273 OA
HETATM   17  H   UNL     1       7.420  28.274  58.983  1.00  0.00     0.162 HD
BRANCH  15  18
HETATM   18  C   UNL     1       7.409  30.651  58.154  1.00  0.00     0.183 C 
BRANCH  18  19
HETATM   19  S   UNL     1       8.872  31.341  58.969  1.00  0.00    -0.098 SA
BRANCH  19  20
HETATM   20  C   UNL     1       8.614  30.939  60.639  1.00  0.00     0.134 A 
HETATM   21  N   UNL     1       9.372  30.088  61.343  1.00  0.00    -0.149 NA
HETATM   22  N   UNL     1       8.774  30.147  62.551  1.00  0.00    -0.196 N 
HETATM   23  H   UNL     1       9.125  29.609  63.341  1.00  0.00     0.213 HD
HETATM   24  N   UNL     1       7.694  30.934  62.685  1.00  0.00    -0.167 NA
HETATM   25  C   UNL     1       7.589  31.446  61.454  1.00  0.00     0.180 A 
ENDBRANCH  19  20
ENDBRANCH  18  19
ENDBRANCH  15  18
ENDBRANCH  13  14
ENDBRANCH  12  13
ENDBRANCH   7  12
BRANCH  10  26
HETATM   26  O   UNL     1       9.167  22.079  54.374  1.00  0.00    -0.270 OA
BRANCH  26  27
HETATM   27  C   UNL     1       8.690  20.785  54.718  1.00  0.00     0.447 C 
HETATM   28 CL   UNL     1       9.262  20.360  56.335  1.00  0.00    -0.014 Cl
HETATM   29  F   UNL     1       7.334  20.770  54.696  1.00  0.00    -0.159 F 
HETATM   30  F   UNL     1       9.138  19.873  53.820  1.00  0.00    -0.159 F 
ENDBRANCH  26  27
ENDBRANCH  10  26
TORSDOF 8
ENDMDL
MODEL 2
REMARK VINA RESULT:      -8.4      4.524      8.231
REMARK  8 active torsions:
REMARK  status: ('A' for Active; 'I' for Inactive)
REMARK    1  A    between atoms: C_7  and  C_8 
REMARK    2  A    between atoms: C_8  and  C_9 
REMARK    3  A    between atoms: C_9  and  N_10 
REMARK       I    between atoms: N_10  and  C_11 
REMARK    4  A    between atoms: C_11  and  C_12 
REMARK    5  A    between atoms: C_12  and  S_13 
REMARK    6  A    between atoms: S_13  and  C_14 
REMARK    7  A    between atoms: C_23  and  O_24 
REMARK    8  A    between atoms: O_24  and  C_25 
ROOT
HETATM    1  C   UNL     1       4.726  27.582  55.201  1.00  0.00     0.068 C 
HETATM    2  C   UNL     1       5.671  26.438  55.109  1.00  0.00     0.013 A 
HETATM    3  N   UNL     1       6.661  26.242  56.037  1.00  0.00    -0.359 N 
HETATM    4  H   UNL     1       6.831  26.834  56.840  1.00  0.00     0.166 HD
HETATM    5  C   UNL     1       7.406  25.131  55.722  1.00  0.00     0.043 A 
HETATM    6  C   UNL     1       6.865  24.590  54.560  1.00  0.00     0.002 A 
HETATM    7  C   UNL     1       5.762  25.419  54.173  1.00  0.00    -0.022 A 
HETATM    8  C   UNL     1       8.507  24.567  56.375  1.00  0.00     0.033 A 
HETATM    9  C   UNL     1       9.079  23.416  55.818  1.00  0.00     0.039 A 
HETATM   10  C   UNL     1       8.568  22.846  54.654  1.00  0.00     0.077 A 
HETATM   11  C   UNL     1       7.458  23.429  54.024  1.00  0.00     0.051 A 
ENDROOT
BRANCH   7  12
HETATM   12  C   UNL     1       4.883  25.232  52.974  1.00  0.00     0.061 C 
BRANCH  12  13
HETATM   13  C   UNL     1       5.597  25.615  51.675  1.00  0.00     0.127 C 
BRANCH  13  14
HETATM   14  N   UNL     1       4.802  26.494  50.837  1.00  0.00    -0.360 N 
HETATM   15  C   UNL     1       4.970  27.863  50.864  1.00  0.00     0.227 C 
HETATM   16  O   UNL     1       5.702  28.435  51.668  1.00  0.00    -0.273 OA
HETATM   17  H   UNL     1       4.422  26.113  49.969  1.00  0.00     0.162 HD
BRANCH  15  18
HETATM   18  C   UNL     1       4.158  28.613  49.825  1.00  0.00     0.183 C 
BRANCH  18  19
HETATM   19  S   UNL     1       4.765  28.256  48.156  1.00  0.00    -0.098 SA
BRANCH  19  20
HETATM   20  C   UNL     1       3.443  27.388  47.438  1.00  0.00     0.134 A 
HETATM   21  N   UNL     1       3.531  26.153  46.927  1.00  0.00    -0.149 NA
HETATM   22  N   UNL     1       2.258  25.946  46.529  1.00  0.00    -0.196 N 
HETATM   23  H   UNL     1       1.976  25.069  46.097  1.00  0.00     0.213 HD
HETATM   24  N   UNL     1       1.369  26.936  46.714  1.00  0.00    -0.167 NA
HETATM   25  C   UNL     1       2.130  27.866  47.300  1.00  0.00     0.180 A 
ENDBRANCH  19  20
ENDBRANCH  18  19
ENDBRANCH  15  18
ENDBRANCH  13  14
ENDBRANCH  12  13
ENDBRANCH   7  12
BRANCH  10  26
HETATM   26  O   UNL     1       9.044  21.731  54.020  1.00  0.00    -0.270 OA
BRANCH  26  27
HETATM   27  C   UNL     1       8.333  20.510  54.173  1.00  0.00     0.447 C 
HETATM   28 CL   UNL     1       7.561  20.477  55.762  1.00  0.00    -0.014 Cl
HETATM   29  F   UNL     1       7.390  20.398  53.206  1.00  0.00    -0.159 F 
HETATM   30  F   UNL     1       9.185  19.460  54.057  1.00  0.00    -0.159 F 
ENDBRANCH  26  27
ENDBRANCH  10  26
TORSDOF 8
ENDMDL
MODEL 3
REMARK VINA RESULT:      -8.3      4.247      8.076
REMARK  8 active torsions:
REMARK  status: ('A' for Active; 'I' for Inactive)
REMARK    1  A    between atoms: C_7  and  C_8 
REMARK    2  A    between atoms: C_8  and  C_9 
REMARK    3  A    between atoms: C_9  and  N_10 
REMARK       I    between atoms: N_10  and  C_11 
REMARK    4  A    between atoms: C_11  and  C_12 
REMARK    5  A    between atoms: C_12  and  S_13 
REMARK    6  A    between atoms: S_13  and  C_14 
REMARK    7  A    between atoms: C_23  and  O_24 
REMARK    8  A    between atoms: O_24  and  C_25 
ROOT
HETATM    1  C   UNL     1       6.903  29.089  57.046  1.00  0.00     0.068 C 
HETATM    2  C   UNL     1       7.115  27.663  56.683  1.00  0.00     0.013 A 
HETATM    3  N   UNL     1       7.963  26.855  57.396  1.00  0.00    -0.359 N 
HETATM    4  H   UNL     1       8.498  27.143  58.205  1.00  0.00     0.166 HD
HETATM    5  C   UNL     1       7.997  25.592  56.854  1.00  0.00     0.043 A 
HETATM    6  C   UNL     1       7.132  25.590  55.764  1.00  0.00     0.002 A 
HETATM    7  C   UNL     1       6.571  26.904  55.658  1.00  0.00    -0.022 A 
HETATM    8  C   UNL     1       8.721  24.461  57.245  1.00  0.00     0.033 A 
HETATM    9  C   UNL     1       8.562  23.290  56.493  1.00  0.00     0.039 A 
HETATM   10  C   UNL     1       7.707  23.248  55.393  1.00  0.00     0.077 A 
HETATM   11  C   UNL     1       6.987  24.396  55.028  1.00  0.00     0.051 A 
ENDROOT
BRANCH   7  12
HETATM   12  C   UNL     1       5.593  27.376  54.625  1.00  0.00     0.061 C 
BRANCH  12  13
HETATM   13  C   UNL     1       6.294  27.892  53.367  1.00  0.00     0.127 C 
BRANCH  13  14
HETATM   14  N   UNL     1       5.587  27.545  52.148  1.00  0.00    -0.360 N 
HETATM   15  C   UNL     1       5.877  26.392  51.449  1.00  0.00     0.227 C 
HETATM   16  O   UNL     1       6.815  25.651  51.733  1.00  0.00    -0.273 OA
HETATM   17  H   UNL     1       4.643  27.912  52.021  1.00  0.00     0.162 HD
BRANCH  15  18
HETATM   18  C   UNL     1       4.948  26.118  50.281  1.00  0.00     0.183 C 
BRANCH  18  19
HETATM   19  S   UNL     1       4.210  27.656  49.674  1.00  0.00    -0.098 SA
BRANCH  19  20
HETATM   20  C   UNL     1       3.196  27.115  48.372  1.00  0.00     0.134 A 
HETATM   21  N   UNL     1       3.622  26.402  47.321  1.00  0.00    -0.149 NA
HETATM   22  N   UNL     1       2.470  26.233  46.639  1.00  0.00    -0.196 N 
HETATM   23  H   UNL     1       2.444  25.705  45.769  1.00  0.00     0.213 HD
HETATM   24  N   UNL     1       1.352  26.787  47.137  1.00  0.00    -0.167 NA
HETATM   25  C   UNL     1       1.817  27.355  48.255  1.00  0.00     0.180 A 
ENDBRANCH  19  20
ENDBRANCH  18  19
ENDBRANCH  15  18
ENDBRANCH  13  14
ENDBRANCH  12  13
ENDBRANCH   7  12
BRANCH  10  26
HETATM   26  O   UNL     1       7.475  22.168  54.587  1.00  0.00    -0.270 OA
BRANCH  26  27
HETATM   27  C   UNL     1       8.281  22.002  53.428  1.00  0.00     0.447 C 
HETATM   28 CL   UNL     1       8.122  20.346  52.835  1.00  0.00    -0.014 Cl
HETATM   29  F   UNL     1       7.891  22.871  52.463  1.00  0.00    -0.159 F 
HETATM   30  F   UNL     1       9.579  22.258  53.727  1.00  0.00    -0.159 F 
ENDBRANCH  26  27
ENDBRANCH  10  26
TORSDOF 8
ENDMDL
MODEL 4
REMARK VINA RESULT:      -8.3      5.512      8.350
REMARK  8 active torsions:
REMARK  status: ('A' for Active; 'I' for Inactive)
REMARK    1  A    between atoms: C_7  and  C_8 
REMARK    2  A    between atoms: C_8  and  C_9 
REMARK    3  A    between atoms: C_9  and  N_10 
REMARK       I    between atoms: N_10  and  C_11 
REMARK    4  A    between atoms: C_11  and  C_12 
REMARK    5  A    between atoms: C_12  and  S_13 
REMARK    6  A    between atoms: S_13  and  C_14 
REMARK    7  A    between atoms: C_23  and  O_24 
REMARK    8  A    between atoms: O_24  and  C_25 
ROOT
HETATM    1  C   UNL     1       7.967  21.660  52.905  1.00  0.00     0.068 C 
HETATM    2  C   UNL     1       7.935  22.730  53.936  1.00  0.00     0.013 A 
HETATM    3  N   UNL     1       8.517  22.566  55.167  1.00  0.00    -0.359 N 
HETATM    4  H   UNL     1       9.006  21.735  55.472  1.00  0.00     0.166 HD
HETATM    5  C   UNL     1       8.337  23.688  55.940  1.00  0.00     0.043 A 
HETATM    6  C   UNL     1       7.626  24.605  55.173  1.00  0.00     0.002 A 
HETATM    7  C   UNL     1       7.373  23.997  53.901  1.00  0.00    -0.022 A 
HETATM    8  C   UNL     1       8.749  23.958  57.250  1.00  0.00     0.033 A 
HETATM    9  C   UNL     1       8.417  25.204  57.797  1.00  0.00     0.039 A 
HETATM   10  C   UNL     1       7.703  26.148  57.061  1.00  0.00     0.077 A 
HETATM   11  C   UNL     1       7.310  25.854  55.747  1.00  0.00     0.051 A 
ENDROOT
BRANCH   7  12
HETATM   12  C   UNL     1       6.628  24.608  52.752  1.00  0.00     0.061 C 
BRANCH  12  13
HETATM   13  C   UNL     1       5.154  24.843  53.087  1.00  0.00     0.127 C 
BRANCH  13  14
HETATM   14  N   UNL     1       4.575  25.941  52.335  1.00  0.00    -0.360 N 
HETATM   15  C   UNL     1       4.483  27.210  52.868  1.00  0.00     0.227 C 
HETATM   16  O   UNL     1       4.765  27.472  54.035  1.00  0.00    -0.273 OA
HETATM   17  H   UNL     1       4.605  25.892  51.316  1.00  0.00     0.162 HD
BRANCH  15  18
HETATM   18  C   UNL     1       3.983  28.262  51.896  1.00  0.00     0.183 C 
BRANCH  18  19
HETATM   19  S   UNL     1       5.319  28.811  50.803  1.00  0.00    -0.098 SA
BRANCH  19  20
HETATM   20  C   UNL     1       5.057  27.872  49.365  1.00  0.00     0.134 A 
HETATM   21  N   UNL     1       4.485  26.661  49.340  1.00  0.00    -0.149 NA
HETATM   22  N   UNL     1       4.504  26.393  48.017  1.00  0.00    -0.196 N 
HETATM   23  H   UNL     1       4.119  25.526  47.649  1.00  0.00     0.213 HD
HETATM   24  N   UNL     1       5.053  27.302  47.195  1.00  0.00    -0.167 NA
HETATM   25  C   UNL     1       5.410  28.258  48.062  1.00  0.00     0.180 A 
ENDBRANCH  19  20
ENDBRANCH  18  19
ENDBRANCH  15  18
ENDBRANCH  13  14
ENDBRANCH  12  13
ENDBRANCH   7  12
BRANCH  10  26
HETATM   26  O   UNL     1       7.322  27.390  57.489  1.00  0.00    -0.270 OA
BRANCH  26  27
HETATM   27  C   UNL     1       8.197  28.486  57.255  1.00  0.00     0.447 C 
HETATM   28 CL   UNL     1       8.100  29.615  58.610  1.00  0.00    -0.014 Cl
HETATM   29  F   UNL     1       9.471  28.041  57.123  1.00  0.00    -0.159 F 
HETATM   30  F   UNL     1       7.849  29.118  56.106  1.00  0.00    -0.159 F 
ENDBRANCH  26  27
ENDBRANCH  10  26
TORSDOF 8
ENDMDL
MODEL 5
REMARK VINA RESULT:      -8.2      5.847      9.486
REMARK  8 active torsions:
REMARK  status: ('A' for Active; 'I' for Inactive)
REMARK    1  A    between atoms: C_7  and  C_8 
REMARK    2  A    between atoms: C_8  and  C_9 
REMARK    3  A    between atoms: C_9  and  N_10 
REMARK       I    between atoms: N_10  and  C_11 
REMARK    4  A    between atoms: C_11  and  C_12 
REMARK    5  A    between atoms: C_12  and  S_13 
REMARK    6  A    between atoms: S_13  and  C_14 
REMARK    7  A    between atoms: C_23  and  O_24 
REMARK    8  A    between atoms: O_24  and  C_25 
ROOT
HETATM    1  C   UNL     1       4.161  27.496  53.492  1.00  0.00     0.068 C 
HETATM    2  C   UNL     1       5.165  26.410  53.643  1.00  0.00     0.013 A 
HETATM    3  N   UNL     1       5.979  26.328  54.744  1.00  0.00    -0.359 N 
HETATM    4  H   UNL     1       5.968  26.970  55.524  1.00  0.00     0.166 HD
HETATM    5  C   UNL     1       6.826  25.250  54.638  1.00  0.00     0.043 A 
HETATM    6  C   UNL     1       6.535  24.615  53.435  1.00  0.00     0.002 A 
HETATM    7  C   UNL     1       5.479  25.351  52.805  1.00  0.00    -0.022 A 
HETATM    8  C   UNL     1       7.818  24.792  55.512  1.00  0.00     0.033 A 
HETATM    9  C   UNL     1       8.541  23.651  55.141  1.00  0.00     0.039 A 
HETATM   10  C   UNL     1       8.281  22.990  53.942  1.00  0.00     0.077 A 
HETATM   11  C   UNL     1       7.275  23.467  53.088  1.00  0.00     0.051 A 
ENDROOT
BRANCH   7  12
HETATM   12  C   UNL     1       4.843  25.045  51.483  1.00  0.00     0.061 C 
BRANCH  12  13
HETATM   13  C   UNL     1       5.106  26.147  50.453  1.00  0.00     0.127 C 
BRANCH  13  14
HETATM   14  N   UNL     1       3.923  26.494  49.689  1.00  0.00    -0.360 N 
HETATM   15  C   UNL     1       3.913  26.440  48.311  1.00  0.00     0.227 C 
HETATM   16  O   UNL     1       4.917  26.216  47.639  1.00  0.00    -0.273 OA
HETATM   17  H   UNL     1       3.013  26.392  50.141  1.00  0.00     0.162 HD
BRANCH  15  18
HETATM   18  C   UNL     1       2.556  26.700  47.684  1.00  0.00     0.183 C 
BRANCH  18  19
HETATM   19  S   UNL     1       2.277  28.477  47.472  1.00  0.00    -0.098 SA
BRANCH  19  20
HETATM   20  C   UNL     1       0.825  28.534  46.519  1.00  0.00     0.134 A 
HETATM   21  N   UNL     1       0.284  29.653  46.023  1.00  0.00    -0.149 NA
HETATM   22  N   UNL     1      -0.785  29.155  45.367  1.00  0.00    -0.196 N 
HETATM   23  H   UNL     1      -1.420  29.762  44.853  1.00  0.00     0.213 HD
HETATM   24  N   UNL     1      -0.994  27.829  45.413  1.00  0.00    -0.167 NA
HETATM   25  C   UNL     1       0.043  27.426  46.155  1.00  0.00     0.180 A 
ENDBRANCH  19  20
ENDBRANCH  18  19
ENDBRANCH  15  18
ENDBRANCH  13  14
ENDBRANCH  12  13
ENDBRANCH   7  12
BRANCH  10  26
HETATM   26  O   UNL     1       8.922  21.875  53.476  1.00  0.00    -0.270 OA
BRANCH  26  27
HETATM   27  C   UNL     1       8.329  20.605  53.711  1.00  0.00     0.447 C 
HETATM   28 CL   UNL     1       7.703  20.547  55.362  1.00  0.00    -0.014 Cl
HETATM   29  F   UNL     1       7.317  20.396  52.833  1.00  0.00    -0.159 F 
HETATM   30  F   UNL     1       9.250  19.624  53.536  1.00  0.00    -0.159 F 
ENDBRANCH  26  27
ENDBRANCH  10  26
TORSDOF 8
ENDMDL
MODEL 6
REMARK VINA RESULT:      -8.1      2.580      3.444
REMARK  8 active torsions:
REMARK  status: ('A' for Active; 'I' for Inactive)
REMARK    1  A    between atoms: C_7  and  C_8 
REMARK    2  A    between atoms: C_8  and  C_9 
REMARK    3  A    between atoms: C_9  and  N_10 
REMARK       I    between atoms: N_10  and  C_11 
REMARK    4  A    between atoms: C_11  and  C_12 
REMARK    5  A    between atoms: C_12  and  S_13 
REMARK    6  A    between atoms: S_13  and  C_14 
REMARK    7  A    between atoms: C_23  and  O_24 
REMARK    8  A    between atoms: O_24  and  C_25 
ROOT
HETATM    1  C   UNL     1       4.993  27.851  50.715  1.00  0.00     0.068 C 
HETATM    2  C   UNL     1       5.551  26.791  51.596  1.00  0.00     0.013 A 
HETATM    3  N   UNL     1       6.492  25.901  51.147  1.00  0.00    -0.359 N 
HETATM    4  H   UNL     1       6.880  25.886  50.213  1.00  0.00     0.166 HD
HETATM    5  C   UNL     1       6.834  25.017  52.142  1.00  0.00     0.043 A 
HETATM    6  C   UNL     1       6.094  25.361  53.270  1.00  0.00     0.002 A 
HETATM    7  C   UNL     1       5.282  26.490  52.922  1.00  0.00    -0.022 A 
HETATM    8  C   UNL     1       7.736  23.948  52.130  1.00  0.00     0.033 A 
HETATM    9  C   UNL     1       7.883  23.201  53.306  1.00  0.00     0.039 A 
HETATM   10  C   UNL     1       7.158  23.513  54.455  1.00  0.00     0.077 A 
HETATM   11  C   UNL     1       6.265  24.597  54.441  1.00  0.00     0.051 A 
ENDROOT
BRANCH   7  12
HETATM   12  C   UNL     1       4.313  27.201  53.817  1.00  0.00     0.061 C 
BRANCH  12  13
HETATM   13  C   UNL     1       4.935  28.443  54.460  1.00  0.00     0.127 C 
BRANCH  13  14
HETATM   14  N   UNL     1       5.572  28.156  55.733  1.00  0.00    -0.360 N 
HETATM   15  C   UNL     1       6.940  28.014  55.837  1.00  0.00     0.227 C 
HETATM   16  O   UNL     1       7.691  27.999  54.866  1.00  0.00    -0.273 OA
HETATM   17  H   UNL     1       5.092  28.447  56.585  1.00  0.00     0.162 HD
BRANCH  15  18
HETATM   18  C   UNL     1       7.445  27.857  57.260  1.00  0.00     0.183 C 
BRANCH  18  19
HETATM   19  S   UNL     1       7.586  29.470  58.071  1.00  0.00    -0.098 SA
BRANCH  19  20
HETATM   20  C   UNL     1       9.234  29.922  57.755  1.00  0.00     0.134 A 
HETATM   21  N   UNL     1       9.827  31.023  58.236  1.00  0.00    -0.149 NA
HETATM   22  N   UNL     1      11.068  30.892  57.723  1.00  0.00    -0.196 N 
HETATM   23  H   UNL     1      11.794  31.580  57.916  1.00  0.00     0.213 HD
HETATM   24  N   UNL     1      11.323  29.829  56.943  1.00  0.00    -0.167 NA
HETATM   25  C   UNL     1      10.141  29.201  56.963  1.00  0.00     0.180 A 
ENDBRANCH  19  20
ENDBRANCH  18  19
ENDBRANCH  15  18
ENDBRANCH  13  14
ENDBRANCH  12  13
ENDBRANCH   7  12
BRANCH  10  26
HETATM   26  O   UNL     1       7.215  22.857  55.654  1.00  0.00    -0.270 OA
BRANCH  26  27
HETATM   27  C   UNL     1       8.478  22.727  56.294  1.00  0.00     0.447 C 
HETATM   28 CL   UNL     1       9.051  21.065  56.128  1.00  0.00    -0.014 Cl
HETATM   29  F   UNL     1       9.373  23.576  55.732  1.00  0.00    -0.159 F 
HETATM   30  F   UNL     1       8.365  23.043  57.609  1.00  0.00    -0.159 F 
ENDBRANCH  26  27
ENDBRANCH  10  26
TORSDOF 8
ENDMDL
MODEL 7
REMARK VINA RESULT:      -8.0      1.946      2.367
REMARK  8 active torsions:
REMARK  status: ('A' for Active; 'I' for Inactive)
REMARK    1  A    between atoms: C_7  and  C_8 
REMARK    2  A    between atoms: C_8  and  C_9 
REMARK    3  A    between atoms: C_9  and  N_10 
REMARK       I    between atoms: N_10  and  C_11 
REMARK    4  A    between atoms: C_11  and  C_12 
REMARK    5  A    between atoms: C_12  and  S_13 
REMARK    6  A    between atoms: S_13  and  C_14 
REMARK    7  A    between atoms: C_23  and  O_24 
REMARK    8  A    between atoms: O_24  and  C_25 
ROOT
HETATM    1  C   UNL     1       4.348  28.577  56.080  1.00  0.00     0.068 C 
HETATM    2  C   UNL     1       5.173  27.423  55.635  1.00  0.00     0.013 A 
HETATM    3  N   UNL     1       4.893  26.737  54.482  1.00  0.00    -0.359 N 
HETATM    4  H   UNL     1       4.131  26.947  53.851  1.00  0.00     0.166 HD
HETATM    5  C   UNL     1       5.788  25.710  54.301  1.00  0.00     0.043 A 
HETATM    6  C   UNL     1       6.678  25.748  55.370  1.00  0.00     0.002 A 
HETATM    7  C   UNL     1       6.288  26.837  56.215  1.00  0.00    -0.022 A 
HETATM    8  C   UNL     1       5.876  24.758  53.279  1.00  0.00     0.033 A 
HETATM    9  C   UNL     1       6.905  23.810  53.354  1.00  0.00     0.039 A 
HETATM   10  C   UNL     1       7.815  23.814  54.410  1.00  0.00     0.077 A 
HETATM   11  C   UNL     1       7.707  24.785  55.418  1.00  0.00     0.051 A 
ENDROOT
BRANCH   7  12
HETATM   12  C   UNL     1       6.951  27.257  57.492  1.00  0.00     0.061 C 
BRANCH  12  13
HETATM   13  C   UNL     1       7.658  28.607  57.353  1.00  0.00     0.127 C 
BRANCH  13  14
HETATM   14  N   UNL     1       7.083  29.632  58.204  1.00  0.00    -0.360 N 
HETATM   15  C   UNL     1       7.875  30.455  58.977  1.00  0.00     0.227 C 
HETATM   16  O   UNL     1       9.089  30.306  59.092  1.00  0.00    -0.273 OA
HETATM   17  H   UNL     1       6.171  30.012  57.948  1.00  0.00     0.162 HD
BRANCH  15  18
HETATM   18  C   UNL     1       7.119  31.558  59.694  1.00  0.00     0.183 C 
BRANCH  18  19
HETATM   19  S   UNL     1       7.608  31.643  61.436  1.00  0.00    -0.098 SA
BRANCH  19  20
HETATM   20  C   UNL     1       6.135  32.106  62.232  1.00  0.00     0.134 A 
HETATM   21  N   UNL     1       4.932  32.149  61.643  1.00  0.00    -0.149 NA
HETATM   22  N   UNL     1       4.153  32.537  62.675  1.00  0.00    -0.196 N 
HETATM   23  H   UNL     1       3.149  32.657  62.562  1.00  0.00     0.213 HD
HETATM   24  N   UNL     1       4.741  32.769  63.860  1.00  0.00    -0.167 NA
HETATM   25  C   UNL     1       6.019  32.491  63.577  1.00  0.00     0.180 A 
ENDBRANCH  19  20
ENDBRANCH  18  19
ENDBRANCH  15  18
ENDBRANCH  13  14
ENDBRANCH  12  13
ENDBRANCH   7  12
BRANCH  10  26
HETATM   26  O   UNL     1       8.852  22.940  54.590  1.00  0.00    -0.270 OA
BRANCH  26  27
HETATM   27  C   UNL     1       8.551  21.586  54.896  1.00  0.00     0.447 C 
HETATM   28 CL   UNL     1       8.399  20.665  53.396  1.00  0.00    -0.014 Cl
HETATM   29  F   UNL     1       9.537  21.053  55.660  1.00  0.00    -0.159 F 
HETATM   30  F   UNL     1       7.390  21.516  55.595  1.00  0.00    -0.159 F 
ENDBRANCH  26  27
ENDBRANCH  10  26
TORSDOF 8
ENDMDL
MODEL 8
REMARK VINA RESULT:      -7.8      3.252      4.195
REMARK  8 active torsions:
REMARK  status: ('A' for Active; 'I' for Inactive)
REMARK    1  A    between atoms: C_7  and  C_8 
REMARK    2  A    between atoms: C_8  and  C_9 
REMARK    3  A    between atoms: C_9  and  N_10 
REMARK       I    between atoms: N_10  and  C_11 
REMARK    4  A    between atoms: C_11  and  C_12 
REMARK    5  A    between atoms: C_12  and  S_13 
REMARK    6  A    between atoms: S_13  and  C_14 
REMARK    7  A    between atoms: C_23  and  O_24 
REMARK    8  A    between atoms: O_24  and  C_25 
ROOT
HETATM    1  C   UNL     1       8.599  21.446  58.180  1.00  0.00     0.068 C 
HETATM    2  C   UNL     1       8.355  22.122  56.879  1.00  0.00     0.013 A 
HETATM    3  N   UNL     1       8.081  21.413  55.737  1.00  0.00    -0.359 N 
HETATM    4  H   UNL     1       8.019  20.406  55.679  1.00  0.00     0.166 HD
HETATM    5  C   UNL     1       7.910  22.264  54.671  1.00  0.00     0.043 A 
HETATM    6  C   UNL     1       8.068  23.561  55.150  1.00  0.00     0.002 A 
HETATM    7  C   UNL     1       8.348  23.469  56.552  1.00  0.00    -0.022 A 
HETATM    8  C   UNL     1       7.628  21.984  53.330  1.00  0.00     0.033 A 
HETATM    9  C   UNL     1       7.509  23.065  52.446  1.00  0.00     0.039 A 
HETATM   10  C   UNL     1       7.664  24.378  52.887  1.00  0.00     0.077 A 
HETATM   11  C   UNL     1       7.939  24.630  54.241  1.00  0.00     0.051 A 
ENDROOT
BRANCH   7  12
HETATM   12  C   UNL     1       8.602  24.613  57.488  1.00  0.00     0.061 C 
BRANCH  12  13
HETATM   13  C   UNL     1       7.451  25.621  57.482  1.00  0.00     0.127 C 
BRANCH  13  14
HETATM   14  N   UNL     1       7.871  26.950  57.076  1.00  0.00    -0.360 N 
HETATM   15  C   UNL     1       7.129  27.699  56.187  1.00  0.00     0.227 C 
HETATM   16  O   UNL     1       6.146  27.262  55.594  1.00  0.00    -0.273 OA
HETATM   17  H   UNL     1       8.463  27.482  57.715  1.00  0.00     0.162 HD
BRANCH  15  18
HETATM   18  C   UNL     1       7.640  29.114  55.984  1.00  0.00     0.183 C 
BRANCH  18  19
HETATM   19  S   UNL     1       9.347  29.269  56.568  1.00  0.00    -0.098 SA
BRANCH  19  20
HETATM   20  C   UNL     1       9.164  30.073  58.097  1.00  0.00     0.134 A 
HETATM   21  N   UNL     1       8.387  29.638  59.097  1.00  0.00    -0.149 NA
HETATM   22  N   UNL     1       8.613  30.585  60.032  1.00  0.00    -0.196 N 
HETATM   23  H   UNL     1       8.168  30.542  60.946  1.00  0.00     0.213 HD
HETATM   24  N   UNL     1       9.441  31.596  59.721  1.00  0.00    -0.167 NA
HETATM   25  C   UNL     1       9.798  31.268  58.474  1.00  0.00     0.180 A 
ENDBRANCH  19  20
ENDBRANCH  18  19
ENDBRANCH  15  18
ENDBRANCH  13  14
ENDBRANCH  12  13
ENDBRANCH   7  12
BRANCH  10  26
HETATM   26  O   UNL     1       7.574  25.507  52.120  1.00  0.00    -0.270 OA
BRANCH  26  27
HETATM   27  C   UNL     1       6.295  26.097  51.931  1.00  0.00     0.447 C 
HETATM   28 CL   UNL     1       5.098  25.224  52.893  1.00  0.00    -0.014 Cl
HETATM   29  F   UNL     1       6.324  27.399  52.311  1.00  0.00    -0.159 F 
HETATM   30  F   UNL     1       5.952  26.048  50.619  1.00  0.00    -0.159 F 
ENDBRANCH  26  27
ENDBRANCH  10  26
TORSDOF 8
ENDMDL
MODEL 9
REMARK VINA RESULT:      -7.5      5.703      8.159
REMARK  8 active torsions:
REMARK  status: ('A' for Active; 'I' for Inactive)
REMARK    1  A    between atoms: C_7  and  C_8 
REMARK    2  A    between atoms: C_8  and  C_9 
REMARK    3  A    between atoms: C_9  and  N_10 
REMARK       I    between atoms: N_10  and  C_11 
REMARK    4  A    between atoms: C_11  and  C_12 
REMARK    5  A    between atoms: C_12  and  S_13 
REMARK    6  A    between atoms: S_13  and  C_14 
REMARK    7  A    between atoms: C_23  and  O_24 
REMARK    8  A    between atoms: O_24  and  C_25 
ROOT
HETATM    1  C   UNL     1       8.579  21.072  53.194  1.00  0.00     0.068 C 
HETATM    2  C   UNL     1       8.402  22.266  54.062  1.00  0.00     0.013 A 
HETATM    3  N   UNL     1       8.743  22.250  55.390  1.00  0.00    -0.359 N 
HETATM    4  H   UNL     1       9.135  21.457  55.880  1.00  0.00     0.166 HD
HETATM    5  C   UNL     1       8.470  23.465  55.973  1.00  0.00     0.043 A 
HETATM    6  C   UNL     1       7.948  24.288  54.981  1.00  0.00     0.002 A 
HETATM    7  C   UNL     1       7.907  23.527  53.767  1.00  0.00    -0.022 A 
HETATM    8  C   UNL     1       8.647  23.892  57.293  1.00  0.00     0.033 A 
HETATM    9  C   UNL     1       8.272  25.204  57.612  1.00  0.00     0.039 A 
HETATM   10  C   UNL     1       7.742  26.058  56.647  1.00  0.00     0.077 A 
HETATM   11  C   UNL     1       7.583  25.605  55.328  1.00  0.00     0.051 A 
ENDROOT
BRANCH   7  12
HETATM   12  C   UNL     1       7.410  23.999  52.434  1.00  0.00     0.061 C 
BRANCH  12  13
HETATM   13  C   UNL     1       6.026  24.644  52.537  1.00  0.00     0.127 C 
BRANCH  13  14
HETATM   14  N   UNL     1       6.031  26.045  52.156  1.00  0.00    -0.360 N 
HETATM   15  C   UNL     1       5.337  26.494  51.052  1.00  0.00     0.227 C 
HETATM   16  O   UNL     1       4.776  25.742  50.258  1.00  0.00    -0.273 OA
HETATM   17  H   UNL     1       6.195  26.739  52.886  1.00  0.00     0.162 HD
BRANCH  15  18
HETATM   18  C   UNL     1       5.337  28.002  50.884  1.00  0.00     0.183 C 
BRANCH  18  19
HETATM   19  S   UNL     1       5.355  28.452  49.130  1.00  0.00    -0.098 SA
BRANCH  19  20
HETATM   20  C   UNL     1       5.501  30.183  49.173  1.00  0.00     0.134 A 
HETATM   21  N   UNL     1       6.408  30.852  49.896  1.00  0.00    -0.149 NA
HETATM   22  N   UNL     1       6.112  32.127  49.566  1.00  0.00    -0.196 N 
HETATM   23  H   UNL     1       6.642  32.908  49.947  1.00  0.00     0.213 HD
HETATM   24  N   UNL     1       5.089  32.341  48.721  1.00  0.00    -0.167 NA
HETATM   25  C   UNL     1       4.694  31.089  48.466  1.00  0.00     0.180 A 
ENDBRANCH  19  20
ENDBRANCH  18  19
ENDBRANCH  15  18
ENDBRANCH  13  14
ENDBRANCH  12  13
ENDBRANCH   7  12
BRANCH  10  26
HETATM   26  O   UNL     1       7.339  27.351  56.842  1.00  0.00    -0.270 OA
BRANCH  26  27
HETATM   27  C   UNL     1       8.265  28.396  56.576  1.00  0.00     0.447 C 
HETATM   28 CL   UNL     1       7.727  29.874  57.380  1.00  0.00    -0.014 Cl
HETATM   29  F   UNL     1       9.496  28.052  57.030  1.00  0.00    -0.159 F 
HETATM   30  F   UNL     1       8.353  28.608  55.239  1.00  0.00    -0.159 F 
ENDBRANCH  26  27
ENDBRANCH  10  26
TORSDOF 8
ENDMDL
MODEL 10
REMARK VINA RESULT:      -7.4      7.072     11.050
REMARK  8 active torsions:
REMARK  status: ('A' for Active; 'I' for Inactive)
REMARK    1  A    between atoms: C_7  and  C_8 
REMARK    2  A    between atoms: C_8  and  C_9 
REMARK    3  A    between atoms: C_9  and  N_10 
REMARK       I    between atoms: N_10  and  C_11 
REMARK    4  A    between atoms: C_11  and  C_12 
REMARK    5  A    between atoms: C_12  and  S_13 
REMARK    6  A    between atoms: S_13  and  C_14 
REMARK    7  A    between atoms: C_23  and  O_24 
REMARK    8  A    between atoms: O_24  and  C_25 
ROOT
HETATM    1  C   UNL     1       8.250  30.642  59.244  1.00  0.00     0.068 C 
HETATM    2  C   UNL     1       7.763  31.492  60.362  1.00  0.00     0.013 A 
HETATM    3  N   UNL     1       8.372  31.487  61.591  1.00  0.00    -0.359 N 
HETATM    4  H   UNL     1       9.178  30.930  61.838  1.00  0.00     0.166 HD
HETATM    5  C   UNL     1       7.727  32.343  62.452  1.00  0.00     0.043 A 
HETATM    6  C   UNL     1       6.677  32.922  61.747  1.00  0.00     0.002 A 
HETATM    7  C   UNL     1       6.702  32.383  60.419  1.00  0.00    -0.022 A 
HETATM    8  C   UNL     1       7.993  32.645  63.792  1.00  0.00     0.033 A 
HETATM    9  C   UNL     1       7.155  33.566  64.434  1.00  0.00     0.039 A 
HETATM   10  C   UNL     1       6.092  34.165  63.762  1.00  0.00     0.077 A 
HETATM   11  C   UNL     1       5.852  33.849  62.416  1.00  0.00     0.051 A 
ENDROOT
BRANCH   7  12
HETATM   12  C   UNL     1       5.753  32.709  59.306  1.00  0.00     0.061 C 
BRANCH  12  13
HETATM   13  C   UNL     1       4.509  31.818  59.337  1.00  0.00     0.127 C 
BRANCH  13  14
HETATM   14  N   UNL     1       4.676  30.593  58.577  1.00  0.00    -0.360 N 
HETATM   15  C   UNL     1       4.164  30.459  57.304  1.00  0.00     0.227 C 
HETATM   16  O   UNL     1       3.441  31.301  56.777  1.00  0.00    -0.273 OA
HETATM   17  H   UNL     1       5.479  30.000  58.794  1.00  0.00     0.162 HD
BRANCH  15  18
HETATM   18  C   UNL     1       4.552  29.169  56.606  1.00  0.00     0.183 C 
BRANCH  18  19
HETATM   19  S   UNL     1       6.353  29.033  56.464  1.00  0.00    -0.098 SA
BRANCH  19  20
HETATM   20  C   UNL     1       6.669  27.424  57.037  1.00  0.00     0.134 A 
HETATM   21  N   UNL     1       7.654  27.097  57.885  1.00  0.00    -0.149 NA
HETATM   22  N   UNL     1       7.452  25.769  58.015  1.00  0.00    -0.196 N 
HETATM   23  H   UNL     1       8.042  25.203  58.621  1.00  0.00     0.213 HD
HETATM   24  N   UNL     1       6.450  25.209  57.318  1.00  0.00    -0.167 NA
HETATM   25  C   UNL     1       5.943  26.274  56.686  1.00  0.00     0.180 A 
ENDBRANCH  19  20
ENDBRANCH  18  19
ENDBRANCH  15  18
ENDBRANCH  13  14
ENDBRANCH  12  13
ENDBRANCH   7  12
BRANCH  10  26
HETATM   26  O   UNL     1       5.209  35.071  64.285  1.00  0.00    -0.270 OA
BRANCH  26  27
HETATM   27  C   UNL     1       4.103  34.585  65.033  1.00  0.00     0.447 C 
HETATM   28 CL   UNL     1       3.659  35.774  66.262  1.00  0.00    -0.014 Cl
HETATM   29  F   UNL     1       3.048  34.364  64.210  1.00  0.00    -0.159 F 
HETATM   30  F   UNL     1       4.427  33.410  65.629  1.00  0.00    -0.159 F 
ENDBRANCH  26  27
ENDBRANCH  10  26
TORSDOF 8
ENDMDL
