MODEL 1
REMARK VINA RESULT:     -10.5      0.000      0.000
REMARK  4 active torsions:
REMARK  status: ('A' for Active; 'I' for Inactive)
REMARK    1  A    between atoms: C_8  and  C_9 
REMARK    2  A    between atoms: C_9  and  C_10 
REMARK    3  A    between atoms: C_18  and  C_19 
REMARK    4  A    between atoms: C_28  and  N_29 
ROOT
HETATM    1  C   UNL     1       5.954  25.463  55.009  1.00  0.00     0.030 A 
HETATM    2  C   UNL     1       6.719  24.299  54.759  1.00  0.00     0.007 A 
HETATM    3  C   UNL     1       6.954  23.992  53.406  1.00  0.00     0.068 A 
HETATM    4  C   UNL     1       7.690  22.857  53.088  1.00  0.00     0.032 A 
HETATM    5  C   UNL     1       8.211  22.013  54.069  1.00  0.00     0.002 A 
HETATM    6  C   UNL     1       7.999  22.307  55.407  1.00  0.00     0.001 A 
HETATM    7  C   UNL     1       7.263  23.440  55.751  1.00  0.00     0.015 A 
HETATM    8  N   UNL     1       6.504  24.749  52.393  1.00  0.00    -0.248 NA
HETATM    9  C   UNL     1       5.789  25.869  52.653  1.00  0.00     0.068 A 
HETATM   10  C   UNL     1       5.466  26.236  53.950  1.00  0.00     0.049 A 
ENDROOT
BRANCH   1  11
HETATM   11  C   UNL     1       5.593  25.862  56.395  1.00  0.00     0.202 C 
HETATM   12  O   UNL     1       4.851  25.129  57.049  1.00  0.00    -0.286 OA
BRANCH  11  13
HETATM   13  C   UNL     1       6.089  27.165  56.953  1.00  0.00     0.121 C 
HETATM   14  C   UNL     1       7.451  27.293  57.521  1.00  0.00     0.266 C 
HETATM   15  N   UNL     1       7.853  28.543  57.867  1.00  0.00    -0.274 N 
HETATM   16  O   UNL     1       8.190  26.330  57.690  1.00  0.00    -0.267 OA
HETATM   17  C   UNL     1       7.038  29.625  57.974  1.00  0.00     0.330 C 
HETATM   18  H   UNL     1       8.773  28.640  58.269  1.00  0.00     0.173 HD
HETATM   19  N   UNL     1       5.738  29.451  57.521  1.00  0.00    -0.293 N 
HETATM   20  O   UNL     1       7.479  30.663  58.462  1.00  0.00    -0.246 OA
HETATM   21  C   UNL     1       4.857  30.615  57.572  1.00  0.00     0.162 C 
HETATM   22  C   UNL     1       5.264  28.243  57.002  1.00  0.00     0.103 C 
BRANCH  22  23
HETATM   23  N   UNL     1       3.953  28.191  56.534  1.00  0.00    -0.287 NA
HETATM   24  H   UNL     1       3.660  29.080  56.104  1.00  0.00     0.125 HD
HETATM   25  H   UNL     1       3.812  27.441  55.864  1.00  0.00     0.125 HD
ENDBRANCH  22  23
ENDBRANCH  11  13
ENDBRANCH   1  11
BRANCH   9  26
HETATM   26  C   UNL     1       5.394  26.659  51.470  1.00  0.00    -0.007 A 
HETATM   27  C   UNL     1       4.948  26.021  50.296  1.00  0.00     0.015 A 
HETATM   28  C   UNL     1       4.590  26.752  49.158  1.00  0.00     0.024 A 
HETATM   29  C   UNL     1       4.681  28.140  49.173  1.00  0.00     0.034 A 
HETATM   30 CL   UNL     1       4.252  29.043  47.774  1.00  0.00    -0.084 Cl
HETATM   31  C   UNL     1       5.126  28.800  50.314  1.00  0.00     0.024 A 
HETATM   32  C   UNL     1       5.481  28.064  51.452  1.00  0.00     0.015 A 
ENDBRANCH   9  26
TORSDOF 4
ENDMDL
MODEL 2
REMARK VINA RESULT:      -9.7      0.986      1.994
REMARK  4 active torsions:
REMARK  status: ('A' for Active; 'I' for Inactive)
REMARK    1  A    between atoms: C_8  and  C_9 
REMARK    2  A    between atoms: C_9  and  C_10 
REMARK    3  A    between atoms: C_18  and  C_19 
REMARK    4  A    between atoms: C_28  and  N_29 
ROOT
HETATM    1  C   UNL     1       5.902  25.658  55.087  1.00  0.00     0.030 A 
HETATM    2  C   UNL     1       6.742  24.545  54.839  1.00  0.00     0.007 A 
HETATM    3  C   UNL     1       6.913  24.188  53.488  1.00  0.00     0.068 A 
HETATM    4  C   UNL     1       7.715  23.099  53.173  1.00  0.00     0.032 A 
HETATM    5  C   UNL     1       8.365  22.349  54.154  1.00  0.00     0.002 A 
HETATM    6  C   UNL     1       8.217  22.694  55.488  1.00  0.00     0.001 A 
HETATM    7  C   UNL     1       7.416  23.783  55.830  1.00  0.00     0.015 A 
HETATM    8  N   UNL     1       6.338  24.856  52.475  1.00  0.00    -0.248 NA
HETATM    9  C   UNL     1       5.553  25.928  52.732  1.00  0.00     0.068 A 
HETATM   10  C   UNL     1       5.287  26.336  54.029  1.00  0.00     0.049 A 
ENDROOT
BRANCH   1  11
HETATM   11  C   UNL     1       5.602  26.099  56.474  1.00  0.00     0.202 C 
HETATM   12  O   UNL     1       5.092  25.294  57.255  1.00  0.00    -0.286 OA
BRANCH  11  13
HETATM   13  C   UNL     1       5.869  27.518  56.885  1.00  0.00     0.121 C 
HETATM   14  C   UNL     1       4.869  28.588  56.661  1.00  0.00     0.266 C 
HETATM   15  N   UNL     1       5.147  29.804  57.195  1.00  0.00    -0.274 N 
HETATM   16  O   UNL     1       3.842  28.408  56.017  1.00  0.00    -0.267 OA
HETATM   17  C   UNL     1       6.356  30.185  57.687  1.00  0.00     0.330 C 
HETATM   18  H   UNL     1       4.481  30.545  57.036  1.00  0.00     0.173 HD
HETATM   19  N   UNL     1       7.308  29.181  57.799  1.00  0.00    -0.293 N 
HETATM   20  O   UNL     1       6.539  31.363  57.985  1.00  0.00    -0.246 OA
HETATM   21  C   UNL     1       8.597  29.552  58.377  1.00  0.00     0.162 C 
HETATM   22  C   UNL     1       7.071  27.857  57.418  1.00  0.00     0.103 C 
BRANCH  22  23
HETATM   23  N   UNL     1       8.082  26.920  57.615  1.00  0.00    -0.287 NA
HETATM   24  H   UNL     1       8.230  26.714  58.614  1.00  0.00     0.125 HD
HETATM   25  H   UNL     1       7.902  26.049  57.125  1.00  0.00     0.125 HD
ENDBRANCH  22  23
ENDBRANCH  11  13
ENDBRANCH   1  11
BRANCH   9  26
HETATM   26  C   UNL     1       5.020  26.624  51.543  1.00  0.00    -0.007 A 
HETATM   27  C   UNL     1       4.517  27.936  51.645  1.00  0.00     0.015 A 
HETATM   28  C   UNL     1       3.988  28.603  50.535  1.00  0.00     0.024 A 
HETATM   29  C   UNL     1       3.947  27.964  49.300  1.00  0.00     0.034 A 
HETATM   30 CL   UNL     1       3.290  28.776  47.935  1.00  0.00    -0.084 Cl
HETATM   31  C   UNL     1       4.429  26.665  49.169  1.00  0.00     0.024 A 
HETATM   32  C   UNL     1       4.960  26.002  50.282  1.00  0.00     0.015 A 
ENDBRANCH   9  26
TORSDOF 4
ENDMDL
MODEL 3
REMARK VINA RESULT:      -9.6      4.228      7.821
REMARK  4 active torsions:
REMARK  status: ('A' for Active; 'I' for Inactive)
REMARK    1  A    between atoms: C_8  and  C_9 
REMARK    2  A    between atoms: C_9  and  C_10 
REMARK    3  A    between atoms: C_18  and  C_19 
REMARK    4  A    between atoms: C_28  and  N_29 
ROOT
HETATM    1  C   UNL     1       5.260  27.940  52.366  1.00  0.00     0.030 A 
HETATM    2  C   UNL     1       4.845  28.582  53.558  1.00  0.00     0.007 A 
HETATM    3  C   UNL     1       5.044  27.860  54.750  1.00  0.00     0.068 A 
HETATM    4  C   UNL     1       4.651  28.426  55.956  1.00  0.00     0.032 A 
HETATM    5  C   UNL     1       4.069  29.692  56.026  1.00  0.00     0.002 A 
HETATM    6  C   UNL     1       3.877  30.421  54.863  1.00  0.00     0.001 A 
HETATM    7  C   UNL     1       4.263  29.875  53.640  1.00  0.00     0.015 A 
HETATM    8  N   UNL     1       5.606  26.641  54.785  1.00  0.00    -0.248 NA
HETATM    9  C   UNL     1       6.012  26.052  53.636  1.00  0.00     0.068 A 
HETATM   10  C   UNL     1       5.822  26.659  52.405  1.00  0.00     0.049 A 
ENDROOT
BRANCH   1  11
HETATM   11  C   UNL     1       5.054  28.577  51.039  1.00  0.00     0.202 C 
HETATM   12  O   UNL     1       5.820  29.475  50.687  1.00  0.00    -0.286 OA
BRANCH  11  13
HETATM   13  C   UNL     1       3.896  28.161  50.179  1.00  0.00     0.121 C 
HETATM   14  C   UNL     1       2.536  28.707  50.399  1.00  0.00     0.266 C 
HETATM   15  N   UNL     1       1.591  28.379  49.481  1.00  0.00    -0.274 N 
HETATM   16  O   UNL     1       2.254  29.413  51.361  1.00  0.00    -0.267 OA
HETATM   17  C   UNL     1       1.719  27.405  48.541  1.00  0.00     0.330 C 
HETATM   18  H   UNL     1       0.658  28.732  49.628  1.00  0.00     0.173 HD
HETATM   19  N   UNL     1       2.981  26.842  48.420  1.00  0.00    -0.293 N 
HETATM   20  O   UNL     1       0.737  27.078  47.879  1.00  0.00    -0.246 OA
HETATM   21  C   UNL     1       3.160  25.834  47.378  1.00  0.00     0.162 C 
HETATM   22  C   UNL     1       4.067  27.220  49.216  1.00  0.00     0.103 C 
BRANCH  22  23
HETATM   23  N   UNL     1       5.301  26.621  48.980  1.00  0.00    -0.287 NA
HETATM   24  H   UNL     1       5.796  27.054  48.186  1.00  0.00     0.125 HD
HETATM   25  H   UNL     1       5.906  26.648  49.796  1.00  0.00     0.125 HD
ENDBRANCH  22  23
ENDBRANCH  11  13
ENDBRANCH   1  11
BRANCH   9  26
HETATM   26  C   UNL     1       6.669  24.739  53.794  1.00  0.00    -0.007 A 
HETATM   27  C   UNL     1       6.762  24.130  55.060  1.00  0.00     0.015 A 
HETATM   28  C   UNL     1       7.401  22.897  55.233  1.00  0.00     0.024 A 
HETATM   29  C   UNL     1       7.966  22.254  54.138  1.00  0.00     0.034 A 
HETATM   30 CL   UNL     1       8.760  20.743  54.345  1.00  0.00    -0.084 Cl
HETATM   31  C   UNL     1       7.899  22.833  52.874  1.00  0.00     0.024 A 
HETATM   32  C   UNL     1       7.257  24.066  52.706  1.00  0.00     0.015 A 
ENDBRANCH   9  26
TORSDOF 4
ENDMDL
MODEL 4
REMARK VINA RESULT:      -9.2      3.796      6.878
REMARK  4 active torsions:
REMARK  status: ('A' for Active; 'I' for Inactive)
REMARK    1  A    between atoms: C_8  and  C_9 
REMARK    2  A    between atoms: C_9  and  C_10 
REMARK    3  A    between atoms: C_18  and  C_19 
REMARK    4  A    between atoms: C_28  and  N_29 
ROOT
HETATM    1  C   UNL     1       5.638  27.089  54.093  1.00  0.00     0.030 A 
HETATM    2  C   UNL     1       6.198  27.869  55.134  1.00  0.00     0.007 A 
HETATM    3  C   UNL     1       7.128  27.215  55.964  1.00  0.00     0.068 A 
HETATM    4  C   UNL     1       7.708  27.918  57.013  1.00  0.00     0.032 A 
HETATM    5  C   UNL     1       7.405  29.256  57.265  1.00  0.00     0.002 A 
HETATM    6  C   UNL     1       6.502  29.918  56.450  1.00  0.00     0.001 A 
HETATM    7  C   UNL     1       5.905  29.234  55.392  1.00  0.00     0.015 A 
HETATM    8  N   UNL     1       7.491  25.934  55.793  1.00  0.00    -0.248 NA
HETATM    9  C   UNL     1       6.957  25.211  54.781  1.00  0.00     0.068 A 
HETATM   10  C   UNL     1       6.001  25.748  53.933  1.00  0.00     0.049 A 
ENDROOT
BRANCH   1  11
HETATM   11  C   UNL     1       4.606  27.651  53.183  1.00  0.00     0.202 C 
HETATM   12  O   UNL     1       3.477  27.868  53.628  1.00  0.00    -0.286 OA
BRANCH  11  13
HETATM   13  C   UNL     1       4.932  27.893  51.738  1.00  0.00     0.121 C 
HETATM   14  C   UNL     1       5.014  26.777  50.767  1.00  0.00     0.266 C 
HETATM   15  N   UNL     1       5.173  27.114  49.462  1.00  0.00    -0.274 N 
HETATM   16  O   UNL     1       4.956  25.600  51.107  1.00  0.00    -0.267 OA
HETATM   17  C   UNL     1       5.513  28.349  49.009  1.00  0.00     0.330 C 
HETATM   18  H   UNL     1       5.246  26.361  48.794  1.00  0.00     0.173 HD
HETATM   19  N   UNL     1       5.521  29.361  49.958  1.00  0.00    -0.293 N 
HETATM   20  O   UNL     1       5.799  28.495  47.822  1.00  0.00    -0.246 OA
HETATM   21  C   UNL     1       5.828  30.709  49.486  1.00  0.00     0.162 C 
HETATM   22  C   UNL     1       5.221  29.148  51.306  1.00  0.00     0.103 C 
BRANCH  22  23
HETATM   23  N   UNL     1       5.215  30.244  52.165  1.00  0.00    -0.287 NA
HETATM   24  H   UNL     1       4.678  30.058  53.026  1.00  0.00     0.125 HD
HETATM   25  H   UNL     1       6.152  30.538  52.423  1.00  0.00     0.125 HD
ENDBRANCH  22  23
ENDBRANCH  11  13
ENDBRANCH   1  11
BRANCH   9  26
HETATM   26  C   UNL     1       7.470  23.832  54.647  1.00  0.00    -0.007 A 
HETATM   27  C   UNL     1       7.788  23.304  53.381  1.00  0.00     0.015 A 
HETATM   28  C   UNL     1       8.255  21.994  53.232  1.00  0.00     0.024 A 
HETATM   29  C   UNL     1       8.403  21.183  54.351  1.00  0.00     0.034 A 
HETATM   30 CL   UNL     1       8.967  19.569  54.173  1.00  0.00    -0.084 Cl
HETATM   31  C   UNL     1       8.089  21.672  55.616  1.00  0.00     0.024 A 
HETATM   32  C   UNL     1       7.625  22.985  55.761  1.00  0.00     0.015 A 
ENDBRANCH   9  26
TORSDOF 4
ENDMDL
MODEL 5
REMARK VINA RESULT:      -9.2      3.520      6.123
REMARK  4 active torsions:
REMARK  status: ('A' for Active; 'I' for Inactive)
REMARK    1  A    between atoms: C_8  and  C_9 
REMARK    2  A    between atoms: C_9  and  C_10 
REMARK    3  A    between atoms: C_18  and  C_19 
REMARK    4  A    between atoms: C_28  and  N_29 
ROOT
HETATM    1  C   UNL     1       5.624  27.966  55.595  1.00  0.00     0.030 A 
HETATM    2  C   UNL     1       6.655  28.538  56.379  1.00  0.00     0.007 A 
HETATM    3  C   UNL     1       7.812  27.754  56.547  1.00  0.00     0.068 A 
HETATM    4  C   UNL     1       8.859  28.249  57.313  1.00  0.00     0.032 A 
HETATM    5  C   UNL     1       8.804  29.505  57.918  1.00  0.00     0.002 A 
HETATM    6  C   UNL     1       7.678  30.295  57.754  1.00  0.00     0.001 A 
HETATM    7  C   UNL     1       6.613  29.820  56.989  1.00  0.00     0.015 A 
HETATM    8  N   UNL     1       7.961  26.539  55.995  1.00  0.00    -0.248 NA
HETATM    9  C   UNL     1       6.970  26.017  55.234  1.00  0.00     0.068 A 
HETATM   10  C   UNL     1       5.774  26.690  55.042  1.00  0.00     0.049 A 
ENDROOT
BRANCH   1  11
HETATM   11  C   UNL     1       4.333  28.674  55.390  1.00  0.00     0.202 C 
HETATM   12  O   UNL     1       3.449  28.552  56.239  1.00  0.00    -0.286 OA
BRANCH  11  13
HETATM   13  C   UNL     1       4.107  29.473  54.140  1.00  0.00     0.121 C 
HETATM   14  C   UNL     1       4.403  30.924  54.087  1.00  0.00     0.266 C 
HETATM   15  N   UNL     1       4.301  31.523  52.873  1.00  0.00    -0.274 N 
HETATM   16  O   UNL     1       4.715  31.571  55.079  1.00  0.00    -0.267 OA
HETATM   17  C   UNL     1       3.713  30.975  51.777  1.00  0.00     0.330 C 
HETATM   18  H   UNL     1       4.485  32.514  52.828  1.00  0.00     0.173 HD
HETATM   19  N   UNL     1       3.358  29.638  51.885  1.00  0.00    -0.293 N 
HETATM   20  O   UNL     1       3.523  31.675  50.785  1.00  0.00    -0.246 OA
HETATM   21  C   UNL     1       2.778  29.009  50.701  1.00  0.00     0.162 C 
HETATM   22  C   UNL     1       3.562  28.884  53.044  1.00  0.00     0.103 C 
BRANCH  22  23
HETATM   23  N   UNL     1       3.209  27.537  53.029  1.00  0.00    -0.287 NA
HETATM   24  H   UNL     1       3.809  26.972  53.649  1.00  0.00     0.125 HD
HETATM   25  H   UNL     1       2.238  27.389  53.291  1.00  0.00     0.125 HD
ENDBRANCH  22  23
ENDBRANCH  11  13
ENDBRANCH   1  11
BRANCH   9  26
HETATM   26  C   UNL     1       7.262  24.703  54.626  1.00  0.00    -0.007 A 
HETATM   27  C   UNL     1       7.279  23.535  55.414  1.00  0.00     0.015 A 
HETATM   28  C   UNL     1       7.575  22.285  54.861  1.00  0.00     0.024 A 
HETATM   29  C   UNL     1       7.867  22.182  53.506  1.00  0.00     0.034 A 
HETATM   30 CL   UNL     1       8.239  20.649  52.822  1.00  0.00    -0.084 Cl
HETATM   31  C   UNL     1       7.865  23.318  52.701  1.00  0.00     0.024 A 
HETATM   32  C   UNL     1       7.567  24.567  53.259  1.00  0.00     0.015 A 
ENDBRANCH   9  26
TORSDOF 4
ENDMDL
MODEL 6
REMARK VINA RESULT:      -9.1      9.121     12.274
REMARK  4 active torsions:
REMARK  status: ('A' for Active; 'I' for Inactive)
REMARK    1  A    between atoms: C_8  and  C_9 
REMARK    2  A    between atoms: C_9  and  C_10 
REMARK    3  A    between atoms: C_18  and  C_19 
REMARK    4  A    between atoms: C_28  and  N_29 
ROOT
HETATM    1  C   UNL     1       4.423  33.933  63.378  1.00  0.00     0.030 A 
HETATM    2  C   UNL     1       4.949  34.102  64.682  1.00  0.00     0.007 A 
HETATM    3  C   UNL     1       6.271  33.661  64.876  1.00  0.00     0.068 A 
HETATM    4  C   UNL     1       6.847  33.786  66.134  1.00  0.00     0.032 A 
HETATM    5  C   UNL     1       6.158  34.342  67.212  1.00  0.00     0.002 A 
HETATM    6  C   UNL     1       4.860  34.792  67.035  1.00  0.00     0.001 A 
HETATM    7  C   UNL     1       4.260  34.677  65.782  1.00  0.00     0.015 A 
HETATM    8  N   UNL     1       7.017  33.123  63.898  1.00  0.00    -0.248 NA
HETATM    9  C   UNL     1       6.502  32.987  62.653  1.00  0.00     0.068 A 
HETATM   10  C   UNL     1       5.195  33.351  62.368  1.00  0.00     0.049 A 
ENDROOT
BRANCH   1  11
HETATM   11  C   UNL     1       3.020  34.311  63.061  1.00  0.00     0.202 C 
HETATM   12  O   UNL     1       2.103  33.719  63.632  1.00  0.00    -0.286 OA
BRANCH  11  13
HETATM   13  C   UNL     1       2.742  35.359  62.023  1.00  0.00     0.121 C 
HETATM   14  C   UNL     1       3.189  36.760  62.201  1.00  0.00     0.266 C 
HETATM   15  N   UNL     1       3.015  37.595  61.145  1.00  0.00    -0.274 N 
HETATM   16  O   UNL     1       3.683  37.169  63.246  1.00  0.00    -0.267 OA
HETATM   17  C   UNL     1       2.249  37.327  60.054  1.00  0.00     0.330 C 
HETATM   18  H   UNL     1       3.302  38.555  61.260  1.00  0.00     0.173 HD
HETATM   19  N   UNL     1       1.764  36.031  59.959  1.00  0.00    -0.293 N 
HETATM   20  O   UNL     1       2.026  38.224  59.244  1.00  0.00    -0.246 OA
HETATM   21  C   UNL     1       0.985  35.701  58.767  1.00  0.00     0.162 C 
HETATM   22  C   UNL     1       2.014  35.047  60.920  1.00  0.00     0.103 C 
BRANCH  22  23
HETATM   23  N   UNL     1       1.515  33.766  60.702  1.00  0.00    -0.287 NA
HETATM   24  H   UNL     1       0.566  33.783  60.298  1.00  0.00     0.125 HD
HETATM   25  H   UNL     1       2.117  33.214  60.099  1.00  0.00     0.125 HD
ENDBRANCH  22  23
ENDBRANCH  11  13
ENDBRANCH   1  11
BRANCH   9  26
HETATM   26  C   UNL     1       7.426  32.441  61.640  1.00  0.00    -0.007 A 
HETATM   27  C   UNL     1       7.004  32.253  60.309  1.00  0.00     0.015 A 
HETATM   28  C   UNL     1       7.858  31.716  59.340  1.00  0.00     0.024 A 
HETATM   29  C   UNL     1       9.153  31.349  59.689  1.00  0.00     0.034 A 
HETATM   30 CL   UNL     1      10.204  30.680  58.505  1.00  0.00    -0.084 Cl
HETATM   31  C   UNL     1       9.598  31.513  60.998  1.00  0.00     0.024 A 
HETATM   32  C   UNL     1       8.740  32.053  61.964  1.00  0.00     0.015 A 
ENDBRANCH   9  26
TORSDOF 4
ENDMDL
MODEL 7
REMARK VINA RESULT:      -9.1      9.326     12.576
REMARK  4 active torsions:
REMARK  status: ('A' for Active; 'I' for Inactive)
REMARK    1  A    between atoms: C_8  and  C_9 
REMARK    2  A    between atoms: C_9  and  C_10 
REMARK    3  A    between atoms: C_18  and  C_19 
REMARK    4  A    between atoms: C_28  and  N_29 
ROOT
HETATM    1  C   UNL     1       5.007  35.133  63.398  1.00  0.00     0.030 A 
HETATM    2  C   UNL     1       5.355  34.943  64.757  1.00  0.00     0.007 A 
HETATM    3  C   UNL     1       6.359  33.989  65.011  1.00  0.00     0.068 A 
HETATM    4  C   UNL     1       6.742  33.744  66.323  1.00  0.00     0.032 A 
HETATM    5  C   UNL     1       6.169  34.420  67.401  1.00  0.00     0.002 A 
HETATM    6  C   UNL     1       5.189  35.372  67.168  1.00  0.00     0.001 A 
HETATM    7  C   UNL     1       4.786  35.635  65.859  1.00  0.00     0.015 A 
HETATM    8  N   UNL     1       6.976  33.297  64.040  1.00  0.00    -0.248 NA
HETATM    9  C   UNL     1       6.641  33.506  62.744  1.00  0.00     0.068 A 
HETATM   10  C   UNL     1       5.636  34.393  62.391  1.00  0.00     0.049 A 
ENDROOT
BRANCH   1  11
HETATM   11  C   UNL     1       3.925  36.074  63.007  1.00  0.00     0.202 C 
HETATM   12  O   UNL     1       3.997  37.247  63.377  1.00  0.00    -0.286 OA
BRANCH  11  13
HETATM   13  C   UNL     1       2.746  35.577  62.221  1.00  0.00     0.121 C 
HETATM   14  C   UNL     1       1.832  34.548  62.770  1.00  0.00     0.266 C 
HETATM   15  N   UNL     1       0.719  34.272  62.044  1.00  0.00    -0.274 N 
HETATM   16  O   UNL     1       2.056  33.956  63.819  1.00  0.00    -0.267 OA
HETATM   17  C   UNL     1       0.506  34.662  60.759  1.00  0.00     0.330 C 
HETATM   18  H   UNL     1       0.097  33.562  62.400  1.00  0.00     0.173 HD
HETATM   19  N   UNL     1       1.431  35.554  60.236  1.00  0.00    -0.293 N 
HETATM   20  O   UNL     1      -0.457  34.208  60.146  1.00  0.00    -0.246 OA
HETATM   21  C   UNL     1       1.194  36.033  58.877  1.00  0.00     0.162 C 
HETATM   22  C   UNL     1       2.534  36.023  60.956  1.00  0.00     0.103 C 
BRANCH  22  23
HETATM   23  N   UNL     1       3.375  36.951  60.350  1.00  0.00    -0.287 NA
HETATM   24  H   UNL     1       4.362  36.810  60.613  1.00  0.00     0.125 HD
HETATM   25  H   UNL     1       3.303  36.935  59.337  1.00  0.00     0.125 HD
ENDBRANCH  22  23
ENDBRANCH  11  13
ENDBRANCH   1  11
BRANCH   9  26
HETATM   26  C   UNL     1       7.422  32.738  61.755  1.00  0.00    -0.007 A 
HETATM   27  C   UNL     1       8.693  32.226  62.083  1.00  0.00     0.015 A 
HETATM   28  C   UNL     1       9.456  31.514  61.152  1.00  0.00     0.024 A 
HETATM   29  C   UNL     1       8.963  31.307  59.869  1.00  0.00     0.034 A 
HETATM   30 CL   UNL     1       9.901  30.441  58.717  1.00  0.00    -0.084 Cl
HETATM   31  C   UNL     1       7.714  31.807  59.510  1.00  0.00     0.024 A 
HETATM   32  C   UNL     1       6.952  32.517  60.446  1.00  0.00     0.015 A 
ENDBRANCH   9  26
TORSDOF 4
ENDMDL
MODEL 8
REMARK VINA RESULT:      -9.1      3.574      6.246
REMARK  4 active torsions:
REMARK  status: ('A' for Active; 'I' for Inactive)
REMARK    1  A    between atoms: C_8  and  C_9 
REMARK    2  A    between atoms: C_9  and  C_10 
REMARK    3  A    between atoms: C_18  and  C_19 
REMARK    4  A    between atoms: C_28  and  N_29 
ROOT
HETATM    1  C   UNL     1       6.237  25.631  54.670  1.00  0.00     0.030 A 
HETATM    2  C   UNL     1       7.079  24.526  54.942  1.00  0.00     0.007 A 
HETATM    3  C   UNL     1       8.126  24.756  55.853  1.00  0.00     0.068 A 
HETATM    4  C   UNL     1       8.998  23.718  56.158  1.00  0.00     0.032 A 
HETATM    5  C   UNL     1       8.864  22.449  55.595  1.00  0.00     0.002 A 
HETATM    6  C   UNL     1       7.831  22.201  54.705  1.00  0.00     0.001 A 
HETATM    7  C   UNL     1       6.944  23.228  54.382  1.00  0.00     0.015 A 
HETATM    8  N   UNL     1       8.329  25.939  56.455  1.00  0.00    -0.248 NA
HETATM    9  C   UNL     1       7.502  26.979  56.194  1.00  0.00     0.068 A 
HETATM   10  C   UNL     1       6.466  26.869  55.280  1.00  0.00     0.049 A 
ENDROOT
BRANCH   1  11
HETATM   11  C   UNL     1       5.129  25.528  53.684  1.00  0.00     0.202 C 
HETATM   12  O   UNL     1       4.251  24.683  53.866  1.00  0.00    -0.286 OA
BRANCH  11  13
HETATM   13  C   UNL     1       5.123  26.407  52.467  1.00  0.00     0.121 C 
HETATM   14  C   UNL     1       6.064  26.178  51.345  1.00  0.00     0.266 C 
HETATM   15  N   UNL     1       5.882  26.935  50.233  1.00  0.00    -0.274 N 
HETATM   16  O   UNL     1       6.974  25.359  51.402  1.00  0.00    -0.267 OA
HETATM   17  C   UNL     1       5.093  28.039  50.159  1.00  0.00     0.330 C 
HETATM   18  H   UNL     1       6.527  26.798  49.469  1.00  0.00     0.173 HD
HETATM   19  N   UNL     1       4.290  28.285  51.263  1.00  0.00    -0.293 N 
HETATM   20  O   UNL     1       5.142  28.744  49.154  1.00  0.00    -0.246 OA
HETATM   21  C   UNL     1       3.390  29.433  51.186  1.00  0.00     0.162 C 
HETATM   22  C   UNL     1       4.288  27.475  52.403  1.00  0.00     0.103 C 
BRANCH  22  23
HETATM   23  N   UNL     1       3.409  27.788  53.436  1.00  0.00    -0.287 NA
HETATM   24  H   UNL     1       2.816  28.600  53.208  1.00  0.00     0.125 HD
HETATM   25  H   UNL     1       2.810  27.006  53.684  1.00  0.00     0.125 HD
ENDBRANCH  22  23
ENDBRANCH  11  13
ENDBRANCH   1  11
BRANCH   9  26
HETATM   26  C   UNL     1       7.777  28.215  56.954  1.00  0.00    -0.007 A 
HETATM   27  C   UNL     1       9.101  28.650  57.162  1.00  0.00     0.015 A 
HETATM   28  C   UNL     1       9.383  29.806  57.897  1.00  0.00     0.024 A 
HETATM   29  C   UNL     1       8.341  30.546  58.446  1.00  0.00     0.034 A 
HETATM   30 CL   UNL     1       8.682  31.963  59.358  1.00  0.00    -0.084 Cl
HETATM   31  C   UNL     1       7.023  30.139  58.265  1.00  0.00     0.024 A 
HETATM   32  C   UNL     1       6.745  28.982  57.527  1.00  0.00     0.015 A 
ENDBRANCH   9  26
TORSDOF 4
ENDMDL
MODEL 9
REMARK VINA RESULT:      -8.8      4.972      8.637
REMARK  4 active torsions:
REMARK  status: ('A' for Active; 'I' for Inactive)
REMARK    1  A    between atoms: C_8  and  C_9 
REMARK    2  A    between atoms: C_9  and  C_10 
REMARK    3  A    between atoms: C_18  and  C_19 
REMARK    4  A    between atoms: C_28  and  N_29 
ROOT
HETATM    1  C   UNL     1       4.893  27.888  50.394  1.00  0.00     0.030 A 
HETATM    2  C   UNL     1       4.375  28.831  51.314  1.00  0.00     0.007 A 
HETATM    3  C   UNL     1       4.545  28.523  52.677  1.00  0.00     0.068 A 
HETATM    4  C   UNL     1       4.051  29.399  53.635  1.00  0.00     0.032 A 
HETATM    5  C   UNL     1       3.398  30.583  53.290  1.00  0.00     0.002 A 
HETATM    6  C   UNL     1       3.233  30.908  51.953  1.00  0.00     0.001 A 
HETATM    7  C   UNL     1       3.719  30.044  50.972  1.00  0.00     0.015 A 
HETATM    8  N   UNL     1       5.169  27.415  53.106  1.00  0.00    -0.248 NA
HETATM    9  C   UNL     1       5.673  26.533  52.210  1.00  0.00     0.068 A 
HETATM   10  C   UNL     1       5.522  26.723  50.846  1.00  0.00     0.049 A 
ENDROOT
BRANCH   1  11
HETATM   11  C   UNL     1       4.729  28.075  48.928  1.00  0.00     0.202 C 
HETATM   12  O   UNL     1       5.699  28.446  48.266  1.00  0.00    -0.286 OA
BRANCH  11  13
HETATM   13  C   UNL     1       3.386  27.865  48.292  1.00  0.00     0.121 C 
HETATM   14  C   UNL     1       2.744  26.530  48.264  1.00  0.00     0.266 C 
HETATM   15  N   UNL     1       1.472  26.474  47.795  1.00  0.00    -0.274 N 
HETATM   16  O   UNL     1       3.320  25.513  48.632  1.00  0.00    -0.267 OA
HETATM   17  C   UNL     1       0.842  27.474  47.122  1.00  0.00     0.330 C 
HETATM   18  H   UNL     1       1.030  25.568  47.757  1.00  0.00     0.173 HD
HETATM   19  N   UNL     1       1.508  28.690  47.081  1.00  0.00    -0.293 N 
HETATM   20  O   UNL     1      -0.245  27.248  46.593  1.00  0.00    -0.246 OA
HETATM   21  C   UNL     1       0.827  29.796  46.414  1.00  0.00     0.162 C 
HETATM   22  C   UNL     1       2.759  28.897  47.668  1.00  0.00     0.103 C 
BRANCH  22  23
HETATM   23  N   UNL     1       3.318  30.170  47.606  1.00  0.00    -0.287 NA
HETATM   24  H   UNL     1       2.607  30.911  47.698  1.00  0.00     0.125 HD
HETATM   25  H   UNL     1       4.032  30.314  48.314  1.00  0.00     0.125 HD
ENDBRANCH  22  23
ENDBRANCH  11  13
ENDBRANCH   1  11
BRANCH   9  26
HETATM   26  C   UNL     1       6.392  25.381  52.789  1.00  0.00    -0.007 A 
HETATM   27  C   UNL     1       6.064  24.900  54.072  1.00  0.00     0.015 A 
HETATM   28  C   UNL     1       6.748  23.823  54.645  1.00  0.00     0.024 A 
HETATM   29  C   UNL     1       7.782  23.211  53.945  1.00  0.00     0.034 A 
HETATM   30 CL   UNL     1       8.632  21.892  54.649  1.00  0.00    -0.084 Cl
HETATM   31  C   UNL     1       8.136  23.667  52.679  1.00  0.00     0.024 A 
HETATM   32  C   UNL     1       7.447  24.744  52.108  1.00  0.00     0.015 A 
ENDBRANCH   9  26
TORSDOF 4
ENDMDL
MODEL 10
REMARK VINA RESULT:      -8.8      7.361     10.578
REMARK  4 active torsions:
REMARK  status: ('A' for Active; 'I' for Inactive)
REMARK    1  A    between atoms: C_8  and  C_9 
REMARK    2  A    between atoms: C_9  and  C_10 
REMARK    3  A    between atoms: C_18  and  C_19 
REMARK    4  A    between atoms: C_28  and  N_29 
ROOT
HETATM    1  C   UNL     1       5.413  33.245  61.331  1.00  0.00     0.030 A 
HETATM    2  C   UNL     1       5.958  33.434  62.624  1.00  0.00     0.007 A 
HETATM    3  C   UNL     1       7.240  32.893  62.839  1.00  0.00     0.068 A 
HETATM    4  C   UNL     1       7.831  33.032  64.089  1.00  0.00     0.032 A 
HETATM    5  C   UNL     1       7.198  33.698  65.138  1.00  0.00     0.002 A 
HETATM    6  C   UNL     1       5.941  34.247  64.940  1.00  0.00     0.001 A 
HETATM    7  C   UNL     1       5.326  34.120  63.695  1.00  0.00     0.015 A 
HETATM    8  N   UNL     1       7.933  32.247  61.888  1.00  0.00    -0.248 NA
HETATM    9  C   UNL     1       7.401  32.092  60.653  1.00  0.00     0.068 A 
HETATM   10  C   UNL     1       6.128  32.550  60.351  1.00  0.00     0.049 A 
ENDROOT
BRANCH   1  11
HETATM   11  C   UNL     1       4.045  33.723  60.998  1.00  0.00     0.202 C 
HETATM   12  O   UNL     1       3.080  33.182  61.538  1.00  0.00    -0.286 OA
BRANCH  11  13
HETATM   13  C   UNL     1       3.859  34.810  59.979  1.00  0.00     0.121 C 
HETATM   14  C   UNL     1       4.138  36.228  60.303  1.00  0.00     0.266 C 
HETATM   15  N   UNL     1       4.076  37.113  59.275  1.00  0.00    -0.274 N 
HETATM   16  O   UNL     1       4.402  36.608  61.439  1.00  0.00    -0.267 OA
HETATM   17  C   UNL     1       3.540  36.855  58.053  1.00  0.00     0.330 C 
HETATM   18  H   UNL     1       4.249  38.084  59.487  1.00  0.00     0.173 HD
HETATM   19  N   UNL     1       3.199  35.533  57.808  1.00  0.00    -0.293 N 
HETATM   20  O   UNL     1       3.380  37.781  57.261  1.00  0.00    -0.246 OA
HETATM   21  C   UNL     1       2.674  35.219  56.482  1.00  0.00     0.162 C 
HETATM   22  C   UNL     1       3.366  34.513  58.749  1.00  0.00     0.103 C 
BRANCH  22  23
HETATM   23  N   UNL     1       3.031  33.212  58.383  1.00  0.00    -0.287 NA
HETATM   24  H   UNL     1       3.715  32.523  58.732  1.00  0.00     0.125 HD
HETATM   25  H   UNL     1       2.106  32.945  58.707  1.00  0.00     0.125 HD
ENDBRANCH  22  23
ENDBRANCH  11  13
ENDBRANCH   1  11
BRANCH   9  26
HETATM   26  C   UNL     1       8.270  31.419  59.667  1.00  0.00    -0.007 A 
HETATM   27  C   UNL     1       9.512  31.977  59.306  1.00  0.00     0.015 A 
HETATM   28  C   UNL     1      10.340  31.365  58.358  1.00  0.00     0.024 A 
HETATM   29  C   UNL     1       9.933  30.184  57.746  1.00  0.00     0.034 A 
HETATM   30 CL   UNL     1      10.941  29.433  56.574  1.00  0.00    -0.084 Cl
HETATM   31  C   UNL     1       8.707  29.612  58.075  1.00  0.00     0.024 A 
HETATM   32  C   UNL     1       7.883  30.227  59.026  1.00  0.00     0.015 A 
ENDBRANCH   9  26
TORSDOF 4
ENDMDL
