MODEL 1
REMARK VINA RESULT:     -10.1      0.000      0.000
REMARK  5 active torsions:
REMARK  status: ('A' for Active; 'I' for Inactive)
REMARK    1  A    between atoms: C_3  and  C_4 
REMARK    2  A    between atoms: C_6  and  N_7 
REMARK       I    between atoms: N_7  and  C_8 
REMARK    3  A    between atoms: C_8  and  C_9 
REMARK    4  A    between atoms: C_14  and  O_15 
REMARK    5  A    between atoms: O_15  and  C_16 
ROOT
HETATM    1  N   UNL     1       8.606  28.104  57.018  1.00  0.00    -0.322 N 
HETATM    2  C   UNL     1       7.630  27.879  56.062  1.00  0.00     0.272 C 
HETATM    3  O   UNL     1       6.783  28.703  55.724  1.00  0.00    -0.266 OA
HETATM    4  H   UNL     1       9.168  27.305  57.281  1.00  0.00     0.169 HD
ENDROOT
BRANCH   2   5
HETATM    5  C   UNL     1       7.641  26.549  55.486  1.00  0.00     0.102 A 
HETATM    6  N   UNL     1       7.677  26.362  54.119  1.00  0.00    -0.351 N 
HETATM    7  H   UNL     1       7.700  27.121  53.449  1.00  0.00     0.166 HD
HETATM    8  C   UNL     1       7.683  25.027  53.795  1.00  0.00     0.045 A 
HETATM    9  C   UNL     1       7.659  24.317  54.992  1.00  0.00     0.026 A 
HETATM   10  C   UNL     1       7.715  24.403  52.546  1.00  0.00     0.030 A 
HETATM   11  C   UNL     1       7.661  22.905  54.957  1.00  0.00     0.087 A 
HETATM   12  C   UNL     1       7.636  25.281  56.045  1.00  0.00     0.052 A 
HETATM   13  C   UNL     1       7.726  22.266  53.709  1.00  0.00     0.038 A 
HETATM   14  C   UNL     1       7.743  23.006  52.526  1.00  0.00     0.005 A 
BRANCH  11  15
HETATM   15  O   UNL     1       7.654  22.236  56.152  1.00  0.00    -0.289 OA
BRANCH  15  16
HETATM   16  C   UNL     1       8.120  20.898  56.071  1.00  0.00     0.505 C 
HETATM   17  F   UNL     1       8.974  20.670  57.099  1.00  0.00    -0.184 F 
HETATM   18  F   UNL     1       7.048  20.089  56.271  1.00  0.00    -0.184 F 
ENDBRANCH  15  16
ENDBRANCH  11  15
ENDBRANCH   2   5
BRANCH   1  19
HETATM   19  C   UNL     1       8.835  29.292  57.742  1.00  0.00     0.035 A 
HETATM   20  C   UNL     1       7.978  29.763  58.740  1.00  0.00     0.044 A 
HETATM   21  C   UNL     1       8.277  30.918  59.467  1.00  0.00     0.010 A 
HETATM   22  C   UNL     1       9.429  31.647  59.150  1.00  0.00     0.015 A 
HETATM   23  C   UNL     1      10.274  31.205  58.132  1.00  0.00     0.003 A 
HETATM   24  C   UNL     1       9.980  30.032  57.433  1.00  0.00     0.029 A 
BRANCH  21  25
HETATM   25  C   UNL     1       7.366  31.402  60.574  1.00  0.00     0.117 A 
HETATM   26  N   UNL     1       6.304  32.248  60.553  1.00  0.00    -0.346 N 
HETATM   27  C   UNL     1       5.666  32.835  59.373  1.00  0.00     0.157 C 
HETATM   28  C   UNL     1       5.826  32.443  61.846  1.00  0.00     0.109 A 
HETATM   29  C   UNL     1       6.569  31.657  62.668  1.00  0.00     0.107 A 
HETATM   30  N   UNL     1       7.477  31.023  61.864  1.00  0.00    -0.350 N 
HETATM   31  H   UNL     1       8.196  30.390  62.198  1.00  0.00     0.166 HD
ENDBRANCH  21  25
ENDBRANCH   1  19
TORSDOF 5
ENDMDL
MODEL 2
REMARK VINA RESULT:      -9.5      5.272     10.539
REMARK  5 active torsions:
REMARK  status: ('A' for Active; 'I' for Inactive)
REMARK    1  A    between atoms: C_3  and  C_4 
REMARK    2  A    between atoms: C_6  and  N_7 
REMARK       I    between atoms: N_7  and  C_8 
REMARK    3  A    between atoms: C_8  and  C_9 
REMARK    4  A    between atoms: C_14  and  O_15 
REMARK    5  A    between atoms: O_15  and  C_16 
ROOT
HETATM    1  N   UNL     1       7.927  30.970  60.160  1.00  0.00    -0.322 N 
HETATM    2  C   UNL     1       8.355  30.964  61.477  1.00  0.00     0.272 C 
HETATM    3  O   UNL     1       9.350  30.370  61.884  1.00  0.00    -0.266 OA
HETATM    4  H   UNL     1       7.032  31.405  59.981  1.00  0.00     0.169 HD
ENDROOT
BRANCH   2   5
HETATM    5  C   UNL     1       7.505  31.699  62.392  1.00  0.00     0.102 A 
HETATM    6  N   UNL     1       8.030  32.344  63.494  1.00  0.00    -0.351 N 
HETATM    7  H   UNL     1       9.015  32.347  63.725  1.00  0.00     0.166 HD
HETATM    8  C   UNL     1       7.049  32.975  64.220  1.00  0.00     0.045 A 
HETATM    9  C   UNL     1       5.843  32.743  63.566  1.00  0.00     0.026 A 
HETATM   10  C   UNL     1       7.141  33.733  65.390  1.00  0.00     0.030 A 
HETATM   11  C   UNL     1       4.652  33.285  64.099  1.00  0.00     0.087 A 
HETATM   12  C   UNL     1       6.141  31.944  62.421  1.00  0.00     0.052 A 
HETATM   13  C   UNL     1       4.736  34.075  65.256  1.00  0.00     0.038 A 
HETATM   14  C   UNL     1       5.959  34.285  65.893  1.00  0.00     0.005 A 
BRANCH  11  15
HETATM   15  O   UNL     1       3.485  33.051  63.422  1.00  0.00    -0.289 OA
BRANCH  15  16
HETATM   16  C   UNL     1       2.626  34.179  63.340  1.00  0.00     0.505 C 
HETATM   17  F   UNL     1       2.471  34.514  62.035  1.00  0.00    -0.184 F 
HETATM   18  F   UNL     1       1.407  33.785  63.788  1.00  0.00    -0.184 F 
ENDBRANCH  15  16
ENDBRANCH  11  15
ENDBRANCH   2   5
BRANCH   1  19
HETATM   19  C   UNL     1       8.547  30.345  59.057  1.00  0.00     0.035 A 
HETATM   20  C   UNL     1       8.080  29.161  58.482  1.00  0.00     0.044 A 
HETATM   21  C   UNL     1       8.698  28.609  57.356  1.00  0.00     0.010 A 
HETATM   22  C   UNL     1       9.839  29.227  56.831  1.00  0.00     0.015 A 
HETATM   23  C   UNL     1      10.334  30.391  57.419  1.00  0.00     0.003 A 
HETATM   24  C   UNL     1       9.689  30.949  58.525  1.00  0.00     0.029 A 
BRANCH  21  25
HETATM   25  C   UNL     1       8.165  27.348  56.711  1.00  0.00     0.117 A 
HETATM   26  N   UNL     1       7.471  27.158  55.560  1.00  0.00    -0.346 N 
HETATM   27  C   UNL     1       7.160  28.162  54.540  1.00  0.00     0.157 C 
HETATM   28  C   UNL     1       7.138  25.814  55.423  1.00  0.00     0.109 A 
HETATM   29  C   UNL     1       7.687  25.157  56.478  1.00  0.00     0.107 A 
HETATM   30  N   UNL     1       8.321  26.112  57.226  1.00  0.00    -0.350 N 
HETATM   31  H   UNL     1       8.799  25.930  58.102  1.00  0.00     0.166 HD
ENDBRANCH  21  25
ENDBRANCH   1  19
TORSDOF 5
ENDMDL
MODEL 3
REMARK VINA RESULT:      -9.2      3.780      9.448
REMARK  5 active torsions:
REMARK  status: ('A' for Active; 'I' for Inactive)
REMARK    1  A    between atoms: C_3  and  C_4 
REMARK    2  A    between atoms: C_6  and  N_7 
REMARK       I    between atoms: N_7  and  C_8 
REMARK    3  A    between atoms: C_8  and  C_9 
REMARK    4  A    between atoms: C_14  and  O_15 
REMARK    5  A    between atoms: O_15  and  C_16 
ROOT
HETATM    1  N   UNL     1       6.758  27.058  55.516  1.00  0.00    -0.322 N 
HETATM    2  C   UNL     1       7.517  28.210  55.394  1.00  0.00     0.272 C 
HETATM    3  O   UNL     1       8.226  28.479  54.426  1.00  0.00    -0.266 OA
HETATM    4  H   UNL     1       6.310  26.910  56.410  1.00  0.00     0.169 HD
ENDROOT
BRANCH   2   5
HETATM    5  C   UNL     1       7.453  29.101  56.536  1.00  0.00     0.102 A 
HETATM    6  N   UNL     1       6.473  30.068  56.633  1.00  0.00    -0.351 N 
HETATM    7  H   UNL     1       5.754  30.211  55.936  1.00  0.00     0.166 HD
HETATM    8  C   UNL     1       6.601  30.795  57.792  1.00  0.00     0.045 A 
HETATM    9  C   UNL     1       7.696  30.280  58.479  1.00  0.00     0.026 A 
HETATM   10  C   UNL     1       5.831  31.854  58.281  1.00  0.00     0.030 A 
HETATM   11  C   UNL     1       8.061  30.845  59.721  1.00  0.00     0.087 A 
HETATM   12  C   UNL     1       8.221  29.217  57.683  1.00  0.00     0.052 A 
HETATM   13  C   UNL     1       7.276  31.887  60.239  1.00  0.00     0.038 A 
HETATM   14  C   UNL     1       6.187  32.387  59.523  1.00  0.00     0.005 A 
BRANCH  11  15
HETATM   15  O   UNL     1       9.133  30.304  60.380  1.00  0.00    -0.289 OA
BRANCH  15  16
HETATM   16  C   UNL     1       9.286  30.761  61.714  1.00  0.00     0.505 C 
HETATM   17  F   UNL     1       9.875  29.783  62.446  1.00  0.00    -0.184 F 
HETATM   18  F   UNL     1      10.158  31.801  61.682  1.00  0.00    -0.184 F 
ENDBRANCH  15  16
ENDBRANCH  11  15
ENDBRANCH   2   5
BRANCH   1  19
HETATM   19  C   UNL     1       6.627  26.017  54.573  1.00  0.00     0.035 A 
HETATM   20  C   UNL     1       7.270  24.783  54.694  1.00  0.00     0.044 A 
HETATM   21  C   UNL     1       7.065  23.764  53.760  1.00  0.00     0.010 A 
HETATM   22  C   UNL     1       6.244  24.005  52.654  1.00  0.00     0.015 A 
HETATM   23  C   UNL     1       5.624  25.247  52.504  1.00  0.00     0.003 A 
HETATM   24  C   UNL     1       5.812  26.247  53.461  1.00  0.00     0.029 A 
BRANCH  21  25
HETATM   25  C   UNL     1       7.732  22.415  53.918  1.00  0.00     0.117 A 
HETATM   26  N   UNL     1       8.276  21.808  55.004  1.00  0.00    -0.346 N 
HETATM   27  C   UNL     1       8.239  22.279  56.390  1.00  0.00     0.157 C 
HETATM   28  C   UNL     1       8.838  20.589  54.635  1.00  0.00     0.109 A 
HETATM   29  C   UNL     1       8.583  20.416  53.312  1.00  0.00     0.107 A 
HETATM   30  N   UNL     1       7.893  21.529  52.914  1.00  0.00    -0.350 N 
HETATM   31  H   UNL     1       7.590  21.706  51.962  1.00  0.00     0.166 HD
ENDBRANCH  21  25
ENDBRANCH   1  19
TORSDOF 5
ENDMDL
MODEL 4
REMARK VINA RESULT:      -9.1      5.696     10.819
REMARK  5 active torsions:
REMARK  status: ('A' for Active; 'I' for Inactive)
REMARK    1  A    between atoms: C_3  and  C_4 
REMARK    2  A    between atoms: C_6  and  N_7 
REMARK       I    between atoms: N_7  and  C_8 
REMARK    3  A    between atoms: C_8  and  C_9 
REMARK    4  A    between atoms: C_14  and  O_15 
REMARK    5  A    between atoms: O_15  and  C_16 
ROOT
HETATM    1  N   UNL     1       8.325  31.375  59.929  1.00  0.00    -0.322 N 
HETATM    2  C   UNL     1       8.641  31.351  61.277  1.00  0.00     0.272 C 
HETATM    3  O   UNL     1       9.457  30.588  61.788  1.00  0.00    -0.266 OA
HETATM    4  H   UNL     1       7.556  31.974  59.659  1.00  0.00     0.169 HD
ENDROOT
BRANCH   2   5
HETATM    5  C   UNL     1       7.897  32.293  62.090  1.00  0.00     0.102 A 
HETATM    6  N   UNL     1       7.102  33.264  61.512  1.00  0.00    -0.351 N 
HETATM    7  H   UNL     1       6.988  33.374  60.513  1.00  0.00     0.166 HD
HETATM    8  C   UNL     1       6.492  34.042  62.465  1.00  0.00     0.045 A 
HETATM    9  C   UNL     1       6.894  33.560  63.707  1.00  0.00     0.026 A 
HETATM   10  C   UNL     1       5.616  35.122  62.320  1.00  0.00     0.030 A 
HETATM   11  C   UNL     1       6.409  34.182  64.879  1.00  0.00     0.087 A 
HETATM   12  C   UNL     1       7.772  32.462  63.459  1.00  0.00     0.052 A 
HETATM   13  C   UNL     1       5.504  35.246  64.748  1.00  0.00     0.038 A 
HETATM   14  C   UNL     1       5.124  35.711  63.488  1.00  0.00     0.005 A 
BRANCH  11  15
HETATM   15  O   UNL     1       6.811  33.672  66.086  1.00  0.00    -0.289 OA
BRANCH  15  16
HETATM   16  C   UNL     1       6.385  34.430  67.207  1.00  0.00     0.505 C 
HETATM   17  F   UNL     1       5.388  33.758  67.835  1.00  0.00    -0.184 F 
HETATM   18  F   UNL     1       7.427  34.479  68.075  1.00  0.00    -0.184 F 
ENDBRANCH  15  16
ENDBRANCH  11  15
ENDBRANCH   2   5
BRANCH   1  19
HETATM   19  C   UNL     1       8.881  30.578  58.907  1.00  0.00     0.035 A 
HETATM   20  C   UNL     1       8.279  29.413  58.424  1.00  0.00     0.044 A 
HETATM   21  C   UNL     1       8.844  28.687  57.373  1.00  0.00     0.010 A 
HETATM   22  C   UNL     1      10.064  29.105  56.830  1.00  0.00     0.015 A 
HETATM   23  C   UNL     1      10.692  30.248  57.328  1.00  0.00     0.003 A 
HETATM   24  C   UNL     1      10.102  30.982  58.359  1.00  0.00     0.029 A 
BRANCH  21  25
HETATM   25  C   UNL     1       8.168  27.449  56.827  1.00  0.00     0.117 A 
HETATM   26  N   UNL     1       7.302  27.286  55.793  1.00  0.00    -0.346 N 
HETATM   27  C   UNL     1       6.885  28.299  54.821  1.00  0.00     0.157 C 
HETATM   28  C   UNL     1       6.895  25.956  55.720  1.00  0.00     0.109 A 
HETATM   29  C   UNL     1       7.567  25.280  56.687  1.00  0.00     0.107 A 
HETATM   30  N   UNL     1       8.345  26.208  57.324  1.00  0.00    -0.350 N 
HETATM   31  H   UNL     1       8.941  26.008  58.121  1.00  0.00     0.166 HD
ENDBRANCH  21  25
ENDBRANCH   1  19
TORSDOF 5
ENDMDL
MODEL 5
REMARK VINA RESULT:      -8.9      5.509      8.674
REMARK  5 active torsions:
REMARK  status: ('A' for Active; 'I' for Inactive)
REMARK    1  A    between atoms: C_3  and  C_4 
REMARK    2  A    between atoms: C_6  and  N_7 
REMARK       I    between atoms: N_7  and  C_8 
REMARK    3  A    between atoms: C_8  and  C_9 
REMARK    4  A    between atoms: C_14  and  O_15 
REMARK    5  A    between atoms: O_15  and  C_16 
ROOT
HETATM    1  N   UNL     1       5.612  25.940  50.856  1.00  0.00    -0.322 N 
HETATM    2  C   UNL     1       5.333  26.050  52.207  1.00  0.00     0.272 C 
HETATM    3  O   UNL     1       4.457  26.770  52.682  1.00  0.00    -0.266 OA
HETATM    4  H   UNL     1       6.430  25.399  50.610  1.00  0.00     0.169 HD
ENDROOT
BRANCH   2   5
HETATM    5  C   UNL     1       6.193  25.263  53.069  1.00  0.00     0.102 A 
HETATM    6  N   UNL     1       6.308  25.546  54.415  1.00  0.00    -0.351 N 
HETATM    7  H   UNL     1       5.811  26.298  54.875  1.00  0.00     0.166 HD
HETATM    8  C   UNL     1       7.171  24.677  55.037  1.00  0.00     0.045 A 
HETATM    9  C   UNL     1       7.629  23.791  54.067  1.00  0.00     0.026 A 
HETATM   10  C   UNL     1       7.570  24.606  56.375  1.00  0.00     0.030 A 
HETATM   11  C   UNL     1       8.541  22.776  54.434  1.00  0.00     0.087 A 
HETATM   12  C   UNL     1       7.008  24.166  52.838  1.00  0.00     0.052 A 
HETATM   13  C   UNL     1       8.924  22.674  55.780  1.00  0.00     0.038 A 
HETATM   14  C   UNL     1       8.452  23.582  56.729  1.00  0.00     0.005 A 
BRANCH  11  15
HETATM   15  O   UNL     1       8.960  21.910  53.458  1.00  0.00    -0.289 OA
BRANCH  15  16
HETATM   16  C   UNL     1       8.304  20.652  53.479  1.00  0.00     0.505 C 
HETATM   17  F   UNL     1       8.263  20.161  52.215  1.00  0.00    -0.184 F 
HETATM   18  F   UNL     1       9.085  19.807  54.199  1.00  0.00    -0.184 F 
ENDBRANCH  15  16
ENDBRANCH  11  15
ENDBRANCH   2   5
BRANCH   1  19
HETATM   19  C   UNL     1       4.948  26.584  49.791  1.00  0.00     0.035 A 
HETATM   20  C   UNL     1       5.149  27.926  49.456  1.00  0.00     0.044 A 
HETATM   21  C   UNL     1       4.507  28.503  48.358  1.00  0.00     0.010 A 
HETATM   22  C   UNL     1       3.603  27.738  47.614  1.00  0.00     0.015 A 
HETATM   23  C   UNL     1       3.368  26.406  47.960  1.00  0.00     0.003 A 
HETATM   24  C   UNL     1       4.039  25.832  49.042  1.00  0.00     0.029 A 
BRANCH  21  25
HETATM   25  C   UNL     1       4.759  29.945  47.975  1.00  0.00     0.117 A 
HETATM   26  N   UNL     1       5.150  31.012  48.719  1.00  0.00    -0.346 N 
HETATM   27  C   UNL     1       5.568  31.005  50.123  1.00  0.00     0.157 C 
HETATM   28  C   UNL     1       5.178  32.158  47.929  1.00  0.00     0.109 A 
HETATM   29  C   UNL     1       4.856  31.778  46.665  1.00  0.00     0.107 A 
HETATM   30  N   UNL     1       4.631  30.429  46.723  1.00  0.00    -0.350 N 
HETATM   31  H   UNL     1       4.337  29.862  45.935  1.00  0.00     0.166 HD
ENDBRANCH  21  25
ENDBRANCH   1  19
TORSDOF 5
ENDMDL
MODEL 6
REMARK VINA RESULT:      -8.9      5.552      9.019
REMARK  5 active torsions:
REMARK  status: ('A' for Active; 'I' for Inactive)
REMARK    1  A    between atoms: C_3  and  C_4 
REMARK    2  A    between atoms: C_6  and  N_7 
REMARK       I    between atoms: N_7  and  C_8 
REMARK    3  A    between atoms: C_8  and  C_9 
REMARK    4  A    between atoms: C_14  and  O_15 
REMARK    5  A    between atoms: O_15  and  C_16 
ROOT
HETATM    1  N   UNL     1       5.798  26.801  51.430  1.00  0.00    -0.322 N 
HETATM    2  C   UNL     1       5.307  26.462  52.680  1.00  0.00     0.272 C 
HETATM    3  O   UNL     1       4.280  26.923  53.174  1.00  0.00    -0.266 OA
HETATM    4  H   UNL     1       6.710  26.434  51.193  1.00  0.00     0.169 HD
ENDROOT
BRANCH   2   5
HETATM    5  C   UNL     1       6.127  25.523  53.419  1.00  0.00     0.102 A 
HETATM    6  N   UNL     1       6.239  25.597  54.792  1.00  0.00    -0.351 N 
HETATM    7  H   UNL     1       5.765  26.290  55.357  1.00  0.00     0.166 HD
HETATM    8  C   UNL     1       7.062  24.613  55.282  1.00  0.00     0.045 A 
HETATM    9  C   UNL     1       7.498  23.864  54.192  1.00  0.00     0.026 A 
HETATM   10  C   UNL     1       7.443  24.327  56.596  1.00  0.00     0.030 A 
HETATM   11  C   UNL     1       8.368  22.772  54.408  1.00  0.00     0.087 A 
HETATM   12  C   UNL     1       6.904  24.443  53.030  1.00  0.00     0.052 A 
HETATM   13  C   UNL     1       8.732  22.456  55.725  1.00  0.00     0.038 A 
HETATM   14  C   UNL     1       8.283  23.229  56.797  1.00  0.00     0.005 A 
BRANCH  11  15
HETATM   15  O   UNL     1       8.764  22.046  53.315  1.00  0.00    -0.289 OA
BRANCH  15  16
HETATM   16  C   UNL     1       8.508  20.654  53.420  1.00  0.00     0.505 C 
HETATM   17  F   UNL     1       7.251  20.476  53.897  1.00  0.00    -0.184 F 
HETATM   18  F   UNL     1       8.520  20.151  52.159  1.00  0.00    -0.184 F 
ENDBRANCH  15  16
ENDBRANCH  11  15
ENDBRANCH   2   5
BRANCH   1  19
HETATM   19  C   UNL     1       5.219  27.684  50.495  1.00  0.00     0.035 A 
HETATM   20  C   UNL     1       4.140  27.340  49.676  1.00  0.00     0.044 A 
HETATM   21  C   UNL     1       3.568  28.268  48.803  1.00  0.00     0.010 A 
HETATM   22  C   UNL     1       4.120  29.550  48.709  1.00  0.00     0.015 A 
HETATM   23  C   UNL     1       5.220  29.894  49.497  1.00  0.00     0.003 A 
HETATM   24  C   UNL     1       5.764  28.966  50.388  1.00  0.00     0.029 A 
BRANCH  21  25
HETATM   25  C   UNL     1       2.374  27.903  47.948  1.00  0.00     0.117 A 
HETATM   26  N   UNL     1       2.115  26.799  47.200  1.00  0.00    -0.346 N 
HETATM   27  C   UNL     1       2.909  25.570  47.133  1.00  0.00     0.157 C 
HETATM   28  C   UNL     1       0.905  26.954  46.529  1.00  0.00     0.109 A 
HETATM   29  C   UNL     1       0.384  28.147  46.916  1.00  0.00     0.107 A 
HETATM   30  N   UNL     1       1.287  28.685  47.792  1.00  0.00    -0.350 N 
HETATM   31  H   UNL     1       1.190  29.596  48.229  1.00  0.00     0.166 HD
ENDBRANCH  21  25
ENDBRANCH   1  19
TORSDOF 5
ENDMDL
MODEL 7
REMARK VINA RESULT:      -8.9      3.129      5.389
REMARK  5 active torsions:
REMARK  status: ('A' for Active; 'I' for Inactive)
REMARK    1  A    between atoms: C_3  and  C_4 
REMARK    2  A    between atoms: C_6  and  N_7 
REMARK       I    between atoms: N_7  and  C_8 
REMARK    3  A    between atoms: C_8  and  C_9 
REMARK    4  A    between atoms: C_14  and  O_15 
REMARK    5  A    between atoms: O_15  and  C_16 
ROOT
HETATM    1  N   UNL     1       7.045  31.464  60.700  1.00  0.00    -0.322 N 
HETATM    2  C   UNL     1       7.831  31.576  59.566  1.00  0.00     0.272 C 
HETATM    3  O   UNL     1       8.639  32.480  59.364  1.00  0.00    -0.266 OA
HETATM    4  H   UNL     1       6.344  30.735  60.689  1.00  0.00     0.169 HD
ENDROOT
BRANCH   2   5
HETATM    5  C   UNL     1       7.612  30.542  58.573  1.00  0.00     0.102 A 
HETATM    6  N   UNL     1       6.704  30.717  57.548  1.00  0.00    -0.351 N 
HETATM    7  H   UNL     1       6.151  31.556  57.425  1.00  0.00     0.166 HD
HETATM    8  C   UNL     1       6.658  29.617  56.727  1.00  0.00     0.045 A 
HETATM    9  C   UNL     1       7.574  28.696  57.226  1.00  0.00     0.026 A 
HETATM   10  C   UNL     1       5.888  29.376  55.586  1.00  0.00     0.030 A 
HETATM   11  C   UNL     1       7.737  27.457  56.566  1.00  0.00     0.087 A 
HETATM   12  C   UNL     1       8.167  29.287  58.382  1.00  0.00     0.052 A 
HETATM   13  C   UNL     1       6.993  27.216  55.401  1.00  0.00     0.038 A 
HETATM   14  C   UNL     1       6.078  28.158  54.928  1.00  0.00     0.005 A 
BRANCH  11  15
HETATM   15  O   UNL     1       8.658  26.579  57.074  1.00  0.00    -0.289 OA
BRANCH  15  16
HETATM   16  C   UNL     1       8.129  25.300  57.388  1.00  0.00     0.505 C 
HETATM   17  F   UNL     1       9.016  24.642  58.174  1.00  0.00    -0.184 F 
HETATM   18  F   UNL     1       7.017  25.502  58.140  1.00  0.00    -0.184 F 
ENDBRANCH  15  16
ENDBRANCH  11  15
ENDBRANCH   2   5
BRANCH   1  19
HETATM   19  C   UNL     1       7.040  32.316  61.824  1.00  0.00     0.035 A 
HETATM   20  C   UNL     1       6.237  33.456  61.921  1.00  0.00     0.044 A 
HETATM   21  C   UNL     1       6.229  34.240  63.079  1.00  0.00     0.010 A 
HETATM   22  C   UNL     1       7.081  33.906  64.137  1.00  0.00     0.015 A 
HETATM   23  C   UNL     1       7.912  32.789  64.036  1.00  0.00     0.003 A 
HETATM   24  C   UNL     1       7.890  31.997  62.886  1.00  0.00     0.029 A 
BRANCH  21  25
HETATM   25  C   UNL     1       5.328  35.450  63.195  1.00  0.00     0.117 A 
HETATM   26  N   UNL     1       3.974  35.556  63.224  1.00  0.00    -0.346 N 
HETATM   27  C   UNL     1       3.002  34.462  63.280  1.00  0.00     0.157 C 
HETATM   28  C   UNL     1       3.605  36.898  63.271  1.00  0.00     0.109 A 
HETATM   29  C   UNL     1       4.751  37.625  63.332  1.00  0.00     0.107 A 
HETATM   30  N   UNL     1       5.774  36.717  63.307  1.00  0.00    -0.350 N 
HETATM   31  H   UNL     1       6.759  36.962  63.306  1.00  0.00     0.166 HD
ENDBRANCH  21  25
ENDBRANCH   1  19
TORSDOF 5
ENDMDL
MODEL 8
REMARK VINA RESULT:      -8.5      3.700      5.538
REMARK  5 active torsions:
REMARK  status: ('A' for Active; 'I' for Inactive)
REMARK    1  A    between atoms: C_3  and  C_4 
REMARK    2  A    between atoms: C_6  and  N_7 
REMARK       I    between atoms: N_7  and  C_8 
REMARK    3  A    between atoms: C_8  and  C_9 
REMARK    4  A    between atoms: C_14  and  O_15 
REMARK    5  A    between atoms: O_15  and  C_16 
ROOT
HETATM    1  N   UNL     1       7.184  30.825  60.407  1.00  0.00    -0.322 N 
HETATM    2  C   UNL     1       7.169  31.192  59.072  1.00  0.00     0.272 C 
HETATM    3  O   UNL     1       7.153  32.352  58.668  1.00  0.00    -0.266 OA
HETATM    4  H   UNL     1       7.083  29.838  60.602  1.00  0.00     0.169 HD
ENDROOT
BRANCH   2   5
HETATM    5  C   UNL     1       7.134  30.082  58.140  1.00  0.00     0.102 A 
HETATM    6  N   UNL     1       7.711  28.867  58.452  1.00  0.00    -0.351 N 
HETATM    7  H   UNL     1       8.179  28.677  59.329  1.00  0.00     0.166 HD
HETATM    8  C   UNL     1       7.559  27.963  57.429  1.00  0.00     0.045 A 
HETATM    9  C   UNL     1       6.852  28.605  56.418  1.00  0.00     0.026 A 
HETATM   10  C   UNL     1       7.984  26.635  57.330  1.00  0.00     0.030 A 
HETATM   11  C   UNL     1       6.550  27.900  55.231  1.00  0.00     0.087 A 
HETATM   12  C   UNL     1       6.589  29.932  56.875  1.00  0.00     0.052 A 
HETATM   13  C   UNL     1       6.943  26.557  55.132  1.00  0.00     0.038 A 
HETATM   14  C   UNL     1       7.656  25.942  56.162  1.00  0.00     0.005 A 
BRANCH  11  15
HETATM   15  O   UNL     1       5.838  28.556  54.262  1.00  0.00    -0.289 OA
BRANCH  15  16
HETATM   16  C   UNL     1       4.504  28.096  54.110  1.00  0.00     0.505 C 
HETATM   17  F   UNL     1       3.868  28.200  55.303  1.00  0.00    -0.184 F 
HETATM   18  F   UNL     1       3.881  28.952  53.261  1.00  0.00    -0.184 F 
ENDBRANCH  15  16
ENDBRANCH  11  15
ENDBRANCH   2   5
BRANCH   1  19
HETATM   19  C   UNL     1       7.219  31.680  61.528  1.00  0.00     0.035 A 
HETATM   20  C   UNL     1       6.136  32.467  61.929  1.00  0.00     0.044 A 
HETATM   21  C   UNL     1       6.202  33.259  63.079  1.00  0.00     0.010 A 
HETATM   22  C   UNL     1       7.394  33.305  63.810  1.00  0.00     0.015 A 
HETATM   23  C   UNL     1       8.493  32.550  63.399  1.00  0.00     0.003 A 
HETATM   24  C   UNL     1       8.405  31.740  62.265  1.00  0.00     0.029 A 
BRANCH  21  25
HETATM   25  C   UNL     1       5.013  34.078  63.532  1.00  0.00     0.117 A 
HETATM   26  N   UNL     1       4.661  35.363  63.269  1.00  0.00    -0.346 N 
HETATM   27  C   UNL     1       5.310  36.284  62.334  1.00  0.00     0.157 C 
HETATM   28  C   UNL     1       3.508  35.693  63.977  1.00  0.00     0.109 A 
HETATM   29  C   UNL     1       3.111  34.575  64.638  1.00  0.00     0.107 A 
HETATM   30  N   UNL     1       4.031  33.610  64.329  1.00  0.00    -0.350 N 
HETATM   31  H   UNL     1       4.021  32.667  64.704  1.00  0.00     0.166 HD
ENDBRANCH  21  25
ENDBRANCH   1  19
TORSDOF 5
ENDMDL
MODEL 9
REMARK VINA RESULT:      -8.4      5.711      8.863
REMARK  5 active torsions:
REMARK  status: ('A' for Active; 'I' for Inactive)
REMARK    1  A    between atoms: C_3  and  C_4 
REMARK    2  A    between atoms: C_6  and  N_7 
REMARK       I    between atoms: N_7  and  C_8 
REMARK    3  A    between atoms: C_8  and  C_9 
REMARK    4  A    between atoms: C_14  and  O_15 
REMARK    5  A    between atoms: O_15  and  C_16 
ROOT
HETATM    1  N   UNL     1       5.635  26.892  51.421  1.00  0.00    -0.322 N 
HETATM    2  C   UNL     1       5.195  26.533  52.684  1.00  0.00     0.272 C 
HETATM    3  O   UNL     1       4.260  27.068  53.276  1.00  0.00    -0.266 OA
HETATM    4  H   UNL     1       6.483  26.446  51.099  1.00  0.00     0.169 HD
ENDROOT
BRANCH   2   5
HETATM    5  C   UNL     1       5.956  25.469  53.311  1.00  0.00     0.102 A 
HETATM    6  N   UNL     1       6.447  24.411  52.572  1.00  0.00    -0.351 N 
HETATM    7  H   UNL     1       6.314  24.315  51.574  1.00  0.00     0.166 HD
HETATM    8  C   UNL     1       7.135  23.524  53.364  1.00  0.00     0.045 A 
HETATM    9  C   UNL     1       7.100  24.024  54.662  1.00  0.00     0.026 A 
HETATM   10  C   UNL     1       7.786  22.334  53.028  1.00  0.00     0.030 A 
HETATM   11  C   UNL     1       7.740  23.304  55.696  1.00  0.00     0.087 A 
HETATM   12  C   UNL     1       6.361  25.244  54.616  1.00  0.00     0.052 A 
HETATM   13  C   UNL     1       8.424  22.124  55.367  1.00  0.00     0.038 A 
HETATM   14  C   UNL     1       8.436  21.645  54.056  1.00  0.00     0.005 A 
BRANCH  11  15
HETATM   15  O   UNL     1       7.701  23.831  56.960  1.00  0.00    -0.289 OA
BRANCH  15  16
HETATM   16  C   UNL     1       8.820  24.640  57.286  1.00  0.00     0.505 C 
HETATM   17  F   UNL     1       8.419  25.934  57.354  1.00  0.00    -0.184 F 
HETATM   18  F   UNL     1       9.216  24.289  58.536  1.00  0.00    -0.184 F 
ENDBRANCH  15  16
ENDBRANCH  11  15
ENDBRANCH   2   5
BRANCH   1  19
HETATM   19  C   UNL     1       5.094  27.885  50.579  1.00  0.00     0.035 A 
HETATM   20  C   UNL     1       4.040  27.653  49.692  1.00  0.00     0.044 A 
HETATM   21  C   UNL     1       3.504  28.685  48.917  1.00  0.00     0.010 A 
HETATM   22  C   UNL     1       4.071  29.962  48.991  1.00  0.00     0.015 A 
HETATM   23  C   UNL     1       5.147  30.197  49.848  1.00  0.00     0.003 A 
HETATM   24  C   UNL     1       5.654  29.165  50.640  1.00  0.00     0.029 A 
BRANCH  21  25
HETATM   25  C   UNL     1       2.336  28.437  47.988  1.00  0.00     0.117 A 
HETATM   26  N   UNL     1       1.874  29.144  46.924  1.00  0.00    -0.346 N 
HETATM   27  C   UNL     1       2.499  30.313  46.302  1.00  0.00     0.157 C 
HETATM   28  C   UNL     1       0.717  28.551  46.426  1.00  0.00     0.109 A 
HETATM   29  C   UNL     1       0.498  27.428  47.158  1.00  0.00     0.107 A 
HETATM   30  N   UNL     1       1.508  27.376  48.080  1.00  0.00    -0.350 N 
HETATM   31  H   UNL     1       1.595  26.663  48.796  1.00  0.00     0.166 HD
ENDBRANCH  21  25
ENDBRANCH   1  19
TORSDOF 5
ENDMDL
MODEL 10
REMARK VINA RESULT:      -8.3      4.348      9.741
REMARK  5 active torsions:
REMARK  status: ('A' for Active; 'I' for Inactive)
REMARK    1  A    between atoms: C_3  and  C_4 
REMARK    2  A    between atoms: C_6  and  N_7 
REMARK       I    between atoms: N_7  and  C_8 
REMARK    3  A    between atoms: C_8  and  C_9 
REMARK    4  A    between atoms: C_14  and  O_15 
REMARK    5  A    between atoms: O_15  and  C_16 
ROOT
HETATM    1  N   UNL     1       6.496  28.357  57.124  1.00  0.00    -0.322 N 
HETATM    2  C   UNL     1       7.426  29.383  57.102  1.00  0.00     0.272 C 
HETATM    3  O   UNL     1       8.185  29.616  56.164  1.00  0.00    -0.266 OA
HETATM    4  H   UNL     1       6.015  28.208  58.000  1.00  0.00     0.169 HD
ENDROOT
BRANCH   2   5
HETATM    5  C   UNL     1       7.480  30.176  58.315  1.00  0.00     0.102 A 
HETATM    6  N   UNL     1       8.455  29.959  59.268  1.00  0.00    -0.351 N 
HETATM    7  H   UNL     1       9.177  29.256  59.182  1.00  0.00     0.166 HD
HETATM    8  C   UNL     1       8.319  30.821  60.329  1.00  0.00     0.045 A 
HETATM    9  C   UNL     1       7.222  31.634  60.056  1.00  0.00     0.026 A 
HETATM   10  C   UNL     1       9.082  30.945  61.493  1.00  0.00     0.030 A 
HETATM   11  C   UNL     1       6.849  32.626  60.991  1.00  0.00     0.087 A 
HETATM   12  C   UNL     1       6.706  31.222  58.791  1.00  0.00     0.052 A 
HETATM   13  C   UNL     1       7.626  32.781  62.149  1.00  0.00     0.038 A 
HETATM   14  C   UNL     1       8.717  31.946  62.397  1.00  0.00     0.005 A 
BRANCH  11  15
HETATM   15  O   UNL     1       5.776  33.420  60.685  1.00  0.00    -0.289 OA
BRANCH  15  16
HETATM   16  C   UNL     1       4.586  33.082  61.382  1.00  0.00     0.505 C 
HETATM   17  F   UNL     1       4.712  31.825  61.876  1.00  0.00    -0.184 F 
HETATM   18  F   UNL     1       4.500  33.913  62.451  1.00  0.00    -0.184 F 
ENDBRANCH  15  16
ENDBRANCH  11  15
ENDBRANCH   2   5
BRANCH   1  19
HETATM   19  C   UNL     1       6.223  27.431  56.096  1.00  0.00     0.035 A 
HETATM   20  C   UNL     1       6.824  26.172  56.014  1.00  0.00     0.044 A 
HETATM   21  C   UNL     1       6.479  25.268  55.006  1.00  0.00     0.010 A 
HETATM   22  C   UNL     1       5.554  25.653  54.029  1.00  0.00     0.015 A 
HETATM   23  C   UNL     1       4.973  26.922  54.081  1.00  0.00     0.003 A 
HETATM   24  C   UNL     1       5.304  27.804  55.111  1.00  0.00     0.029 A 
BRANCH  21  25
HETATM   25  C   UNL     1       7.103  23.891  54.944  1.00  0.00     0.117 A 
HETATM   26  N   UNL     1       7.648  23.202  53.909  1.00  0.00    -0.346 N 
HETATM   27  C   UNL     1       7.896  23.695  52.552  1.00  0.00     0.157 C 
HETATM   28  C   UNL     1       8.031  21.932  54.333  1.00  0.00     0.109 A 
HETATM   29  C   UNL     1       7.770  21.861  55.664  1.00  0.00     0.107 A 
HETATM   30  N   UNL     1       7.230  23.071  56.007  1.00  0.00    -0.350 N 
HETATM   31  H   UNL     1       6.900  23.309  56.936  1.00  0.00     0.166 HD
ENDBRANCH  21  25
ENDBRANCH   1  19
TORSDOF 5
ENDMDL
