MODEL 1
REMARK VINA RESULT:      -9.8      0.000      0.000
REMARK  6 active torsions:
REMARK  status: ('A' for Active; 'I' for Inactive)
REMARK    1  A    between atoms: C_7  and  C_8 
REMARK    2  A    between atoms: N_9  and  N_10 
REMARK       I    between atoms: N_10  and  C_11 
REMARK    3  A    between atoms: C_11  and  C_12 
REMARK    4  A    between atoms: C_12  and  N_13 
REMARK       I    between atoms: N_13  and  C_14 
REMARK    5  A    between atoms: C_14  and  C_15 
REMARK    6  A    between atoms: C_16  and  C_17 
ROOT
HETATM    1  N   UNL     1       7.301  27.500  55.989  1.00  0.00    -0.246 N 
HETATM    2  C   UNL     1       7.628  27.928  57.268  1.00  0.00     0.255 C 
HETATM    3  O   UNL     1       7.829  27.204  58.242  1.00  0.00    -0.270 OA
HETATM    4  H   UNL     1       7.091  28.194  55.267  1.00  0.00     0.192 HD
ENDROOT
BRANCH   1   5
HETATM    5  N   UNL     1       7.174  26.169  55.726  1.00  0.00    -0.184 NA
HETATM    6  C   UNL     1       7.898  25.719  54.754  1.00  0.00     0.153 C 
BRANCH   6   7
HETATM    7  C   UNL     1       7.839  24.312  54.397  1.00  0.00     0.018 A 
HETATM    8  C   UNL     1       7.631  23.842  53.107  1.00  0.00     0.018 A 
HETATM    9  C   UNL     1       7.428  24.562  51.823  1.00  0.00     0.069 C 
HETATM   10  N   UNL     1       7.641  22.468  53.157  1.00  0.00    -0.358 N 
HETATM   11  H   UNL     1       7.515  21.855  52.364  1.00  0.00     0.166 HD
HETATM   12  C   UNL     1       7.848  22.030  54.442  1.00  0.00     0.043 A 
HETATM   13  C   UNL     1       7.978  23.162  55.246  1.00  0.00     0.004 A 
HETATM   14  C   UNL     1       7.932  20.725  54.943  1.00  0.00     0.030 A 
HETATM   15  C   UNL     1       8.202  22.971  56.628  1.00  0.00     0.014 A 
HETATM   16  C   UNL     1       8.287  21.675  57.147  1.00  0.00     0.001 A 
HETATM   17  C   UNL     1       8.154  20.568  56.314  1.00  0.00     0.002 A 
ENDBRANCH   6   7
ENDBRANCH   1   5
BRANCH   2  18
HETATM   18  C   UNL     1       7.756  29.447  57.366  1.00  0.00     0.227 C 
BRANCH  18  19
HETATM   19  N   UNL     1       7.535  29.935  58.718  1.00  0.00    -0.349 N 
HETATM   20  C   UNL     1       8.482  30.671  59.378  1.00  0.00     0.241 C 
HETATM   21  O   UNL     1       9.530  31.034  58.856  1.00  0.00    -0.269 OA
HETATM   22  H   UNL     1       6.635  29.752  59.140  1.00  0.00     0.163 HD
BRANCH  20  23
HETATM   23  C   UNL     1       8.095  31.013  60.767  1.00  0.00     0.075 C 
HETATM   24  C   UNL     1       7.392  32.130  61.007  1.00  0.00     0.017 C 
BRANCH  24  25
HETATM   25  C   UNL     1       6.952  32.570  62.341  1.00  0.00    -0.036 A 
HETATM   26  C   UNL     1       5.601  32.719  62.684  1.00  0.00     0.011 A 
HETATM   27  C   UNL     1       5.233  33.115  63.973  1.00  0.00     0.001 A 
HETATM   28  C   UNL     1       6.210  33.351  64.938  1.00  0.00     0.000 A 
HETATM   29  C   UNL     1       7.554  33.187  64.616  1.00  0.00     0.001 A 
HETATM   30  C   UNL     1       7.923  32.794  63.326  1.00  0.00     0.011 A 
ENDBRANCH  24  25
ENDBRANCH  20  23
ENDBRANCH  18  19
ENDBRANCH   2  18
TORSDOF 6
ENDMDL
MODEL 2
REMARK VINA RESULT:      -9.7      2.809     10.268
REMARK  6 active torsions:
REMARK  status: ('A' for Active; 'I' for Inactive)
REMARK    1  A    between atoms: C_7  and  C_8 
REMARK    2  A    between atoms: N_9  and  N_10 
REMARK       I    between atoms: N_10  and  C_11 
REMARK    3  A    between atoms: C_11  and  C_12 
REMARK    4  A    between atoms: C_12  and  N_13 
REMARK       I    between atoms: N_13  and  C_14 
REMARK    5  A    between atoms: C_14  and  C_15 
REMARK    6  A    between atoms: C_16  and  C_17 
ROOT
HETATM    1  N   UNL     1       6.138  29.058  55.004  1.00  0.00    -0.246 N 
HETATM    2  C   UNL     1       4.754  28.963  55.000  1.00  0.00     0.255 C 
HETATM    3  O   UNL     1       3.988  29.562  55.753  1.00  0.00    -0.270 OA
HETATM    4  H   UNL     1       6.683  28.463  54.374  1.00  0.00     0.192 HD
ENDROOT
BRANCH   1   5
HETATM    5  N   UNL     1       6.765  29.869  55.903  1.00  0.00    -0.184 NA
HETATM    6  C   UNL     1       7.744  29.331  56.555  1.00  0.00     0.153 C 
BRANCH   6   7
HETATM    7  C   UNL     1       8.480  30.113  57.533  1.00  0.00     0.018 A 
HETATM    8  C   UNL     1       9.866  30.168  57.606  1.00  0.00     0.018 A 
HETATM    9  C   UNL     1      10.916  29.510  56.786  1.00  0.00     0.069 C 
HETATM   10  N   UNL     1      10.196  31.005  58.645  1.00  0.00    -0.358 N 
HETATM   11  H   UNL     1      11.137  31.235  58.932  1.00  0.00     0.166 HD
HETATM   12  C   UNL     1       9.066  31.497  59.251  1.00  0.00     0.043 A 
HETATM   13  C   UNL     1       7.971  30.958  58.577  1.00  0.00     0.004 A 
HETATM   14  C   UNL     1       8.938  32.373  60.336  1.00  0.00     0.030 A 
HETATM   15  C   UNL     1       6.678  31.318  59.018  1.00  0.00     0.014 A 
HETATM   16  C   UNL     1       6.530  32.192  60.101  1.00  0.00     0.001 A 
HETATM   17  C   UNL     1       7.646  32.712  60.749  1.00  0.00     0.002 A 
ENDBRANCH   6   7
ENDBRANCH   1   5
BRANCH   2  18
HETATM   18  C   UNL     1       4.231  28.033  53.907  1.00  0.00     0.227 C 
BRANCH  18  19
HETATM   19  N   UNL     1       4.696  26.665  54.075  1.00  0.00    -0.349 N 
HETATM   20  C   UNL     1       5.497  26.061  53.145  1.00  0.00     0.241 C 
HETATM   21  O   UNL     1       5.940  26.647  52.162  1.00  0.00    -0.269 OA
HETATM   22  H   UNL     1       4.444  26.187  54.930  1.00  0.00     0.163 HD
BRANCH  20  23
HETATM   23  C   UNL     1       5.804  24.647  53.464  1.00  0.00     0.075 C 
HETATM   24  C   UNL     1       7.074  24.273  53.679  1.00  0.00     0.017 C 
BRANCH  24  25
HETATM   25  C   UNL     1       7.497  22.901  54.004  1.00  0.00    -0.036 A 
HETATM   26  C   UNL     1       7.503  22.398  55.313  1.00  0.00     0.011 A 
HETATM   27  C   UNL     1       7.889  21.080  55.568  1.00  0.00     0.001 A 
HETATM   28  C   UNL     1       8.258  20.244  54.516  1.00  0.00     0.000 A 
HETATM   29  C   UNL     1       8.238  20.724  53.210  1.00  0.00     0.001 A 
HETATM   30  C   UNL     1       7.854  22.044  52.955  1.00  0.00     0.011 A 
ENDBRANCH  24  25
ENDBRANCH  20  23
ENDBRANCH  18  19
ENDBRANCH   2  18
TORSDOF 6
ENDMDL
MODEL 3
REMARK VINA RESULT:      -9.5      1.976     11.005
REMARK  6 active torsions:
REMARK  status: ('A' for Active; 'I' for Inactive)
REMARK    1  A    between atoms: C_7  and  C_8 
REMARK    2  A    between atoms: N_9  and  N_10 
REMARK       I    between atoms: N_10  and  C_11 
REMARK    3  A    between atoms: C_11  and  C_12 
REMARK    4  A    between atoms: C_12  and  N_13 
REMARK       I    between atoms: N_13  and  C_14 
REMARK    5  A    between atoms: C_14  and  C_15 
REMARK    6  A    between atoms: C_16  and  C_17 
ROOT
HETATM    1  N   UNL     1       6.876  30.160  57.233  1.00  0.00    -0.246 N 
HETATM    2  C   UNL     1       7.476  28.924  57.035  1.00  0.00     0.255 C 
HETATM    3  O   UNL     1       7.821  28.140  57.918  1.00  0.00    -0.270 OA
HETATM    4  H   UNL     1       6.689  30.761  56.426  1.00  0.00     0.192 HD
ENDROOT
BRANCH   1   5
HETATM    5  N   UNL     1       6.624  30.602  58.497  1.00  0.00    -0.184 NA
HETATM    6  C   UNL     1       6.315  31.853  58.601  1.00  0.00     0.153 C 
BRANCH   6   7
HETATM    7  C   UNL     1       6.023  32.422  59.906  1.00  0.00     0.018 A 
HETATM    8  C   UNL     1       4.850  33.097  60.219  1.00  0.00     0.018 A 
HETATM    9  C   UNL     1       3.652  33.410  59.398  1.00  0.00     0.069 C 
HETATM   10  N   UNL     1       4.931  33.483  61.535  1.00  0.00    -0.358 N 
HETATM   11  H   UNL     1       4.217  33.992  62.038  1.00  0.00     0.166 HD
HETATM   12  C   UNL     1       6.121  33.081  62.089  1.00  0.00     0.043 A 
HETATM   13  C   UNL     1       6.831  32.411  61.093  1.00  0.00     0.004 A 
HETATM   14  C   UNL     1       6.614  33.260  63.388  1.00  0.00     0.030 A 
HETATM   15  C   UNL     1       8.105  31.894  61.420  1.00  0.00     0.014 A 
HETATM   16  C   UNL     1       8.614  32.063  62.713  1.00  0.00     0.001 A 
HETATM   17  C   UNL     1       7.876  32.737  63.681  1.00  0.00     0.002 A 
ENDBRANCH   6   7
ENDBRANCH   1   5
BRANCH   2  18
HETATM   18  C   UNL     1       7.651  28.585  55.556  1.00  0.00     0.227 C 
BRANCH  18  19
HETATM   19  N   UNL     1       7.507  27.162  55.294  1.00  0.00    -0.349 N 
HETATM   20  C   UNL     1       6.292  26.607  54.999  1.00  0.00     0.241 C 
HETATM   21  O   UNL     1       5.270  27.271  54.856  1.00  0.00    -0.269 OA
HETATM   22  H   UNL     1       8.348  26.600  55.291  1.00  0.00     0.163 HD
BRANCH  20  23
HETATM   23  C   UNL     1       6.343  25.135  54.834  1.00  0.00     0.075 C 
HETATM   24  C   UNL     1       7.518  24.532  54.601  1.00  0.00     0.017 C 
BRANCH  24  25
HETATM   25  C   UNL     1       7.690  23.081  54.422  1.00  0.00    -0.036 A 
HETATM   26  C   UNL     1       7.919  22.492  53.171  1.00  0.00     0.011 A 
HETATM   27  C   UNL     1       8.102  21.111  53.056  1.00  0.00     0.001 A 
HETATM   28  C   UNL     1       8.075  20.305  54.192  1.00  0.00     0.000 A 
HETATM   29  C   UNL     1       7.868  20.879  55.443  1.00  0.00     0.001 A 
HETATM   30  C   UNL     1       7.682  22.260  55.558  1.00  0.00     0.011 A 
ENDBRANCH  24  25
ENDBRANCH  20  23
ENDBRANCH  18  19
ENDBRANCH   2  18
TORSDOF 6
ENDMDL
MODEL 4
REMARK VINA RESULT:      -9.5      1.666     11.180
REMARK  6 active torsions:
REMARK  status: ('A' for Active; 'I' for Inactive)
REMARK    1  A    between atoms: C_7  and  C_8 
REMARK    2  A    between atoms: N_9  and  N_10 
REMARK       I    between atoms: N_10  and  C_11 
REMARK    3  A    between atoms: C_11  and  C_12 
REMARK    4  A    between atoms: C_12  and  N_13 
REMARK       I    between atoms: N_13  and  C_14 
REMARK    5  A    between atoms: C_14  and  C_15 
REMARK    6  A    between atoms: C_16  and  C_17 
ROOT
HETATM    1  N   UNL     1       7.667  30.087  57.866  1.00  0.00    -0.246 N 
HETATM    2  C   UNL     1       7.767  28.766  57.455  1.00  0.00     0.255 C 
HETATM    3  O   UNL     1       7.892  27.789  58.191  1.00  0.00    -0.270 OA
HETATM    4  H   UNL     1       7.631  30.829  57.162  1.00  0.00     0.192 HD
ENDROOT
BRANCH   1   5
HETATM    5  N   UNL     1       7.708  30.395  59.193  1.00  0.00    -0.184 NA
HETATM    6  C   UNL     1       7.427  31.621  59.493  1.00  0.00     0.153 C 
BRANCH   6   7
HETATM    7  C   UNL     1       7.438  32.049  60.880  1.00  0.00     0.018 A 
HETATM    8  C   UNL     1       8.581  32.123  61.667  1.00  0.00     0.018 A 
HETATM    9  C   UNL     1      10.002  31.818  61.358  1.00  0.00     0.069 C 
HETATM   10  N   UNL     1       8.203  32.568  62.911  1.00  0.00    -0.358 N 
HETATM   11  H   UNL     1       8.828  32.719  63.690  1.00  0.00     0.166 HD
HETATM   12  C   UNL     1       6.848  32.786  62.959  1.00  0.00     0.043 A 
HETATM   13  C   UNL     1       6.337  32.471  61.700  1.00  0.00     0.004 A 
HETATM   14  C   UNL     1       6.048  33.237  64.016  1.00  0.00     0.030 A 
HETATM   15  C   UNL     1       4.946  32.616  61.495  1.00  0.00     0.014 A 
HETATM   16  C   UNL     1       4.131  33.065  62.540  1.00  0.00     0.001 A 
HETATM   17  C   UNL     1       4.677  33.371  63.782  1.00  0.00     0.002 A 
ENDBRANCH   6   7
ENDBRANCH   1   5
BRANCH   2  18
HETATM   18  C   UNL     1       7.671  28.612  55.938  1.00  0.00     0.227 C 
BRANCH  18  19
HETATM   19  N   UNL     1       7.515  27.225  55.531  1.00  0.00    -0.349 N 
HETATM   20  C   UNL     1       6.299  26.719  55.160  1.00  0.00     0.241 C 
HETATM   21  O   UNL     1       5.289  27.408  55.067  1.00  0.00    -0.269 OA
HETATM   22  H   UNL     1       8.349  26.655  55.486  1.00  0.00     0.163 HD
BRANCH  20  23
HETATM   23  C   UNL     1       6.336  25.271  54.848  1.00  0.00     0.075 C 
HETATM   24  C   UNL     1       7.517  24.642  54.742  1.00  0.00     0.017 C 
BRANCH  24  25
HETATM   25  C   UNL     1       7.676  23.211  54.439  1.00  0.00    -0.036 A 
HETATM   26  C   UNL     1       7.945  22.734  53.148  1.00  0.00     0.011 A 
HETATM   27  C   UNL     1       8.114  21.366  52.915  1.00  0.00     0.001 A 
HETATM   28  C   UNL     1       8.031  20.461  53.970  1.00  0.00     0.000 A 
HETATM   29  C   UNL     1       7.784  20.923  55.260  1.00  0.00     0.001 A 
HETATM   30  C   UNL     1       7.612  22.291  55.493  1.00  0.00     0.011 A 
ENDBRANCH  24  25
ENDBRANCH  20  23
ENDBRANCH  18  19
ENDBRANCH   2  18
TORSDOF 6
ENDMDL
MODEL 5
REMARK VINA RESULT:      -9.3      2.484     10.774
REMARK  6 active torsions:
REMARK  status: ('A' for Active; 'I' for Inactive)
REMARK    1  A    between atoms: C_7  and  C_8 
REMARK    2  A    between atoms: N_9  and  N_10 
REMARK       I    between atoms: N_10  and  C_11 
REMARK    3  A    between atoms: C_11  and  C_12 
REMARK    4  A    between atoms: C_12  and  N_13 
REMARK       I    between atoms: N_13  and  C_14 
REMARK    5  A    between atoms: C_14  and  C_15 
REMARK    6  A    between atoms: C_16  and  C_17 
ROOT
HETATM    1  N   UNL     1       4.986  29.393  56.260  1.00  0.00    -0.246 N 
HETATM    2  C   UNL     1       5.134  28.020  56.128  1.00  0.00     0.255 C 
HETATM    3  O   UNL     1       5.382  27.230  57.038  1.00  0.00    -0.270 OA
HETATM    4  H   UNL     1       4.843  29.964  55.423  1.00  0.00     0.192 HD
ENDROOT
BRANCH   1   5
HETATM    5  N   UNL     1       5.121  29.980  57.483  1.00  0.00    -0.184 NA
HETATM    6  C   UNL     1       6.023  30.903  57.564  1.00  0.00     0.153 C 
BRANCH   6   7
HETATM    7  C   UNL     1       6.243  31.594  58.823  1.00  0.00     0.018 A 
HETATM    8  C   UNL     1       5.413  32.590  59.322  1.00  0.00     0.018 A 
HETATM    9  C   UNL     1       4.169  33.192  58.777  1.00  0.00     0.069 C 
HETATM   10  N   UNL     1       5.933  33.001  60.526  1.00  0.00    -0.358 N 
HETATM   11  H   UNL     1       5.536  33.716  61.119  1.00  0.00     0.166 HD
HETATM   12  C   UNL     1       7.077  32.303  60.825  1.00  0.00     0.043 A 
HETATM   13  C   UNL     1       7.300  31.410  59.778  1.00  0.00     0.004 A 
HETATM   14  C   UNL     1       7.921  32.396  61.940  1.00  0.00     0.030 A 
HETATM   15  C   UNL     1       8.431  30.567  59.853  1.00  0.00     0.014 A 
HETATM   16  C   UNL     1       9.287  30.647  60.958  1.00  0.00     0.001 A 
HETATM   17  C   UNL     1       9.031  31.549  61.987  1.00  0.00     0.002 A 
ENDBRANCH   6   7
ENDBRANCH   1   5
BRANCH   2  18
HETATM   18  C   UNL     1       4.918  27.539  54.694  1.00  0.00     0.227 C 
BRANCH  18  19
HETATM   19  N   UNL     1       5.507  26.232  54.454  1.00  0.00    -0.349 N 
HETATM   20  C   UNL     1       5.713  25.761  53.186  1.00  0.00     0.241 C 
HETATM   21  O   UNL     1       5.497  26.430  52.181  1.00  0.00    -0.269 OA
HETATM   22  H   UNL     1       5.804  25.698  55.259  1.00  0.00     0.163 HD
BRANCH  20  23
HETATM   23  C   UNL     1       6.258  24.383  53.153  1.00  0.00     0.075 C 
HETATM   24  C   UNL     1       6.973  23.925  54.190  1.00  0.00     0.017 C 
BRANCH  24  25
HETATM   25  C   UNL     1       7.560  22.577  54.269  1.00  0.00    -0.036 A 
HETATM   26  C   UNL     1       7.743  21.898  55.482  1.00  0.00     0.011 A 
HETATM   27  C   UNL     1       8.282  20.609  55.503  1.00  0.00     0.001 A 
HETATM   28  C   UNL     1       8.630  19.977  54.311  1.00  0.00     0.000 A 
HETATM   29  C   UNL     1       8.435  20.631  53.099  1.00  0.00     0.001 A 
HETATM   30  C   UNL     1       7.899  21.922  53.078  1.00  0.00     0.011 A 
ENDBRANCH  24  25
ENDBRANCH  20  23
ENDBRANCH  18  19
ENDBRANCH   2  18
TORSDOF 6
ENDMDL
MODEL 6
REMARK VINA RESULT:      -9.3      2.433      3.569
REMARK  6 active torsions:
REMARK  status: ('A' for Active; 'I' for Inactive)
REMARK    1  A    between atoms: C_7  and  C_8 
REMARK    2  A    between atoms: N_9  and  N_10 
REMARK       I    between atoms: N_10  and  C_11 
REMARK    3  A    between atoms: C_11  and  C_12 
REMARK    4  A    between atoms: C_12  and  N_13 
REMARK       I    between atoms: N_13  and  C_14 
REMARK    5  A    between atoms: C_14  and  C_15 
REMARK    6  A    between atoms: C_16  and  C_17 
ROOT
HETATM    1  N   UNL     1       6.817  29.717  57.203  1.00  0.00    -0.246 N 
HETATM    2  C   UNL     1       7.749  29.288  58.137  1.00  0.00     0.255 C 
HETATM    3  O   UNL     1       8.019  28.118  58.403  1.00  0.00    -0.270 OA
HETATM    4  H   UNL     1       6.626  30.717  57.108  1.00  0.00     0.192 HD
ENDROOT
BRANCH   1   5
HETATM    5  N   UNL     1       6.101  28.805  56.486  1.00  0.00    -0.184 NA
HETATM    6  C   UNL     1       6.391  28.729  55.228  1.00  0.00     0.153 C 
BRANCH   6   7
HETATM    7  C   UNL     1       5.688  27.785  54.377  1.00  0.00     0.018 A 
HETATM    8  C   UNL     1       4.442  28.023  53.808  1.00  0.00     0.018 A 
HETATM    9  C   UNL     1       3.539  29.200  53.888  1.00  0.00     0.069 C 
HETATM   10  N   UNL     1       4.102  26.914  53.072  1.00  0.00    -0.358 N 
HETATM   11  H   UNL     1       3.247  26.804  52.545  1.00  0.00     0.166 HD
HETATM   12  C   UNL     1       5.088  25.961  53.144  1.00  0.00     0.043 A 
HETATM   13  C   UNL     1       6.099  26.476  53.954  1.00  0.00     0.004 A 
HETATM   14  C   UNL     1       5.156  24.693  52.552  1.00  0.00     0.030 A 
HETATM   15  C   UNL     1       7.238  25.673  54.184  1.00  0.00     0.014 A 
HETATM   16  C   UNL     1       7.324  24.403  53.603  1.00  0.00     0.001 A 
HETATM   17  C   UNL     1       6.296  23.922  52.797  1.00  0.00     0.002 A 
ENDBRANCH   6   7
ENDBRANCH   1   5
BRANCH   2  18
HETATM   18  C   UNL     1       8.474  30.448  58.819  1.00  0.00     0.227 C 
BRANCH  18  19
HETATM   19  N   UNL     1       7.742  30.959  59.967  1.00  0.00    -0.349 N 
HETATM   20  C   UNL     1       6.879  32.015  59.854  1.00  0.00     0.241 C 
HETATM   21  O   UNL     1       6.603  32.541  58.781  1.00  0.00    -0.269 OA
HETATM   22  H   UNL     1       7.858  30.477  60.848  1.00  0.00     0.163 HD
BRANCH  20  23
HETATM   23  C   UNL     1       6.286  32.429  61.147  1.00  0.00     0.075 C 
HETATM   24  C   UNL     1       7.086  32.715  62.186  1.00  0.00     0.017 C 
BRANCH  24  25
HETATM   25  C   UNL     1       6.612  33.137  63.514  1.00  0.00    -0.036 A 
HETATM   26  C   UNL     1       7.483  33.434  64.571  1.00  0.00     0.011 A 
HETATM   27  C   UNL     1       6.984  33.856  65.807  1.00  0.00     0.001 A 
HETATM   28  C   UNL     1       5.612  34.001  65.996  1.00  0.00     0.000 A 
HETATM   29  C   UNL     1       4.737  33.728  64.948  1.00  0.00     0.001 A 
HETATM   30  C   UNL     1       5.235  33.303  63.713  1.00  0.00     0.011 A 
ENDBRANCH  24  25
ENDBRANCH  20  23
ENDBRANCH  18  19
ENDBRANCH   2  18
TORSDOF 6
ENDMDL
MODEL 7
REMARK VINA RESULT:      -9.1      6.539     11.296
REMARK  6 active torsions:
REMARK  status: ('A' for Active; 'I' for Inactive)
REMARK    1  A    between atoms: C_7  and  C_8 
REMARK    2  A    between atoms: N_9  and  N_10 
REMARK       I    between atoms: N_10  and  C_11 
REMARK    3  A    between atoms: C_11  and  C_12 
REMARK    4  A    between atoms: C_12  and  N_13 
REMARK       I    between atoms: N_13  and  C_14 
REMARK    5  A    between atoms: C_14  and  C_15 
REMARK    6  A    between atoms: C_16  and  C_17 
ROOT
HETATM    1  N   UNL     1       5.940  26.068  50.873  1.00  0.00    -0.246 N 
HETATM    2  C   UNL     1       5.450  27.358  51.013  1.00  0.00     0.255 C 
HETATM    3  O   UNL     1       5.012  27.855  52.050  1.00  0.00    -0.270 OA
HETATM    4  H   UNL     1       6.221  25.736  49.947  1.00  0.00     0.192 HD
ENDROOT
BRANCH   1   5
HETATM    5  N   UNL     1       5.962  25.225  51.945  1.00  0.00    -0.184 NA
HETATM    6  C   UNL     1       7.084  25.160  52.583  1.00  0.00     0.153 C 
BRANCH   6   7
HETATM    7  C   UNL     1       7.208  24.294  53.743  1.00  0.00     0.018 A 
HETATM    8  C   UNL     1       6.976  24.701  55.051  1.00  0.00     0.018 A 
HETATM    9  C   UNL     1       6.567  26.017  55.608  1.00  0.00     0.069 C 
HETATM   10  N   UNL     1       7.188  23.618  55.869  1.00  0.00    -0.358 N 
HETATM   11  H   UNL     1       7.090  23.619  56.875  1.00  0.00     0.166 HD
HETATM   12  C   UNL     1       7.552  22.517  55.133  1.00  0.00     0.043 A 
HETATM   13  C   UNL     1       7.573  22.906  53.795  1.00  0.00     0.004 A 
HETATM   14  C   UNL     1       7.858  21.216  55.555  1.00  0.00     0.030 A 
HETATM   15  C   UNL     1       7.923  21.937  52.828  1.00  0.00     0.014 A 
HETATM   16  C   UNL     1       8.233  20.632  53.230  1.00  0.00     0.001 A 
HETATM   17  C   UNL     1       8.199  20.280  54.575  1.00  0.00     0.002 A 
ENDBRANCH   6   7
ENDBRANCH   1   5
BRANCH   2  18
HETATM   18  C   UNL     1       5.533  28.163  49.718  1.00  0.00     0.227 C 
BRANCH  18  19
HETATM   19  N   UNL     1       4.302  28.101  48.947  1.00  0.00    -0.349 N 
HETATM   20  C   UNL     1       4.153  27.229  47.903  1.00  0.00     0.241 C 
HETATM   21  O   UNL     1       5.001  26.396  47.602  1.00  0.00    -0.269 OA
HETATM   22  H   UNL     1       3.537  28.695  49.239  1.00  0.00     0.163 HD
BRANCH  20  23
HETATM   23  C   UNL     1       2.854  27.368  47.203  1.00  0.00     0.075 C 
HETATM   24  C   UNL     1       2.130  28.486  47.358  1.00  0.00     0.017 C 
BRANCH  24  25
HETATM   25  C   UNL     1       0.830  28.735  46.714  1.00  0.00    -0.036 A 
HETATM   26  C   UNL     1       0.241  30.006  46.661  1.00  0.00     0.011 A 
HETATM   27  C   UNL     1      -0.984  30.197  46.014  1.00  0.00     0.001 A 
HETATM   28  C   UNL     1      -1.625  29.124  45.400  1.00  0.00     0.000 A 
HETATM   29  C   UNL     1      -1.041  27.860  45.428  1.00  0.00     0.001 A 
HETATM   30  C   UNL     1       0.182  27.669  46.077  1.00  0.00     0.011 A 
ENDBRANCH  24  25
ENDBRANCH  20  23
ENDBRANCH  18  19
ENDBRANCH   2  18
TORSDOF 6
ENDMDL
MODEL 8
REMARK VINA RESULT:      -9.0      2.767     11.584
REMARK  6 active torsions:
REMARK  status: ('A' for Active; 'I' for Inactive)
REMARK    1  A    between atoms: C_7  and  C_8 
REMARK    2  A    between atoms: N_9  and  N_10 
REMARK       I    between atoms: N_10  and  C_11 
REMARK    3  A    between atoms: C_11  and  C_12 
REMARK    4  A    between atoms: C_12  and  N_13 
REMARK       I    between atoms: N_13  and  C_14 
REMARK    5  A    between atoms: C_14  and  C_15 
REMARK    6  A    between atoms: C_16  and  C_17 
ROOT
HETATM    1  N   UNL     1       6.882  31.727  60.892  1.00  0.00    -0.246 N 
HETATM    2  C   UNL     1       8.143  31.166  61.036  1.00  0.00     0.255 C 
HETATM    3  O   UNL     1       8.670  30.839  62.098  1.00  0.00    -0.270 OA
HETATM    4  H   UNL     1       6.568  32.022  59.964  1.00  0.00     0.192 HD
ENDROOT
BRANCH   1   5
HETATM    5  N   UNL     1       6.111  31.965  61.991  1.00  0.00    -0.184 NA
HETATM    6  C   UNL     1       5.969  33.208  62.316  1.00  0.00     0.153 C 
BRANCH   6   7
HETATM    7  C   UNL     1       5.162  33.568  63.469  1.00  0.00     0.018 A 
HETATM    8  C   UNL     1       3.786  33.755  63.432  1.00  0.00     0.018 A 
HETATM    9  C   UNL     1       2.815  33.653  62.312  1.00  0.00     0.069 C 
HETATM   10  N   UNL     1       3.375  34.081  64.702  1.00  0.00    -0.358 N 
HETATM   11  H   UNL     1       2.421  34.271  64.975  1.00  0.00     0.166 HD
HETATM   12  C   UNL     1       4.442  34.111  65.566  1.00  0.00     0.043 A 
HETATM   13  C   UNL     1       5.580  33.793  64.825  1.00  0.00     0.004 A 
HETATM   14  C   UNL     1       4.480  34.393  66.937  1.00  0.00     0.030 A 
HETATM   15  C   UNL     1       6.821  33.758  65.498  1.00  0.00     0.014 A 
HETATM   16  C   UNL     1       6.879  34.038  66.868  1.00  0.00     0.001 A 
HETATM   17  C   UNL     1       5.722  34.350  67.576  1.00  0.00     0.002 A 
ENDBRANCH   6   7
ENDBRANCH   1   5
BRANCH   2  18
HETATM   18  C   UNL     1       8.846  30.946  59.698  1.00  0.00     0.227 C 
BRANCH  18  19
HETATM   19  N   UNL     1       8.456  29.695  59.068  1.00  0.00    -0.349 N 
HETATM   20  C   UNL     1       7.445  29.640  58.147  1.00  0.00     0.241 C 
HETATM   21  O   UNL     1       6.862  30.637  57.734  1.00  0.00    -0.269 OA
HETATM   22  H   UNL     1       8.991  28.868  59.299  1.00  0.00     0.163 HD
BRANCH  20  23
HETATM   23  C   UNL     1       7.154  28.266  57.675  1.00  0.00     0.075 C 
HETATM   24  C   UNL     1       8.143  27.511  57.174  1.00  0.00     0.017 C 
BRANCH  24  25
HETATM   25  C   UNL     1       7.973  26.135  56.678  1.00  0.00    -0.036 A 
HETATM   26  C   UNL     1       7.351  25.840  55.457  1.00  0.00     0.011 A 
HETATM   27  C   UNL     1       7.237  24.518  55.016  1.00  0.00     0.001 A 
HETATM   28  C   UNL     1       7.757  23.478  55.784  1.00  0.00     0.000 A 
HETATM   29  C   UNL     1       8.394  23.759  56.989  1.00  0.00     0.001 A 
HETATM   30  C   UNL     1       8.506  25.080  57.431  1.00  0.00     0.011 A 
ENDBRANCH  24  25
ENDBRANCH  20  23
ENDBRANCH  18  19
ENDBRANCH   2  18
TORSDOF 6
ENDMDL
MODEL 9
REMARK VINA RESULT:      -9.0      2.024      3.186
REMARK  6 active torsions:
REMARK  status: ('A' for Active; 'I' for Inactive)
REMARK    1  A    between atoms: C_7  and  C_8 
REMARK    2  A    between atoms: N_9  and  N_10 
REMARK       I    between atoms: N_10  and  C_11 
REMARK    3  A    between atoms: C_11  and  C_12 
REMARK    4  A    between atoms: C_12  and  N_13 
REMARK       I    between atoms: N_13  and  C_14 
REMARK    5  A    between atoms: C_14  and  C_15 
REMARK    6  A    between atoms: C_16  and  C_17 
ROOT
HETATM    1  N   UNL     1       6.329  26.850  54.490  1.00  0.00    -0.246 N 
HETATM    2  C   UNL     1       5.395  27.495  55.288  1.00  0.00     0.255 C 
HETATM    3  O   UNL     1       4.740  26.980  56.192  1.00  0.00    -0.270 OA
HETATM    4  H   UNL     1       6.770  27.362  53.722  1.00  0.00     0.192 HD
ENDROOT
BRANCH   1   5
HETATM    5  N   UNL     1       6.584  25.524  54.673  1.00  0.00    -0.184 NA
HETATM    6  C   UNL     1       7.732  25.242  55.196  1.00  0.00     0.153 C 
BRANCH   6   7
HETATM    7  C   UNL     1       8.098  23.857  55.437  1.00  0.00     0.018 A 
HETATM    8  C   UNL     1       8.523  23.363  56.664  1.00  0.00     0.018 A 
HETATM    9  C   UNL     1       8.712  24.034  57.976  1.00  0.00     0.069 C 
HETATM   10  N   UNL     1       8.774  22.021  56.509  1.00  0.00    -0.358 N 
HETATM   11  H   UNL     1       9.095  21.400  57.239  1.00  0.00     0.166 HD
HETATM   12  C   UNL     1       8.526  21.626  55.218  1.00  0.00     0.043 A 
HETATM   13  C   UNL     1       8.099  22.753  54.518  1.00  0.00     0.004 A 
HETATM   14  C   UNL     1       8.646  20.361  54.627  1.00  0.00     0.030 A 
HETATM   15  C   UNL     1       7.778  22.603  53.150  1.00  0.00     0.014 A 
HETATM   16  C   UNL     1       7.893  21.347  52.542  1.00  0.00     0.001 A 
HETATM   17  C   UNL     1       8.320  20.243  53.273  1.00  0.00     0.002 A 
ENDBRANCH   6   7
ENDBRANCH   1   5
BRANCH   2  18
HETATM   18  C   UNL     1       5.265  28.982  54.958  1.00  0.00     0.227 C 
BRANCH  18  19
HETATM   19  N   UNL     1       5.672  29.832  56.066  1.00  0.00    -0.349 N 
HETATM   20  C   UNL     1       6.964  29.851  56.518  1.00  0.00     0.241 C 
HETATM   21  O   UNL     1       7.871  29.227  55.977  1.00  0.00    -0.269 OA
HETATM   22  H   UNL     1       4.975  30.447  56.464  1.00  0.00     0.163 HD
BRANCH  20  23
HETATM   23  C   UNL     1       7.160  30.728  57.696  1.00  0.00     0.075 C 
HETATM   24  C   UNL     1       7.740  30.238  58.801  1.00  0.00     0.017 C 
BRANCH  24  25
HETATM   25  C   UNL     1       7.988  31.013  60.028  1.00  0.00    -0.036 A 
HETATM   26  C   UNL     1       7.046  31.898  60.570  1.00  0.00     0.011 A 
HETATM   27  C   UNL     1       7.318  32.592  61.752  1.00  0.00     0.001 A 
HETATM   28  C   UNL     1       8.529  32.399  62.414  1.00  0.00     0.000 A 
HETATM   29  C   UNL     1       9.465  31.509  61.897  1.00  0.00     0.001 A 
HETATM   30  C   UNL     1       9.194  30.816  60.713  1.00  0.00     0.011 A 
ENDBRANCH  24  25
ENDBRANCH  20  23
ENDBRANCH  18  19
ENDBRANCH   2  18
TORSDOF 6
ENDMDL
MODEL 10
REMARK VINA RESULT:      -8.8      2.101      2.343
REMARK  6 active torsions:
REMARK  status: ('A' for Active; 'I' for Inactive)
REMARK    1  A    between atoms: C_7  and  C_8 
REMARK    2  A    between atoms: N_9  and  N_10 
REMARK       I    between atoms: N_10  and  C_11 
REMARK    3  A    between atoms: C_11  and  C_12 
REMARK    4  A    between atoms: C_12  and  N_13 
REMARK       I    between atoms: N_13  and  C_14 
REMARK    5  A    between atoms: C_14  and  C_15 
REMARK    6  A    between atoms: C_16  and  C_17 
ROOT
HETATM    1  N   UNL     1       6.005  28.901  55.592  1.00  0.00    -0.246 N 
HETATM    2  C   UNL     1       6.089  29.361  56.898  1.00  0.00     0.255 C 
HETATM    3  O   UNL     1       6.643  28.784  57.832  1.00  0.00    -0.270 OA
HETATM    4  H   UNL     1       5.463  29.433  54.907  1.00  0.00     0.192 HD
ENDROOT
BRANCH   1   5
HETATM    5  N   UNL     1       6.565  27.705  55.252  1.00  0.00    -0.184 NA
HETATM    6  C   UNL     1       5.732  26.761  54.956  1.00  0.00     0.153 C 
BRANCH   6   7
HETATM    7  C   UNL     1       6.228  25.450  54.576  1.00  0.00     0.018 A 
HETATM    8  C   UNL     1       5.953  24.833  53.361  1.00  0.00     0.018 A 
HETATM    9  C   UNL     1       5.149  25.282  52.196  1.00  0.00     0.069 C 
HETATM   10  N   UNL     1       6.590  23.616  53.359  1.00  0.00    -0.358 N 
HETATM   11  H   UNL     1       6.569  22.948  52.601  1.00  0.00     0.166 HD
HETATM   12  C   UNL     1       7.272  23.421  54.535  1.00  0.00     0.043 A 
HETATM   13  C   UNL     1       7.066  24.554  55.321  1.00  0.00     0.004 A 
HETATM   14  C   UNL     1       8.049  22.333  54.953  1.00  0.00     0.030 A 
HETATM   15  C   UNL     1       7.674  24.596  56.597  1.00  0.00     0.014 A 
HETATM   16  C   UNL     1       8.453  23.518  57.032  1.00  0.00     0.001 A 
HETATM   17  C   UNL     1       8.637  22.404  56.219  1.00  0.00     0.002 A 
ENDBRANCH   6   7
ENDBRANCH   1   5
BRANCH   2  18
HETATM   18  C   UNL     1       5.433  30.728  57.084  1.00  0.00     0.227 C 
BRANCH  18  19
HETATM   19  N   UNL     1       5.510  31.197  58.458  1.00  0.00    -0.349 N 
HETATM   20  C   UNL     1       4.479  31.884  59.040  1.00  0.00     0.241 C 
HETATM   21  O   UNL     1       3.405  32.078  58.480  1.00  0.00    -0.269 OA
HETATM   22  H   UNL     1       6.336  30.957  58.989  1.00  0.00     0.163 HD
BRANCH  20  23
HETATM   23  C   UNL     1       4.778  32.334  60.419  1.00  0.00     0.075 C 
HETATM   24  C   UNL     1       6.028  32.692  60.747  1.00  0.00     0.017 C 
BRANCH  24  25
HETATM   25  C   UNL     1       6.442  33.156  62.081  1.00  0.00    -0.036 A 
HETATM   26  C   UNL     1       5.812  34.218  62.745  1.00  0.00     0.011 A 
HETATM   27  C   UNL     1       6.225  34.605  64.023  1.00  0.00     0.001 A 
HETATM   28  C   UNL     1       7.261  33.925  64.659  1.00  0.00     0.000 A 
HETATM   29  C   UNL     1       7.882  32.856  64.019  1.00  0.00     0.001 A 
HETATM   30  C   UNL     1       7.471  32.471  62.740  1.00  0.00     0.011 A 
ENDBRANCH  24  25
ENDBRANCH  20  23
ENDBRANCH  18  19
ENDBRANCH   2  18
TORSDOF 6
ENDMDL
