MODEL 1
REMARK VINA RESULT:     -11.8      0.000      0.000
REMARK  7 active torsions:
REMARK  status: ('A' for Active; 'I' for Inactive)
REMARK    1  A    between atoms: C_4  and  N_5 
REMARK    2  A    between atoms: C_11  and  C_12 
REMARK    3  A    between atoms: C_12  and  C_13 
REMARK    4  A    between atoms: C_13  and  C_14 
REMARK       I    between atoms: C_14  and  N_15 
REMARK    5  A    between atoms: N_15  and  C_16 
REMARK    6  A    between atoms: N_19  and  C_21 
REMARK    7  A    between atoms: C_21  and  C_22 
ROOT
HETATM    1  C   UNL     1       7.347  28.644  57.695  1.00  0.00     0.110 C 
ENDROOT
BRANCH   1   2
HETATM    2  C   UNL     1       7.675  27.180  57.464  1.00  0.00     0.088 C 
BRANCH   2   3
HETATM    3  C   UNL     1       7.506  26.790  56.018  1.00  0.00     0.109 A 
HETATM    4  N   UNL     1       7.498  25.526  55.701  1.00  0.00    -0.215 NA
HETATM    5  C   UNL     1       7.356  25.302  54.362  1.00  0.00     0.170 A 
HETATM    6  N   UNL     1       7.428  24.089  53.672  1.00  0.00    -0.215 N 
HETATM    7  C   UNL     1       7.150  26.267  53.400  1.00  0.00     0.099 A 
HETATM    8  N   UNL     1       7.139  24.273  52.345  1.00  0.00    -0.177 NA
HETATM    9  C   UNL     1       7.015  25.592  52.192  1.00  0.00     0.160 A 
HETATM   10  C   UNL     1       7.119  27.647  53.776  1.00  0.00     0.262 A 
HETATM   11  N   UNL     1       7.331  27.830  55.128  1.00  0.00    -0.311 N 
HETATM   12  O   UNL     1       6.928  28.576  53.005  1.00  0.00    -0.267 OA
HETATM   13  H   UNL     1       7.342  28.796  55.425  1.00  0.00     0.170 HD
BRANCH   6  14
HETATM   14  C   UNL     1       7.761  22.783  54.146  1.00  0.00     0.060 A 
HETATM   15  C   UNL     1       7.529  22.471  55.497  1.00  0.00     0.031 A 
HETATM   16  C   UNL     1       7.809  21.194  55.990  1.00  0.00     0.002 A 
HETATM   17  C   UNL     1       8.321  20.217  55.142  1.00  0.00     0.000 A 
HETATM   18  C   UNL     1       8.552  20.514  53.800  1.00  0.00     0.002 A 
HETATM   19  C   UNL     1       8.272  21.791  53.300  1.00  0.00     0.031 A 
ENDBRANCH   6  14
ENDBRANCH   2   3
ENDBRANCH   1   2
BRANCH   1  20
HETATM   20  C   UNL     1       8.413  29.534  58.316  1.00  0.00     0.218 C 
HETATM   21  N   UNL     1       8.208  29.965  59.610  1.00  0.00    -0.356 N 
HETATM   22  H   UNL     1       7.229  30.117  59.848  1.00  0.00     0.162 HD
HETATM   23  O   UNL     1       9.474  29.705  57.721  1.00  0.00    -0.274 OA
BRANCH  21  24
HETATM   24  C   UNL     1       9.128  30.836  60.364  1.00  0.00     0.087 C 
HETATM   25  C   UNL     1       9.181  30.651  61.884  1.00  0.00     0.053 C 
HETATM   26  C   UNL     1       7.834  30.918  62.531  1.00  0.00     0.237 C 
HETATM   27  N   UNL     1       7.373  32.329  62.210  1.00  0.00    -0.067 N 
HETATM   28  H   UNL     1       8.013  32.967  62.700  1.00  0.00     0.280 HD
HETATM   29  C   UNL     1       7.413  32.649  60.731  1.00  0.00     0.237 C 
HETATM   30  C   UNL     1       8.759  32.300  60.106  1.00  0.00     0.053 C 
BRANCH  27  31
HETATM   31  C   UNL     1       5.980  32.613  62.754  1.00  0.00     0.273 C 
BRANCH  31  32
HETATM   32  C   UNL     1       5.943  33.188  64.144  1.00  0.00    -0.033 A 
HETATM   33  C   UNL     1       7.127  33.458  64.845  1.00  0.00     0.010 A 
HETATM   34  C   UNL     1       7.075  33.991  66.138  1.00  0.00     0.024 A 
HETATM   35  C   UNL     1       5.844  34.248  66.739  1.00  0.00     0.034 A 
HETATM   36 CL   UNL     1       5.787  34.901  68.328  1.00  0.00    -0.084 Cl
HETATM   37  C   UNL     1       4.661  33.980  66.057  1.00  0.00     0.024 A 
HETATM   38  C   UNL     1       4.709  33.455  64.764  1.00  0.00     0.010 A 
ENDBRANCH  31  32
ENDBRANCH  27  31
ENDBRANCH  21  24
ENDBRANCH   1  20
TORSDOF 7
ENDMDL
MODEL 2
REMARK VINA RESULT:     -11.6      3.789     11.076
REMARK  7 active torsions:
REMARK  status: ('A' for Active; 'I' for Inactive)
REMARK    1  A    between atoms: C_4  and  N_5 
REMARK    2  A    between atoms: C_11  and  C_12 
REMARK    3  A    between atoms: C_12  and  C_13 
REMARK    4  A    between atoms: C_13  and  C_14 
REMARK       I    between atoms: C_14  and  N_15 
REMARK    5  A    between atoms: N_15  and  C_16 
REMARK    6  A    between atoms: N_19  and  C_21 
REMARK    7  A    between atoms: C_21  and  C_22 
ROOT
HETATM    1  C   UNL     1       5.451  27.992  57.241  1.00  0.00     0.110 C 
ENDROOT
BRANCH   1   2
HETATM    2  C   UNL     1       6.855  27.467  57.478  1.00  0.00     0.088 C 
BRANCH   2   3
HETATM    3  C   UNL     1       7.864  28.585  57.548  1.00  0.00     0.109 A 
HETATM    4  N   UNL     1       7.920  29.318  58.624  1.00  0.00    -0.215 NA
HETATM    5  C   UNL     1       8.859  30.307  58.560  1.00  0.00     0.170 A 
HETATM    6  N   UNL     1       9.100  31.337  59.473  1.00  0.00    -0.215 N 
HETATM    7  C   UNL     1       9.749  30.508  57.528  1.00  0.00     0.099 A 
HETATM    8  N   UNL     1      10.193  32.071  59.092  1.00  0.00    -0.177 NA
HETATM    9  C   UNL     1      10.545  31.585  57.901  1.00  0.00     0.160 A 
HETATM   10  C   UNL     1       9.700  29.663  56.374  1.00  0.00     0.262 A 
HETATM   11  N   UNL     1       8.693  28.721  56.454  1.00  0.00    -0.311 N 
HETATM   12  O   UNL     1      10.452  29.747  55.414  1.00  0.00    -0.267 OA
HETATM   13  H   UNL     1       8.612  28.123  55.643  1.00  0.00     0.170 HD
BRANCH   6  14
HETATM   14  C   UNL     1       8.386  31.699  60.656  1.00  0.00     0.060 A 
HETATM   15  C   UNL     1       7.065  32.164  60.537  1.00  0.00     0.031 A 
HETATM   16  C   UNL     1       6.322  32.495  61.673  1.00  0.00     0.002 A 
HETATM   17  C   UNL     1       6.889  32.365  62.937  1.00  0.00     0.000 A 
HETATM   18  C   UNL     1       8.196  31.903  63.068  1.00  0.00     0.002 A 
HETATM   19  C   UNL     1       8.945  31.568  61.934  1.00  0.00     0.031 A 
ENDBRANCH   6  14
ENDBRANCH   2   3
ENDBRANCH   1   2
BRANCH   1  20
HETATM   20  C   UNL     1       4.987  28.192  55.805  1.00  0.00     0.218 C 
HETATM   21  N   UNL     1       5.126  27.130  54.937  1.00  0.00    -0.356 N 
HETATM   22  H   UNL     1       5.939  26.543  55.123  1.00  0.00     0.162 HD
HETATM   23  O   UNL     1       4.368  29.211  55.511  1.00  0.00    -0.274 OA
BRANCH  21  24
HETATM   24  C   UNL     1       4.738  27.146  53.515  1.00  0.00     0.087 C 
HETATM   25  C   UNL     1       4.429  25.798  52.856  1.00  0.00     0.053 C 
HETATM   26  C   UNL     1       5.629  24.870  52.882  1.00  0.00     0.237 C 
HETATM   27  N   UNL     1       6.805  25.519  52.175  1.00  0.00    -0.067 N 
HETATM   28  H   UNL     1       6.557  25.573  51.179  1.00  0.00     0.280 HD
HETATM   29  C   UNL     1       7.105  26.917  52.672  1.00  0.00     0.237 C 
HETATM   30  C   UNL     1       5.859  27.795  52.697  1.00  0.00     0.053 C 
BRANCH  27  31
HETATM   31  C   UNL     1       8.064  24.669  52.260  1.00  0.00     0.273 C 
BRANCH  31  32
HETATM   32  C   UNL     1       8.024  23.569  53.286  1.00  0.00    -0.033 A 
HETATM   33  C   UNL     1       7.891  22.227  52.900  1.00  0.00     0.010 A 
HETATM   34  C   UNL     1       7.852  21.216  53.867  1.00  0.00     0.024 A 
HETATM   35  C   UNL     1       7.938  21.539  55.220  1.00  0.00     0.034 A 
HETATM   36 CL   UNL     1       7.888  20.293  56.403  1.00  0.00    -0.084 Cl
HETATM   37  C   UNL     1       8.065  22.867  55.617  1.00  0.00     0.024 A 
HETATM   38  C   UNL     1       8.111  23.878  54.655  1.00  0.00     0.010 A 
ENDBRANCH  31  32
ENDBRANCH  27  31
ENDBRANCH  21  24
ENDBRANCH   1  20
TORSDOF 7
ENDMDL
MODEL 3
REMARK VINA RESULT:     -10.8      4.111     12.269
REMARK  7 active torsions:
REMARK  status: ('A' for Active; 'I' for Inactive)
REMARK    1  A    between atoms: C_4  and  N_5 
REMARK    2  A    between atoms: C_11  and  C_12 
REMARK    3  A    between atoms: C_12  and  C_13 
REMARK    4  A    between atoms: C_13  and  C_14 
REMARK       I    between atoms: C_14  and  N_15 
REMARK    5  A    between atoms: N_15  and  C_16 
REMARK    6  A    between atoms: N_19  and  C_21 
REMARK    7  A    between atoms: C_21  and  C_22 
ROOT
HETATM    1  C   UNL     1       8.943  30.792  61.002  1.00  0.00     0.110 C 
ENDROOT
BRANCH   1   2
HETATM    2  C   UNL     1       8.766  32.010  61.890  1.00  0.00     0.088 C 
BRANCH   2   3
HETATM    3  C   UNL     1       7.311  32.353  62.085  1.00  0.00     0.109 A 
HETATM    4  N   UNL     1       6.937  32.907  63.204  1.00  0.00    -0.215 NA
HETATM    5  C   UNL     1       5.595  33.152  63.267  1.00  0.00     0.170 A 
HETATM    6  N   UNL     1       4.847  33.617  64.352  1.00  0.00    -0.215 N 
HETATM    7  C   UNL     1       4.688  32.940  62.252  1.00  0.00     0.099 A 
HETATM    8  N   UNL     1       3.543  33.820  63.984  1.00  0.00    -0.177 NA
HETATM    9  C   UNL     1       3.457  33.371  62.732  1.00  0.00     0.160 A 
HETATM   10  C   UNL     1       5.128  32.372  61.015  1.00  0.00     0.262 A 
HETATM   11  N   UNL     1       6.478  32.080  61.020  1.00  0.00    -0.311 N 
HETATM   12  O   UNL     1       4.409  32.158  60.049  1.00  0.00    -0.267 OA
HETATM   13  H   UNL     1       6.818  31.651  60.170  1.00  0.00     0.170 HD
BRANCH   6  14
HETATM   14  C   UNL     1       5.247  33.868  65.700  1.00  0.00     0.060 A 
HETATM   15  C   UNL     1       6.617  33.966  65.996  1.00  0.00     0.031 A 
HETATM   16  C   UNL     1       7.046  34.245  67.296  1.00  0.00     0.002 A 
HETATM   17  C   UNL     1       6.114  34.430  68.312  1.00  0.00     0.000 A 
HETATM   18  C   UNL     1       4.752  34.338  68.030  1.00  0.00     0.002 A 
HETATM   19  C   UNL     1       4.316  34.060  66.730  1.00  0.00     0.031 A 
ENDBRANCH   6  14
ENDBRANCH   2   3
ENDBRANCH   1   2
BRANCH   1  20
HETATM   20  C   UNL     1       8.801  30.968  59.497  1.00  0.00     0.218 C 
HETATM   21  N   UNL     1       8.188  29.953  58.793  1.00  0.00    -0.356 N 
HETATM   22  H   UNL     1       8.354  29.022  59.174  1.00  0.00     0.162 HD
HETATM   23  O   UNL     1       9.081  32.051  58.991  1.00  0.00    -0.274 OA
BRANCH  21  24
HETATM   24  C   UNL     1       7.972  29.951  57.334  1.00  0.00     0.087 C 
HETATM   25  C   UNL     1       6.567  29.602  56.833  1.00  0.00     0.053 C 
HETATM   26  C   UNL     1       6.150  28.205  57.254  1.00  0.00     0.237 C 
HETATM   27  N   UNL     1       7.141  27.184  56.724  1.00  0.00    -0.067 N 
HETATM   28  H   UNL     1       7.037  27.175  55.701  1.00  0.00     0.280 HD
HETATM   29  C   UNL     1       8.579  27.517  57.059  1.00  0.00     0.237 C 
HETATM   30  C   UNL     1       8.936  28.952  56.686  1.00  0.00     0.053 C 
BRANCH  27  31
HETATM   31  C   UNL     1       6.821  25.775  57.202  1.00  0.00     0.273 C 
BRANCH  31  32
HETATM   32  C   UNL     1       7.091  24.685  56.200  1.00  0.00    -0.033 A 
HETATM   33  C   UNL     1       7.865  23.566  56.542  1.00  0.00     0.010 A 
HETATM   34  C   UNL     1       8.109  22.562  55.598  1.00  0.00     0.024 A 
HETATM   35  C   UNL     1       7.588  22.672  54.310  1.00  0.00     0.034 A 
HETATM   36 CL   UNL     1       7.892  21.437  53.155  1.00  0.00    -0.084 Cl
HETATM   37  C   UNL     1       6.822  23.779  53.956  1.00  0.00     0.024 A 
HETATM   38  C   UNL     1       6.571  24.780  54.897  1.00  0.00     0.010 A 
ENDBRANCH  31  32
ENDBRANCH  27  31
ENDBRANCH  21  24
ENDBRANCH   1  20
TORSDOF 7
ENDMDL
MODEL 4
REMARK VINA RESULT:     -10.8      4.512     12.635
REMARK  7 active torsions:
REMARK  status: ('A' for Active; 'I' for Inactive)
REMARK    1  A    between atoms: C_4  and  N_5 
REMARK    2  A    between atoms: C_11  and  C_12 
REMARK    3  A    between atoms: C_12  and  C_13 
REMARK    4  A    between atoms: C_13  and  C_14 
REMARK       I    between atoms: C_14  and  N_15 
REMARK    5  A    between atoms: N_15  and  C_16 
REMARK    6  A    between atoms: N_19  and  C_21 
REMARK    7  A    between atoms: C_21  and  C_22 
ROOT
HETATM    1  C   UNL     1       8.743  30.980  60.971  1.00  0.00     0.110 C 
ENDROOT
BRANCH   1   2
HETATM    2  C   UNL     1       8.707  32.265  61.778  1.00  0.00     0.088 C 
BRANCH   2   3
HETATM    3  C   UNL     1       7.316  32.584  62.261  1.00  0.00     0.109 A 
HETATM    4  N   UNL     1       6.931  33.828  62.302  1.00  0.00    -0.215 NA
HETATM    5  C   UNL     1       5.660  33.989  62.774  1.00  0.00     0.170 A 
HETATM    6  N   UNL     1       4.984  35.178  63.061  1.00  0.00    -0.215 N 
HETATM    7  C   UNL     1       4.789  32.974  63.106  1.00  0.00     0.099 A 
HETATM    8  N   UNL     1       3.689  34.917  63.427  1.00  0.00    -0.177 NA
HETATM    9  C   UNL     1       3.602  33.588  63.488  1.00  0.00     0.160 A 
HETATM   10  C   UNL     1       5.217  31.613  63.012  1.00  0.00     0.262 A 
HETATM   11  N   UNL     1       6.529  31.501  62.595  1.00  0.00    -0.311 N 
HETATM   12  O   UNL     1       4.520  30.642  63.269  1.00  0.00    -0.267 OA
HETATM   13  H   UNL     1       6.874  30.552  62.543  1.00  0.00     0.170 HD
BRANCH   6  14
HETATM   14  C   UNL     1       5.452  36.527  63.037  1.00  0.00     0.060 A 
HETATM   15  C   UNL     1       5.942  37.056  61.831  1.00  0.00     0.031 A 
HETATM   16  C   UNL     1       6.377  38.381  61.760  1.00  0.00     0.002 A 
HETATM   17  C   UNL     1       6.326  39.192  62.889  1.00  0.00     0.000 A 
HETATM   18  C   UNL     1       5.840  38.680  64.090  1.00  0.00     0.002 A 
HETATM   19  C   UNL     1       5.401  37.353  64.168  1.00  0.00     0.031 A 
ENDBRANCH   6  14
ENDBRANCH   2   3
ENDBRANCH   1   2
BRANCH   1  20
HETATM   20  C   UNL     1       8.567  31.070  59.462  1.00  0.00     0.218 C 
HETATM   21  N   UNL     1       7.796  30.103  58.852  1.00  0.00    -0.356 N 
HETATM   22  H   UNL     1       7.849  29.187  59.296  1.00  0.00     0.162 HD
HETATM   23  O   UNL     1       8.971  32.067  58.869  1.00  0.00    -0.274 OA
BRANCH  21  24
HETATM   24  C   UNL     1       7.524  30.030  57.405  1.00  0.00     0.087 C 
HETATM   25  C   UNL     1       6.249  29.303  56.966  1.00  0.00     0.053 C 
HETATM   26  C   UNL     1       6.253  27.848  57.397  1.00  0.00     0.237 C 
HETATM   27  N   UNL     1       7.463  27.137  56.819  1.00  0.00    -0.067 N 
HETATM   28  H   UNL     1       7.321  27.092  55.802  1.00  0.00     0.280 HD
HETATM   29  C   UNL     1       8.767  27.856  57.091  1.00  0.00     0.237 C 
HETATM   30  C   UNL     1       8.696  29.331  56.709  1.00  0.00     0.053 C 
BRANCH  27  31
HETATM   31  C   UNL     1       7.567  25.698  57.303  1.00  0.00     0.273 C 
BRANCH  31  32
HETATM   32  C   UNL     1       7.701  24.666  56.216  1.00  0.00    -0.033 A 
HETATM   33  C   UNL     1       8.719  23.702  56.258  1.00  0.00     0.010 A 
HETATM   34  C   UNL     1       8.832  22.751  55.238  1.00  0.00     0.024 A 
HETATM   35  C   UNL     1       7.937  22.762  54.170  1.00  0.00     0.034 A 
HETATM   36 CL   UNL     1       8.081  21.592  52.919  1.00  0.00    -0.084 Cl
HETATM   37  C   UNL     1       6.925  23.716  54.113  1.00  0.00     0.024 A 
HETATM   38  C   UNL     1       6.805  24.663  55.133  1.00  0.00     0.010 A 
ENDBRANCH  31  32
ENDBRANCH  27  31
ENDBRANCH  21  24
ENDBRANCH   1  20
TORSDOF 7
ENDMDL
MODEL 5
REMARK VINA RESULT:     -10.7      4.566     10.514
REMARK  7 active torsions:
REMARK  status: ('A' for Active; 'I' for Inactive)
REMARK    1  A    between atoms: C_4  and  N_5 
REMARK    2  A    between atoms: C_11  and  C_12 
REMARK    3  A    between atoms: C_12  and  C_13 
REMARK    4  A    between atoms: C_13  and  C_14 
REMARK       I    between atoms: C_14  and  N_15 
REMARK    5  A    between atoms: N_15  and  C_16 
REMARK    6  A    between atoms: N_19  and  C_21 
REMARK    7  A    between atoms: C_21  and  C_22 
ROOT
HETATM    1  C   UNL     1       4.866  33.106  56.792  1.00  0.00     0.110 C 
ENDROOT
BRANCH   1   2
HETATM    2  C   UNL     1       4.702  33.776  58.144  1.00  0.00     0.088 C 
BRANCH   2   3
HETATM    3  C   UNL     1       5.525  33.097  59.208  1.00  0.00     0.109 A 
HETATM    4  N   UNL     1       6.580  32.418  58.853  1.00  0.00    -0.215 NA
HETATM    5  C   UNL     1       7.230  31.835  59.902  1.00  0.00     0.170 A 
HETATM    6  N   UNL     1       8.311  30.950  59.872  1.00  0.00    -0.215 N 
HETATM    7  C   UNL     1       6.906  31.982  61.234  1.00  0.00     0.099 A 
HETATM    8  N   UNL     1       8.734  30.664  61.143  1.00  0.00    -0.177 NA
HETATM    9  C   UNL     1       7.854  31.260  61.949  1.00  0.00     0.160 A 
HETATM   10  C   UNL     1       5.769  32.767  61.604  1.00  0.00     0.262 A 
HETATM   11  N   UNL     1       5.105  33.282  60.509  1.00  0.00    -0.311 N 
HETATM   12  O   UNL     1       5.406  32.971  62.754  1.00  0.00    -0.267 OA
HETATM   13  H   UNL     1       4.279  33.821  60.733  1.00  0.00     0.170 HD
BRANCH   6  14
HETATM   14  C   UNL     1       8.965  30.340  58.757  1.00  0.00     0.060 A 
HETATM   15  C   UNL     1      10.205  30.848  58.335  1.00  0.00     0.031 A 
HETATM   16  C   UNL     1      10.891  30.258  57.271  1.00  0.00     0.002 A 
HETATM   17  C   UNL     1      10.348  29.155  56.619  1.00  0.00     0.000 A 
HETATM   18  C   UNL     1       9.120  28.641  57.031  1.00  0.00     0.002 A 
HETATM   19  C   UNL     1       8.429  29.227  58.097  1.00  0.00     0.031 A 
ENDBRANCH   6  14
ENDBRANCH   2   3
ENDBRANCH   1   2
BRANCH   1  20
HETATM   20  C   UNL     1       3.910  31.981  56.423  1.00  0.00     0.218 C 
HETATM   21  N   UNL     1       4.460  30.804  55.961  1.00  0.00    -0.356 N 
HETATM   22  H   UNL     1       5.318  30.927  55.424  1.00  0.00     0.162 HD
HETATM   23  O   UNL     1       2.718  32.092  56.694  1.00  0.00    -0.274 OA
BRANCH  21  24
HETATM   24  C   UNL     1       3.689  29.615  55.552  1.00  0.00     0.087 C 
HETATM   25  C   UNL     1       4.033  28.287  56.233  1.00  0.00     0.053 C 
HETATM   26  C   UNL     1       5.472  27.878  55.975  1.00  0.00     0.237 C 
HETATM   27  N   UNL     1       5.720  27.759  54.482  1.00  0.00    -0.067 N 
HETATM   28  H   UNL     1       5.173  26.952  54.156  1.00  0.00     0.280 HD
HETATM   29  C   UNL     1       5.286  28.982  53.704  1.00  0.00     0.237 C 
HETATM   30  C   UNL     1       3.860  29.401  54.045  1.00  0.00     0.053 C 
BRANCH  27  31
HETATM   31  C   UNL     1       7.177  27.447  54.167  1.00  0.00     0.273 C 
BRANCH  31  32
HETATM   32  C   UNL     1       7.476  25.997  53.901  1.00  0.00    -0.033 A 
HETATM   33  C   UNL     1       7.609  25.082  54.956  1.00  0.00     0.010 A 
HETATM   34  C   UNL     1       7.890  23.738  54.693  1.00  0.00     0.024 A 
HETATM   35  C   UNL     1       8.047  23.301  53.378  1.00  0.00     0.034 A 
HETATM   36 CL   UNL     1       8.394  21.648  53.060  1.00  0.00    -0.084 Cl
HETATM   37  C   UNL     1       7.923  24.199  52.322  1.00  0.00     0.024 A 
HETATM   38  C   UNL     1       7.636  25.541  52.581  1.00  0.00     0.010 A 
ENDBRANCH  31  32
ENDBRANCH  27  31
ENDBRANCH  21  24
ENDBRANCH   1  20
TORSDOF 7
ENDMDL
MODEL 6
REMARK VINA RESULT:     -10.6      4.192     11.699
REMARK  7 active torsions:
REMARK  status: ('A' for Active; 'I' for Inactive)
REMARK    1  A    between atoms: C_4  and  N_5 
REMARK    2  A    between atoms: C_11  and  C_12 
REMARK    3  A    between atoms: C_12  and  C_13 
REMARK    4  A    between atoms: C_13  and  C_14 
REMARK       I    between atoms: C_14  and  N_15 
REMARK    5  A    between atoms: N_15  and  C_16 
REMARK    6  A    between atoms: N_19  and  C_21 
REMARK    7  A    between atoms: C_21  and  C_22 
ROOT
HETATM    1  C   UNL     1       5.344  31.992  56.722  1.00  0.00     0.110 C 
ENDROOT
BRANCH   1   2
HETATM    2  C   UNL     1       5.383  32.646  58.092  1.00  0.00     0.088 C 
BRANCH   2   3
HETATM    3  C   UNL     1       6.428  32.022  58.980  1.00  0.00     0.109 A 
HETATM    4  N   UNL     1       6.342  32.188  60.270  1.00  0.00    -0.215 NA
HETATM    5  C   UNL     1       7.354  31.592  60.964  1.00  0.00     0.170 A 
HETATM    6  N   UNL     1       7.636  31.671  62.331  1.00  0.00    -0.215 N 
HETATM    7  C   UNL     1       8.349  30.806  60.424  1.00  0.00     0.099 A 
HETATM    8  N   UNL     1       8.686  30.852  62.653  1.00  0.00    -0.177 NA
HETATM    9  C   UNL     1       9.127  30.372  61.490  1.00  0.00     0.160 A 
HETATM   10  C   UNL     1       8.400  30.600  59.009  1.00  0.00     0.262 A 
HETATM   11  N   UNL     1       7.396  31.275  58.342  1.00  0.00    -0.311 N 
HETATM   12  O   UNL     1       9.229  29.911  58.432  1.00  0.00    -0.267 OA
HETATM   13  H   UNL     1       7.418  31.173  57.336  1.00  0.00     0.170 HD
BRANCH   6  14
HETATM   14  C   UNL     1       7.018  32.459  63.349  1.00  0.00     0.060 A 
HETATM   15  C   UNL     1       5.615  32.501  63.419  1.00  0.00     0.031 A 
HETATM   16  C   UNL     1       4.973  33.232  64.421  1.00  0.00     0.002 A 
HETATM   17  C   UNL     1       5.724  33.928  65.364  1.00  0.00     0.000 A 
HETATM   18  C   UNL     1       7.116  33.892  65.307  1.00  0.00     0.002 A 
HETATM   19  C   UNL     1       7.764  33.160  64.306  1.00  0.00     0.031 A 
ENDBRANCH   6  14
ENDBRANCH   2   3
ENDBRANCH   1   2
BRANCH   1  20
HETATM   20  C   UNL     1       4.383  30.833  56.502  1.00  0.00     0.218 C 
HETATM   21  N   UNL     1       4.925  29.613  56.158  1.00  0.00    -0.356 N 
HETATM   22  H   UNL     1       5.769  29.678  55.590  1.00  0.00     0.162 HD
HETATM   23  O   UNL     1       3.197  30.974  56.789  1.00  0.00    -0.274 OA
BRANCH  21  24
HETATM   24  C   UNL     1       4.147  28.387  55.900  1.00  0.00     0.087 C 
HETATM   25  C   UNL     1       4.479  27.154  56.747  1.00  0.00     0.053 C 
HETATM   26  C   UNL     1       5.916  26.707  56.551  1.00  0.00     0.237 C 
HETATM   27  N   UNL     1       6.170  26.396  55.087  1.00  0.00    -0.067 N 
HETATM   28  H   UNL     1       5.619  25.558  54.863  1.00  0.00     0.280 HD
HETATM   29  C   UNL     1       5.748  27.513  54.156  1.00  0.00     0.237 C 
HETATM   30  C   UNL     1       4.323  27.981  54.434  1.00  0.00     0.053 C 
BRANCH  27  31
HETATM   31  C   UNL     1       7.625  26.038  54.822  1.00  0.00     0.273 C 
BRANCH  31  32
HETATM   32  C   UNL     1       7.862  24.622  54.371  1.00  0.00    -0.033 A 
HETATM   33  C   UNL     1       7.707  24.257  53.026  1.00  0.00     0.010 A 
HETATM   34  C   UNL     1       7.928  22.936  52.623  1.00  0.00     0.024 A 
HETATM   35  C   UNL     1       8.298  21.972  53.560  1.00  0.00     0.034 A 
HETATM   36 CL   UNL     1       8.567  20.350  53.060  1.00  0.00    -0.084 Cl
HETATM   37  C   UNL     1       8.451  22.319  54.899  1.00  0.00     0.024 A 
HETATM   38  C   UNL     1       8.237  23.638  55.304  1.00  0.00     0.010 A 
ENDBRANCH  31  32
ENDBRANCH  27  31
ENDBRANCH  21  24
ENDBRANCH   1  20
TORSDOF 7
ENDMDL
MODEL 7
REMARK VINA RESULT:     -10.6      2.176      2.550
REMARK  7 active torsions:
REMARK  status: ('A' for Active; 'I' for Inactive)
REMARK    1  A    between atoms: C_4  and  N_5 
REMARK    2  A    between atoms: C_11  and  C_12 
REMARK    3  A    between atoms: C_12  and  C_13 
REMARK    4  A    between atoms: C_13  and  C_14 
REMARK       I    between atoms: C_14  and  N_15 
REMARK    5  A    between atoms: N_15  and  C_16 
REMARK    6  A    between atoms: N_19  and  C_21 
REMARK    7  A    between atoms: C_21  and  C_22 
ROOT
HETATM    1  C   UNL     1       7.671  28.810  57.809  1.00  0.00     0.110 C 
ENDROOT
BRANCH   1   2
HETATM    2  C   UNL     1       8.282  27.574  57.176  1.00  0.00     0.088 C 
BRANCH   2   3
HETATM    3  C   UNL     1       7.518  27.137  55.953  1.00  0.00     0.109 A 
HETATM    4  N   UNL     1       7.474  25.868  55.655  1.00  0.00    -0.215 NA
HETATM    5  C   UNL     1       6.769  25.601  54.517  1.00  0.00     0.170 A 
HETATM    6  N   UNL     1       6.625  24.382  53.850  1.00  0.00    -0.215 N 
HETATM    7  C   UNL     1       6.077  26.523  53.762  1.00  0.00     0.099 A 
HETATM    8  N   UNL     1       5.760  24.510  52.795  1.00  0.00    -0.177 NA
HETATM    9  C   UNL     1       5.473  25.811  52.732  1.00  0.00     0.160 A 
HETATM   10  C   UNL     1       6.103  27.905  54.131  1.00  0.00     0.262 A 
HETATM   11  N   UNL     1       6.881  28.137  55.248  1.00  0.00    -0.311 N 
HETATM   12  O   UNL     1       5.513  28.797  53.539  1.00  0.00    -0.267 OA
HETATM   13  H   UNL     1       6.943  29.108  55.522  1.00  0.00     0.170 HD
BRANCH   6  14
HETATM   14  C   UNL     1       7.240  23.118  54.108  1.00  0.00     0.060 A 
HETATM   15  C   UNL     1       7.731  22.368  53.026  1.00  0.00     0.031 A 
HETATM   16  C   UNL     1       8.369  21.144  53.240  1.00  0.00     0.002 A 
HETATM   17  C   UNL     1       8.524  20.657  54.534  1.00  0.00     0.000 A 
HETATM   18  C   UNL     1       8.044  21.393  55.615  1.00  0.00     0.002 A 
HETATM   19  C   UNL     1       7.405  22.621  55.407  1.00  0.00     0.031 A 
ENDBRANCH   6  14
ENDBRANCH   2   3
ENDBRANCH   1   2
BRANCH   1  20
HETATM   20  C   UNL     1       8.583  29.751  58.584  1.00  0.00     0.218 C 
HETATM   21  N   UNL     1       8.248  30.028  59.892  1.00  0.00    -0.356 N 
HETATM   22  H   UNL     1       7.245  30.044  60.071  1.00  0.00     0.162 HD
HETATM   23  O   UNL     1       9.651  30.097  58.086  1.00  0.00    -0.274 OA
BRANCH  21  24
HETATM   24  C   UNL     1       9.010  30.919  60.787  1.00  0.00     0.087 C 
HETATM   25  C   UNL     1       8.658  30.884  62.278  1.00  0.00     0.053 C 
HETATM   26  C   UNL     1       7.215  31.285  62.526  1.00  0.00     0.237 C 
HETATM   27  N   UNL     1       6.962  32.679  61.981  1.00  0.00    -0.067 N 
HETATM   28  H   UNL     1       7.502  33.328  62.566  1.00  0.00     0.280 HD
HETATM   29  C   UNL     1       7.402  32.849  60.542  1.00  0.00     0.237 C 
HETATM   30  C   UNL     1       8.832  32.367  60.322  1.00  0.00     0.053 C 
BRANCH  27  31
HETATM   31  C   UNL     1       5.502  33.090  62.116  1.00  0.00     0.273 C 
BRANCH  31  32
HETATM   32  C   UNL     1       5.241  34.567  61.998  1.00  0.00    -0.033 A 
HETATM   33  C   UNL     1       5.881  35.483  62.845  1.00  0.00     0.010 A 
HETATM   34  C   UNL     1       5.625  36.853  62.724  1.00  0.00     0.024 A 
HETATM   35  C   UNL     1       4.726  37.314  61.764  1.00  0.00     0.034 A 
HETATM   36 CL   UNL     1       4.414  38.998  61.621  1.00  0.00    -0.084 Cl
HETATM   37  C   UNL     1       4.080  36.416  60.920  1.00  0.00     0.024 A 
HETATM   38  C   UNL     1       4.338  35.048  61.033  1.00  0.00     0.010 A 
ENDBRANCH  31  32
ENDBRANCH  27  31
ENDBRANCH  21  24
ENDBRANCH   1  20
TORSDOF 7
ENDMDL
MODEL 8
REMARK VINA RESULT:     -10.4      4.519     10.972
REMARK  7 active torsions:
REMARK  status: ('A' for Active; 'I' for Inactive)
REMARK    1  A    between atoms: C_4  and  N_5 
REMARK    2  A    between atoms: C_11  and  C_12 
REMARK    3  A    between atoms: C_12  and  C_13 
REMARK    4  A    between atoms: C_13  and  C_14 
REMARK       I    between atoms: C_14  and  N_15 
REMARK    5  A    between atoms: N_15  and  C_16 
REMARK    6  A    between atoms: N_19  and  C_21 
REMARK    7  A    between atoms: C_21  and  C_22 
ROOT
HETATM    1  C   UNL     1       3.129  30.971  59.636  1.00  0.00     0.110 C 
ENDROOT
BRANCH   1   2
HETATM    2  C   UNL     1       3.176  32.235  60.475  1.00  0.00     0.088 C 
BRANCH   2   3
HETATM    3  C   UNL     1       4.401  32.279  61.352  1.00  0.00     0.109 A 
HETATM    4  N   UNL     1       5.574  32.127  60.806  1.00  0.00    -0.215 NA
HETATM    5  C   UNL     1       6.602  32.167  61.704  1.00  0.00     0.170 A 
HETATM    6  N   UNL     1       7.959  31.921  61.483  1.00  0.00    -0.215 N 
HETATM    7  C   UNL     1       6.484  32.427  63.052  1.00  0.00     0.099 A 
HETATM    8  N   UNL     1       8.682  32.155  62.624  1.00  0.00    -0.177 NA
HETATM    9  C   UNL     1       7.776  32.418  63.566  1.00  0.00     0.160 A 
HETATM   10  C   UNL     1       5.189  32.633  63.624  1.00  0.00     0.262 A 
HETATM   11  N   UNL     1       4.177  32.519  62.692  1.00  0.00    -0.311 N 
HETATM   12  O   UNL     1       4.978  32.883  64.802  1.00  0.00    -0.267 OA
HETATM   13  H   UNL     1       3.245  32.633  63.067  1.00  0.00     0.170 HD
BRANCH   6  14
HETATM   14  C   UNL     1       8.629  31.472  60.304  1.00  0.00     0.060 A 
HETATM   15  C   UNL     1       9.616  32.291  59.729  1.00  0.00     0.031 A 
HETATM   16  C   UNL     1      10.317  31.871  58.596  1.00  0.00     0.002 A 
HETATM   17  C   UNL     1      10.042  30.632  58.026  1.00  0.00     0.000 A 
HETATM   18  C   UNL     1       9.067  29.810  58.589  1.00  0.00     0.002 A 
HETATM   19  C   UNL     1       8.362  30.224  59.725  1.00  0.00     0.031 A 
ENDBRANCH   6  14
ENDBRANCH   2   3
ENDBRANCH   1   2
BRANCH   1  20
HETATM   20  C   UNL     1       3.566  31.053  58.181  1.00  0.00     0.218 C 
HETATM   21  N   UNL     1       4.329  30.016  57.686  1.00  0.00    -0.356 N 
HETATM   22  H   UNL     1       4.952  29.593  58.372  1.00  0.00     0.162 HD
HETATM   23  O   UNL     1       3.103  31.936  57.464  1.00  0.00    -0.274 OA
BRANCH  21  24
HETATM   24  C   UNL     1       4.845  29.932  56.307  1.00  0.00     0.087 C 
HETATM   25  C   UNL     1       4.211  28.888  55.383  1.00  0.00     0.053 C 
HETATM   26  C   UNL     1       4.396  27.478  55.915  1.00  0.00     0.237 C 
HETATM   27  N   UNL     1       5.875  27.175  56.079  1.00  0.00    -0.067 N 
HETATM   28  H   UNL     1       6.275  27.136  55.134  1.00  0.00     0.280 HD
HETATM   29  C   UNL     1       6.617  28.228  56.874  1.00  0.00     0.237 C 
HETATM   30  C   UNL     1       6.346  29.635  56.351  1.00  0.00     0.053 C 
BRANCH  27  31
HETATM   31  C   UNL     1       6.112  25.807  56.704  1.00  0.00     0.273 C 
BRANCH  31  32
HETATM   32  C   UNL     1       6.603  24.748  55.755  1.00  0.00    -0.033 A 
HETATM   33  C   UNL     1       6.371  24.852  54.376  1.00  0.00     0.010 A 
HETATM   34  C   UNL     1       6.831  23.857  53.506  1.00  0.00     0.024 A 
HETATM   35  C   UNL     1       7.518  22.753  54.008  1.00  0.00     0.034 A 
HETATM   36 CL   UNL     1       8.081  21.534  52.936  1.00  0.00    -0.084 Cl
HETATM   37  C   UNL     1       7.752  22.635  55.375  1.00  0.00     0.024 A 
HETATM   38  C   UNL     1       7.299  23.629  56.246  1.00  0.00     0.010 A 
ENDBRANCH  31  32
ENDBRANCH  27  31
ENDBRANCH  21  24
ENDBRANCH   1  20
TORSDOF 7
ENDMDL
MODEL 9
REMARK VINA RESULT:     -10.3      4.187     12.401
REMARK  7 active torsions:
REMARK  status: ('A' for Active; 'I' for Inactive)
REMARK    1  A    between atoms: C_4  and  N_5 
REMARK    2  A    between atoms: C_11  and  C_12 
REMARK    3  A    between atoms: C_12  and  C_13 
REMARK    4  A    between atoms: C_13  and  C_14 
REMARK       I    between atoms: C_14  and  N_15 
REMARK    5  A    between atoms: N_15  and  C_16 
REMARK    6  A    between atoms: N_19  and  C_21 
REMARK    7  A    between atoms: C_21  and  C_22 
ROOT
HETATM    1  C   UNL     1       4.275  30.795  58.227  1.00  0.00     0.110 C 
ENDROOT
BRANCH   1   2
HETATM    2  C   UNL     1       4.285  32.060  59.067  1.00  0.00     0.088 C 
BRANCH   2   3
HETATM    3  C   UNL     1       5.426  32.068  60.052  1.00  0.00     0.109 A 
HETATM    4  N   UNL     1       5.249  32.621  61.218  1.00  0.00    -0.215 NA
HETATM    5  C   UNL     1       6.359  32.582  62.013  1.00  0.00     0.170 A 
HETATM    6  N   UNL     1       6.556  33.180  63.260  1.00  0.00    -0.215 N 
HETATM    7  C   UNL     1       7.549  31.958  61.706  1.00  0.00     0.099 A 
HETATM    8  N   UNL     1       7.776  32.827  63.775  1.00  0.00    -0.177 NA
HETATM    9  C   UNL     1       8.375  32.126  62.811  1.00  0.00     0.160 A 
HETATM   10  C   UNL     1       7.707  31.319  60.436  1.00  0.00     0.262 A 
HETATM   11  N   UNL     1       6.584  31.440  59.641  1.00  0.00    -0.311 N 
HETATM   12  O   UNL     1       8.713  30.727  60.072  1.00  0.00    -0.267 OA
HETATM   13  H   UNL     1       6.671  31.022  58.725  1.00  0.00     0.170 HD
BRANCH   6  14
HETATM   14  C   UNL     1       5.710  34.064  63.997  1.00  0.00     0.060 A 
HETATM   15  C   UNL     1       5.675  35.424  63.644  1.00  0.00     0.031 A 
HETATM   16  C   UNL     1       4.835  36.313  64.318  1.00  0.00     0.002 A 
HETATM   17  C   UNL     1       4.020  35.855  65.349  1.00  0.00     0.000 A 
HETATM   18  C   UNL     1       4.044  34.508  65.706  1.00  0.00     0.002 A 
HETATM   19  C   UNL     1       4.883  33.613  65.033  1.00  0.00     0.031 A 
ENDBRANCH   6  14
ENDBRANCH   2   3
ENDBRANCH   1   2
BRANCH   1  20
HETATM   20  C   UNL     1       5.154  30.745  56.986  1.00  0.00     0.218 C 
HETATM   21  N   UNL     1       5.269  29.534  56.336  1.00  0.00    -0.356 N 
HETATM   22  H   UNL     1       5.230  28.724  56.954  1.00  0.00     0.162 HD
HETATM   23  O   UNL     1       5.591  31.792  56.517  1.00  0.00    -0.274 OA
BRANCH  21  24
HETATM   24  C   UNL     1       6.079  29.299  55.127  1.00  0.00     0.087 C 
HETATM   25  C   UNL     1       5.515  28.334  54.080  1.00  0.00     0.053 C 
HETATM   26  C   UNL     1       5.318  26.940  54.647  1.00  0.00     0.237 C 
HETATM   27  N   UNL     1       6.636  26.400  55.171  1.00  0.00    -0.067 N 
HETATM   28  H   UNL     1       7.240  26.250  54.353  1.00  0.00     0.280 HD
HETATM   29  C   UNL     1       7.337  27.350  56.119  1.00  0.00     0.237 C 
HETATM   30  C   UNL     1       7.451  28.756  55.540  1.00  0.00     0.053 C 
BRANCH  27  31
HETATM   31  C   UNL     1       6.473  25.043  55.841  1.00  0.00     0.273 C 
BRANCH  31  32
HETATM   32  C   UNL     1       6.998  23.875  55.052  1.00  0.00    -0.033 A 
HETATM   33  C   UNL     1       7.027  23.905  53.649  1.00  0.00     0.010 A 
HETATM   34  C   UNL     1       7.515  22.810  52.930  1.00  0.00     0.024 A 
HETATM   35  C   UNL     1       7.969  21.677  53.604  1.00  0.00     0.034 A 
HETATM   36 CL   UNL     1       8.567  20.333  52.715  1.00  0.00    -0.084 Cl
HETATM   37  C   UNL     1       7.942  21.631  54.995  1.00  0.00     0.024 A 
HETATM   38  C   UNL     1       7.461  22.725  55.717  1.00  0.00     0.010 A 
ENDBRANCH  31  32
ENDBRANCH  27  31
ENDBRANCH  21  24
ENDBRANCH   1  20
TORSDOF 7
ENDMDL
MODEL 10
REMARK VINA RESULT:     -10.2      4.564     11.007
REMARK  7 active torsions:
REMARK  status: ('A' for Active; 'I' for Inactive)
REMARK    1  A    between atoms: C_4  and  N_5 
REMARK    2  A    between atoms: C_11  and  C_12 
REMARK    3  A    between atoms: C_12  and  C_13 
REMARK    4  A    between atoms: C_13  and  C_14 
REMARK       I    between atoms: C_14  and  N_15 
REMARK    5  A    between atoms: N_15  and  C_16 
REMARK    6  A    between atoms: N_19  and  C_21 
REMARK    7  A    between atoms: C_21  and  C_22 
ROOT
HETATM    1  C   UNL     1       9.893  29.755  57.743  1.00  0.00     0.110 C 
ENDROOT
BRANCH   1   2
HETATM    2  C   UNL     1      10.046  31.175  58.256  1.00  0.00     0.088 C 
BRANCH   2   3
HETATM    3  C   UNL     1       8.920  31.560  59.180  1.00  0.00     0.109 A 
HETATM    4  N   UNL     1       7.705  31.610  58.709  1.00  0.00    -0.215 NA
HETATM    5  C   UNL     1       6.778  31.988  59.637  1.00  0.00     0.170 A 
HETATM    6  N   UNL     1       5.420  32.259  59.447  1.00  0.00    -0.215 N 
HETATM    7  C   UNL     1       7.022  32.223  60.973  1.00  0.00     0.099 A 
HETATM    8  N   UNL     1       4.810  32.518  60.647  1.00  0.00    -0.177 NA
HETATM    9  C   UNL     1       5.794  32.532  61.546  1.00  0.00     0.160 A 
HETATM   10  C   UNL     1       8.357  32.121  61.478  1.00  0.00     0.262 A 
HETATM   11  N   UNL     1       9.270  31.801  60.493  1.00  0.00    -0.311 N 
HETATM   12  O   UNL     1       8.677  32.294  62.645  1.00  0.00    -0.267 OA
HETATM   13  H   UNL     1      10.228  31.746  60.810  1.00  0.00     0.170 HD
BRANCH   6  14
HETATM   14  C   UNL     1       4.656  32.312  58.242  1.00  0.00     0.060 A 
HETATM   15  C   UNL     1       4.648  33.501  57.493  1.00  0.00     0.031 A 
HETATM   16  C   UNL     1       3.940  33.581  56.291  1.00  0.00     0.002 A 
HETATM   17  C   UNL     1       3.235  32.476  55.824  1.00  0.00     0.000 A 
HETATM   18  C   UNL     1       3.237  31.291  56.557  1.00  0.00     0.002 A 
HETATM   19  C   UNL     1       3.945  31.204  57.760  1.00  0.00     0.031 A 
ENDBRANCH   6  14
ENDBRANCH   2   3
ENDBRANCH   1   2
BRANCH   1  20
HETATM   20  C   UNL     1       9.174  29.538  56.420  1.00  0.00     0.218 C 
HETATM   21  N   UNL     1       7.817  29.296  56.464  1.00  0.00    -0.356 N 
HETATM   22  H   UNL     1       7.513  28.779  57.289  1.00  0.00     0.162 HD
HETATM   23  O   UNL     1       9.776  29.742  55.369  1.00  0.00    -0.274 OA
BRANCH  21  24
HETATM   24  C   UNL     1       6.964  29.057  55.286  1.00  0.00     0.087 C 
HETATM   25  C   UNL     1       5.553  28.517  55.539  1.00  0.00     0.053 C 
HETATM   26  C   UNL     1       5.583  27.166  56.231  1.00  0.00     0.237 C 
HETATM   27  N   UNL     1       6.362  26.169  55.392  1.00  0.00    -0.067 N 
HETATM   28  H   UNL     1       5.807  25.998  54.544  1.00  0.00     0.280 HD
HETATM   29  C   UNL     1       7.729  26.672  54.980  1.00  0.00     0.237 C 
HETATM   30  C   UNL     1       7.662  28.061  54.354  1.00  0.00     0.053 C 
BRANCH  27  31
HETATM   31  C   UNL     1       6.506  24.823  56.090  1.00  0.00     0.273 C 
BRANCH  31  32
HETATM   32  C   UNL     1       7.011  23.704  55.221  1.00  0.00    -0.033 A 
HETATM   33  C   UNL     1       6.980  23.806  53.822  1.00  0.00     0.010 A 
HETATM   34  C   UNL     1       7.451  22.755  53.028  1.00  0.00     0.024 A 
HETATM   35  C   UNL     1       7.949  21.597  53.624  1.00  0.00     0.034 A 
HETATM   36 CL   UNL     1       8.525  20.309  52.643  1.00  0.00    -0.084 Cl
HETATM   37  C   UNL     1       7.982  21.481  55.010  1.00  0.00     0.024 A 
HETATM   38  C   UNL     1       7.518  22.530  55.806  1.00  0.00     0.010 A 
ENDBRANCH  31  32
ENDBRANCH  27  31
ENDBRANCH  21  24
ENDBRANCH   1  20
TORSDOF 7
ENDMDL
