MODEL 1
REMARK VINA RESULT:      -9.4      0.000      0.000
REMARK  6 active torsions:
REMARK  status: ('A' for Active; 'I' for Inactive)
REMARK    1  A    between atoms: C_2  and  C_3 
REMARK    2  A    between atoms: C_4  and  O_5 
REMARK    3  A    between atoms: O_5  and  C_6 
REMARK    4  A    between atoms: C_6  and  C_7 
REMARK       I    between atoms: C_7  and  N_8 
REMARK    5  A    between atoms: N_8  and  N_9 
REMARK    6  A    between atoms: C_10  and  C_11 
ROOT
HETATM    1  C   UNL     1       7.505  24.945  57.169  1.00  0.00     0.261 C 
HETATM    2  N   UNL     1       8.162  26.089  57.604  1.00  0.00    -0.246 N 
HETATM    3  O   UNL     1       6.296  24.809  57.002  1.00  0.00    -0.269 OA
HETATM    4  H   UNL     1       9.175  26.044  57.686  1.00  0.00     0.192 HD
ENDROOT
BRANCH   2   5
HETATM    5  N   UNL     1       7.630  27.290  57.990  1.00  0.00    -0.184 NA
HETATM    6  C   UNL     1       8.211  28.403  57.679  1.00  0.00     0.152 C 
BRANCH   6   7
HETATM    7  C   UNL     1       7.601  29.651  58.106  1.00  0.00     0.011 A 
HETATM    8  C   UNL     1       8.001  30.478  59.206  1.00  0.00     0.004 A 
HETATM    9  C   UNL     1       7.121  31.562  59.255  1.00  0.00     0.043 A 
HETATM   10  C   UNL     1       9.025  30.402  60.175  1.00  0.00     0.014 A 
HETATM   11  C   UNL     1       7.212  32.570  60.223  1.00  0.00     0.030 A 
HETATM   12  N   UNL     1       6.230  31.409  58.219  1.00  0.00    -0.364 N 
HETATM   13  C   UNL     1       8.233  32.467  61.173  1.00  0.00     0.002 A 
HETATM   14  C   UNL     1       9.129  31.401  61.150  1.00  0.00     0.001 A 
HETATM   15  H   UNL     1       5.477  32.049  58.010  1.00  0.00     0.165 HD
HETATM   16  C   UNL     1       6.507  30.264  57.523  1.00  0.00     0.102 A 
ENDBRANCH   6   7
ENDBRANCH   2   5
BRANCH   1  17
HETATM   17  C   UNL     1       8.468  23.774  56.981  1.00  0.00     0.280 C 
BRANCH  17  18
HETATM   18  O   UNL     1       9.063  23.786  55.685  1.00  0.00    -0.341 OA
BRANCH  18  19
HETATM   19  C   UNL     1       8.758  22.705  54.897  1.00  0.00     0.076 A 
HETATM   20  C   UNL     1       7.966  22.940  53.754  1.00  0.00    -0.021 A 
HETATM   21  C   UNL     1       7.677  21.850  52.913  1.00  0.00     0.010 A 
HETATM   22  C   UNL     1       8.116  20.562  53.225  1.00  0.00     0.001 A 
HETATM   23  C   UNL     1       8.846  20.338  54.387  1.00  0.00     0.003 A 
HETATM   24  C   UNL     1       9.162  21.406  55.226  1.00  0.00     0.037 A 
BRANCH  20  25
HETATM   25  C   UNL     1       7.483  24.346  53.423  1.00  0.00     0.013 C 
HETATM   26  C   UNL     1       5.962  24.526  53.510  1.00  0.00     0.015 C 
HETATM   27  C   UNL     1       7.989  24.770  52.042  1.00  0.00     0.015 C 
ENDBRANCH  20  25
ENDBRANCH  18  19
ENDBRANCH  17  18
ENDBRANCH   1  17
TORSDOF 6
ENDMDL
MODEL 2
REMARK VINA RESULT:      -9.2      2.071      9.028
REMARK  6 active torsions:
REMARK  status: ('A' for Active; 'I' for Inactive)
REMARK    1  A    between atoms: C_2  and  C_3 
REMARK    2  A    between atoms: C_4  and  O_5 
REMARK    3  A    between atoms: O_5  and  C_6 
REMARK    4  A    between atoms: C_6  and  C_7 
REMARK       I    between atoms: C_7  and  N_8 
REMARK    5  A    between atoms: N_8  and  N_9 
REMARK    6  A    between atoms: C_10  and  C_11 
ROOT
HETATM    1  C   UNL     1       6.171  27.250  56.835  1.00  0.00     0.261 C 
HETATM    2  N   UNL     1       6.925  26.226  57.397  1.00  0.00    -0.246 N 
HETATM    3  O   UNL     1       5.414  27.163  55.873  1.00  0.00    -0.269 OA
HETATM    4  H   UNL     1       7.504  26.458  58.201  1.00  0.00     0.192 HD
ENDROOT
BRANCH   2   5
HETATM    5  N   UNL     1       7.041  24.923  56.993  1.00  0.00    -0.184 NA
HETATM    6  C   UNL     1       8.183  24.318  57.024  1.00  0.00     0.152 C 
BRANCH   6   7
HETATM    7  C   UNL     1       8.250  22.932  56.593  1.00  0.00     0.011 A 
HETATM    8  C   UNL     1       8.181  22.440  55.248  1.00  0.00     0.004 A 
HETATM    9  C   UNL     1       8.266  21.047  55.308  1.00  0.00     0.043 A 
HETATM   10  C   UNL     1       8.043  23.048  53.982  1.00  0.00     0.014 A 
HETATM   11  C   UNL     1       8.218  20.233  54.170  1.00  0.00     0.030 A 
HETATM   12  N   UNL     1       8.396  20.705  56.634  1.00  0.00    -0.364 N 
HETATM   13  C   UNL     1       8.076  20.862  52.929  1.00  0.00     0.002 A 
HETATM   14  C   UNL     1       7.992  22.249  52.833  1.00  0.00     0.001 A 
HETATM   15  H   UNL     1       8.479  19.759  56.977  1.00  0.00     0.165 HD
HETATM   16  C   UNL     1       8.385  21.829  57.415  1.00  0.00     0.102 A 
ENDBRANCH   6   7
ENDBRANCH   2   5
BRANCH   1  17
HETATM   17  C   UNL     1       6.446  28.593  57.509  1.00  0.00     0.280 C 
BRANCH  17  18
HETATM   18  O   UNL     1       7.560  28.518  58.396  1.00  0.00    -0.341 OA
BRANCH  18  19
HETATM   19  C   UNL     1       8.657  29.246  58.011  1.00  0.00     0.076 A 
HETATM   20  C   UNL     1       8.986  30.379  58.782  1.00  0.00    -0.021 A 
HETATM   21  C   UNL     1      10.131  31.115  58.425  1.00  0.00     0.010 A 
HETATM   22  C   UNL     1      10.893  30.764  57.309  1.00  0.00     0.001 A 
HETATM   23  C   UNL     1      10.522  29.677  56.525  1.00  0.00     0.003 A 
HETATM   24  C   UNL     1       9.402  28.922  56.870  1.00  0.00     0.037 A 
BRANCH  20  25
HETATM   25  C   UNL     1       8.146  30.762  59.994  1.00  0.00     0.013 C 
HETATM   26  C   UNL     1       7.474  32.137  59.886  1.00  0.00     0.015 C 
HETATM   27  C   UNL     1       8.986  30.680  61.270  1.00  0.00     0.015 C 
ENDBRANCH  20  25
ENDBRANCH  18  19
ENDBRANCH  17  18
ENDBRANCH   1  17
TORSDOF 6
ENDMDL
MODEL 3
REMARK VINA RESULT:      -8.7      2.093      3.333
REMARK  6 active torsions:
REMARK  status: ('A' for Active; 'I' for Inactive)
REMARK    1  A    between atoms: C_2  and  C_3 
REMARK    2  A    between atoms: C_4  and  O_5 
REMARK    3  A    between atoms: O_5  and  C_6 
REMARK    4  A    between atoms: C_6  and  C_7 
REMARK       I    between atoms: C_7  and  N_8 
REMARK    5  A    between atoms: N_8  and  N_9 
REMARK    6  A    between atoms: C_10  and  C_11 
ROOT
HETATM    1  C   UNL     1       5.531  28.566  54.594  1.00  0.00     0.261 C 
HETATM    2  N   UNL     1       6.504  29.323  55.234  1.00  0.00    -0.246 N 
HETATM    3  O   UNL     1       4.324  28.575  54.823  1.00  0.00    -0.269 OA
HETATM    4  H   UNL     1       7.467  29.207  54.924  1.00  0.00     0.192 HD
ENDROOT
BRANCH   2   5
HETATM    5  N   UNL     1       6.364  30.198  56.278  1.00  0.00    -0.184 NA
HETATM    6  C   UNL     1       7.019  30.025  57.380  1.00  0.00     0.152 C 
BRANCH   6   7
HETATM    7  C   UNL     1       6.841  30.988  58.454  1.00  0.00     0.011 A 
HETATM    8  C   UNL     1       7.652  31.135  59.628  1.00  0.00     0.004 A 
HETATM    9  C   UNL     1       7.101  32.169  60.389  1.00  0.00     0.043 A 
HETATM   10  C   UNL     1       8.799  30.477  60.122  1.00  0.00     0.014 A 
HETATM   11  C   UNL     1       7.637  32.575  61.617  1.00  0.00     0.030 A 
HETATM   12  N   UNL     1       6.009  32.642  59.701  1.00  0.00    -0.364 N 
HETATM   13  C   UNL     1       8.771  31.904  62.084  1.00  0.00     0.002 A 
HETATM   14  C   UNL     1       9.347  30.871  61.348  1.00  0.00     0.001 A 
HETATM   15  H   UNL     1       5.414  33.395  60.016  1.00  0.00     0.165 HD
HETATM   16  C   UNL     1       5.841  31.939  58.539  1.00  0.00     0.102 A 
ENDBRANCH   6   7
ENDBRANCH   2   5
BRANCH   1  17
HETATM   17  C   UNL     1       6.138  27.604  53.575  1.00  0.00     0.280 C 
BRANCH  17  18
HETATM   18  O   UNL     1       7.389  27.086  54.022  1.00  0.00    -0.341 OA
BRANCH  18  19
HETATM   19  C   UNL     1       7.535  25.728  53.889  1.00  0.00     0.076 A 
HETATM   20  C   UNL     1       7.488  24.954  55.066  1.00  0.00    -0.021 A 
HETATM   21  C   UNL     1       7.596  23.556  54.945  1.00  0.00     0.010 A 
HETATM   22  C   UNL     1       7.796  22.955  53.701  1.00  0.00     0.001 A 
HETATM   23  C   UNL     1       7.899  23.738  52.557  1.00  0.00     0.003 A 
HETATM   24  C   UNL     1       7.775  25.124  52.650  1.00  0.00     0.037 A 
BRANCH  20  25
HETATM   25  C   UNL     1       7.277  25.616  56.421  1.00  0.00     0.013 C 
HETATM   26  C   UNL     1       8.328  25.244  57.475  1.00  0.00     0.015 C 
HETATM   27  C   UNL     1       5.870  25.319  56.946  1.00  0.00     0.015 C 
ENDBRANCH  20  25
ENDBRANCH  18  19
ENDBRANCH  17  18
ENDBRANCH   1  17
TORSDOF 6
ENDMDL
MODEL 4
REMARK VINA RESULT:      -8.6      2.107      9.694
REMARK  6 active torsions:
REMARK  status: ('A' for Active; 'I' for Inactive)
REMARK    1  A    between atoms: C_2  and  C_3 
REMARK    2  A    between atoms: C_4  and  O_5 
REMARK    3  A    between atoms: O_5  and  C_6 
REMARK    4  A    between atoms: C_6  and  C_7 
REMARK       I    between atoms: C_7  and  N_8 
REMARK    5  A    between atoms: N_8  and  N_9 
REMARK    6  A    between atoms: C_10  and  C_11 
ROOT
HETATM    1  C   UNL     1       8.884  29.038  57.440  1.00  0.00     0.261 C 
HETATM    2  N   UNL     1       7.960  28.019  57.636  1.00  0.00    -0.246 N 
HETATM    3  O   UNL     1      10.039  28.916  57.041  1.00  0.00    -0.269 OA
HETATM    4  H   UNL     1       7.035  28.284  57.968  1.00  0.00     0.192 HD
ENDROOT
BRANCH   2   5
HETATM    5  N   UNL     1       8.125  26.668  57.486  1.00  0.00    -0.184 NA
HETATM    6  C   UNL     1       7.853  26.087  56.364  1.00  0.00     0.152 C 
BRANCH   6   7
HETATM    7  C   UNL     1       8.055  24.652  56.254  1.00  0.00     0.011 A 
HETATM    8  C   UNL     1       7.970  23.854  55.066  1.00  0.00     0.004 A 
HETATM    9  C   UNL     1       8.218  22.530  55.434  1.00  0.00     0.043 A 
HETATM   10  C   UNL     1       7.695  24.132  53.710  1.00  0.00     0.014 A 
HETATM   11  C   UNL     1       8.202  21.471  54.518  1.00  0.00     0.030 A 
HETATM   12  N   UNL     1       8.458  22.523  56.789  1.00  0.00    -0.364 N 
HETATM   13  C   UNL     1       7.923  21.774  53.182  1.00  0.00     0.002 A 
HETATM   14  C   UNL     1       7.674  23.085  52.781  1.00  0.00     0.001 A 
HETATM   15  H   UNL     1       8.668  21.696  57.330  1.00  0.00     0.165 HD
HETATM   16  C   UNL     1       8.360  23.791  57.292  1.00  0.00     0.102 A 
ENDBRANCH   6   7
ENDBRANCH   2   5
BRANCH   1  17
HETATM   17  C   UNL     1       8.331  30.396  57.866  1.00  0.00     0.280 C 
BRANCH  17  18
HETATM   18  O   UNL     1       7.480  30.284  59.004  1.00  0.00    -0.341 OA
BRANCH  18  19
HETATM   19  C   UNL     1       7.886  30.996  60.105  1.00  0.00     0.076 A 
HETATM   20  C   UNL     1       6.968  31.909  60.660  1.00  0.00    -0.021 A 
HETATM   21  C   UNL     1       7.353  32.619  61.812  1.00  0.00     0.010 A 
HETATM   22  C   UNL     1       8.627  32.464  62.362  1.00  0.00     0.001 A 
HETATM   23  C   UNL     1       9.542  31.601  61.767  1.00  0.00     0.003 A 
HETATM   24  C   UNL     1       9.175  30.872  60.636  1.00  0.00     0.037 A 
BRANCH  20  25
HETATM   25  C   UNL     1       5.582  32.082  60.051  1.00  0.00     0.013 C 
HETATM   26  C   UNL     1       5.538  33.022  58.841  1.00  0.00     0.015 C 
HETATM   27  C   UNL     1       4.586  32.543  61.118  1.00  0.00     0.015 C 
ENDBRANCH  20  25
ENDBRANCH  18  19
ENDBRANCH  17  18
ENDBRANCH   1  17
TORSDOF 6
ENDMDL
MODEL 5
REMARK VINA RESULT:      -8.5      1.960      3.620
REMARK  6 active torsions:
REMARK  status: ('A' for Active; 'I' for Inactive)
REMARK    1  A    between atoms: C_2  and  C_3 
REMARK    2  A    between atoms: C_4  and  O_5 
REMARK    3  A    between atoms: O_5  and  C_6 
REMARK    4  A    between atoms: C_6  and  C_7 
REMARK       I    between atoms: C_7  and  N_8 
REMARK    5  A    between atoms: N_8  and  N_9 
REMARK    6  A    between atoms: C_10  and  C_11 
ROOT
HETATM    1  C   UNL     1       7.697  27.544  57.392  1.00  0.00     0.261 C 
HETATM    2  N   UNL     1       7.975  28.880  57.652  1.00  0.00    -0.246 N 
HETATM    3  O   UNL     1       7.633  26.633  58.213  1.00  0.00    -0.269 OA
HETATM    4  H   UNL     1       7.986  29.519  56.859  1.00  0.00     0.192 HD
ENDROOT
BRANCH   2   5
HETATM    5  N   UNL     1       8.286  29.477  58.844  1.00  0.00    -0.184 NA
HETATM    6  C   UNL     1       7.718  30.584  59.199  1.00  0.00     0.152 C 
BRANCH   6   7
HETATM    7  C   UNL     1       8.077  31.171  60.479  1.00  0.00     0.011 A 
HETATM    8  C   UNL     1       7.240  31.960  61.334  1.00  0.00     0.004 A 
HETATM    9  C   UNL     1       8.004  32.327  62.444  1.00  0.00     0.043 A 
HETATM   10  C   UNL     1       5.903  32.408  61.264  1.00  0.00     0.014 A 
HETATM   11  C   UNL     1       7.501  33.119  63.484  1.00  0.00     0.030 A 
HETATM   12  N   UNL     1       9.252  31.773  62.279  1.00  0.00    -0.364 N 
HETATM   13  C   UNL     1       6.175  33.552  63.387  1.00  0.00     0.002 A 
HETATM   14  C   UNL     1       5.384  33.201  62.295  1.00  0.00     0.001 A 
HETATM   15  H   UNL     1      10.015  31.874  62.933  1.00  0.00     0.165 HD
HETATM   16  C   UNL     1       9.308  31.079  61.101  1.00  0.00     0.102 A 
ENDBRANCH   6   7
ENDBRANCH   2   5
BRANCH   1  17
HETATM   17  C   UNL     1       7.550  27.274  55.896  1.00  0.00     0.280 C 
BRANCH  17  18
HETATM   18  O   UNL     1       6.852  26.056  55.648  1.00  0.00    -0.341 OA
BRANCH  18  19
HETATM   19  C   UNL     1       7.198  25.416  54.484  1.00  0.00     0.076 A 
HETATM   20  C   UNL     1       7.638  24.081  54.586  1.00  0.00    -0.021 A 
HETATM   21  C   UNL     1       7.959  23.397  53.399  1.00  0.00     0.010 A 
HETATM   22  C   UNL     1       7.894  24.035  52.159  1.00  0.00     0.001 A 
HETATM   23  C   UNL     1       7.513  25.371  52.082  1.00  0.00     0.003 A 
HETATM   24  C   UNL     1       7.171  26.063  53.243  1.00  0.00     0.037 A 
BRANCH  20  25
HETATM   25  C   UNL     1       7.715  23.391  55.942  1.00  0.00     0.013 C 
HETATM   26  C   UNL     1       8.933  23.793  56.785  1.00  0.00     0.015 C 
HETATM   27  C   UNL     1       7.667  21.871  55.769  1.00  0.00     0.015 C 
ENDBRANCH  20  25
ENDBRANCH  18  19
ENDBRANCH  17  18
ENDBRANCH   1  17
TORSDOF 6
ENDMDL
MODEL 6
REMARK VINA RESULT:      -8.4      5.272      9.153
REMARK  6 active torsions:
REMARK  status: ('A' for Active; 'I' for Inactive)
REMARK    1  A    between atoms: C_2  and  C_3 
REMARK    2  A    between atoms: C_4  and  O_5 
REMARK    3  A    between atoms: O_5  and  C_6 
REMARK    4  A    between atoms: C_6  and  C_7 
REMARK       I    between atoms: C_7  and  N_8 
REMARK    5  A    between atoms: N_8  and  N_9 
REMARK    6  A    between atoms: C_10  and  C_11 
ROOT
HETATM    1  C   UNL     1       4.844  26.336  52.535  1.00  0.00     0.261 C 
HETATM    2  N   UNL     1       5.142  26.082  53.868  1.00  0.00    -0.246 N 
HETATM    3  O   UNL     1       5.032  25.584  51.583  1.00  0.00    -0.269 OA
HETATM    4  H   UNL     1       4.919  26.809  54.545  1.00  0.00     0.192 HD
ENDROOT
BRANCH   2   5
HETATM    5  N   UNL     1       5.746  24.984  54.419  1.00  0.00    -0.184 NA
HETATM    6  C   UNL     1       6.976  25.033  54.818  1.00  0.00     0.152 C 
BRANCH   6   7
HETATM    7  C   UNL     1       7.566  23.842  55.404  1.00  0.00     0.011 A 
HETATM    8  C   UNL     1       7.890  22.617  54.734  1.00  0.00     0.004 A 
HETATM    9  C   UNL     1       8.418  21.745  55.689  1.00  0.00     0.043 A 
HETATM   10  C   UNL     1       7.774  22.161  53.403  1.00  0.00     0.014 A 
HETATM   11  C   UNL     1       8.832  20.443  55.382  1.00  0.00     0.030 A 
HETATM   12  N   UNL     1       8.429  22.416  56.889  1.00  0.00    -0.364 N 
HETATM   13  C   UNL     1       8.702  20.016  54.057  1.00  0.00     0.002 A 
HETATM   14  C   UNL     1       8.183  20.862  53.079  1.00  0.00     0.001 A 
HETATM   15  H   UNL     1       8.761  22.028  57.761  1.00  0.00     0.165 HD
HETATM   16  C   UNL     1       7.918  23.676  56.731  1.00  0.00     0.102 A 
ENDBRANCH   6   7
ENDBRANCH   2   5
BRANCH   1  17
HETATM   17  C   UNL     1       4.305  27.751  52.334  1.00  0.00     0.280 C 
BRANCH  17  18
HETATM   18  O   UNL     1       4.598  28.244  51.028  1.00  0.00    -0.341 OA
BRANCH  18  19
HETATM   19  C   UNL     1       3.502  28.606  50.286  1.00  0.00     0.076 A 
HETATM   20  C   UNL     1       3.418  28.108  48.970  1.00  0.00    -0.021 A 
HETATM   21  C   UNL     1       2.281  28.438  48.208  1.00  0.00     0.010 A 
HETATM   22  C   UNL     1       1.289  29.276  48.720  1.00  0.00     0.001 A 
HETATM   23  C   UNL     1       1.416  29.805  50.000  1.00  0.00     0.003 A 
HETATM   24  C   UNL     1       2.524  29.477  50.780  1.00  0.00     0.037 A 
BRANCH  20  25
HETATM   25  C   UNL     1       4.507  27.201  48.413  1.00  0.00     0.013 C 
HETATM   26  C   UNL     1       5.418  27.873  47.378  1.00  0.00     0.015 C 
HETATM   27  C   UNL     1       3.892  25.927  47.831  1.00  0.00     0.015 C 
ENDBRANCH  20  25
ENDBRANCH  18  19
ENDBRANCH  17  18
ENDBRANCH   1  17
TORSDOF 6
ENDMDL
MODEL 7
REMARK VINA RESULT:      -8.4      5.785      8.992
REMARK  6 active torsions:
REMARK  status: ('A' for Active; 'I' for Inactive)
REMARK    1  A    between atoms: C_2  and  C_3 
REMARK    2  A    between atoms: C_4  and  O_5 
REMARK    3  A    between atoms: O_5  and  C_6 
REMARK    4  A    between atoms: C_6  and  C_7 
REMARK       I    between atoms: C_7  and  N_8 
REMARK    5  A    between atoms: N_8  and  N_9 
REMARK    6  A    between atoms: C_10  and  C_11 
ROOT
HETATM    1  C   UNL     1       6.372  25.884  51.967  1.00  0.00     0.261 C 
HETATM    2  N   UNL     1       5.868  26.102  50.691  1.00  0.00    -0.246 N 
HETATM    3  O   UNL     1       6.029  26.452  53.000  1.00  0.00    -0.269 OA
HETATM    4  H   UNL     1       6.255  25.543  49.933  1.00  0.00     0.192 HD
ENDROOT
BRANCH   2   5
HETATM    5  N   UNL     1       4.932  27.012  50.281  1.00  0.00    -0.184 NA
HETATM    6  C   UNL     1       4.915  27.443  49.061  1.00  0.00     0.152 C 
BRANCH   6   7
HETATM    7  C   UNL     1       3.893  28.402  48.675  1.00  0.00     0.011 A 
HETATM    8  C   UNL     1       2.700  28.141  47.925  1.00  0.00     0.004 A 
HETATM    9  C   UNL     1       2.027  29.355  47.773  1.00  0.00     0.043 A 
HETATM   10  C   UNL     1       2.131  26.984  47.350  1.00  0.00     0.014 A 
HETATM   11  C   UNL     1       0.820  29.472  47.075  1.00  0.00     0.030 A 
HETATM   12  N   UNL     1       2.773  30.315  48.416  1.00  0.00    -0.364 N 
HETATM   13  C   UNL     1       0.281  28.312  46.512  1.00  0.00     0.002 A 
HETATM   14  C   UNL     1       0.924  27.083  46.647  1.00  0.00     0.001 A 
HETATM   15  H   UNL     1       2.526  31.294  48.471  1.00  0.00     0.165 HD
HETATM   16  C   UNL     1       3.897  29.755  48.960  1.00  0.00     0.102 A 
ENDBRANCH   6   7
ENDBRANCH   2   5
BRANCH   1  17
HETATM   17  C   UNL     1       7.517  24.873  51.961  1.00  0.00     0.280 C 
BRANCH  17  18
HETATM   18  O   UNL     1       8.056  24.682  53.267  1.00  0.00    -0.341 OA
BRANCH  18  19
HETATM   19  C   UNL     1       7.977  23.398  53.745  1.00  0.00     0.076 A 
HETATM   20  C   UNL     1       7.916  23.230  55.144  1.00  0.00    -0.021 A 
HETATM   21  C   UNL     1       7.794  21.923  55.650  1.00  0.00     0.010 A 
HETATM   22  C   UNL     1       7.786  20.818  54.796  1.00  0.00     0.001 A 
HETATM   23  C   UNL     1       7.906  20.998  53.423  1.00  0.00     0.003 A 
HETATM   24  C   UNL     1       8.008  22.285  52.897  1.00  0.00     0.037 A 
BRANCH  20  25
HETATM   25  C   UNL     1       7.933  24.439  56.070  1.00  0.00     0.013 C 
HETATM   26  C   UNL     1       8.862  24.291  57.282  1.00  0.00     0.015 C 
HETATM   27  C   UNL     1       6.513  24.778  56.529  1.00  0.00     0.015 C 
ENDBRANCH  20  25
ENDBRANCH  18  19
ENDBRANCH  17  18
ENDBRANCH   1  17
TORSDOF 6
ENDMDL
MODEL 8
REMARK VINA RESULT:      -8.3      1.979      3.332
REMARK  6 active torsions:
REMARK  status: ('A' for Active; 'I' for Inactive)
REMARK    1  A    between atoms: C_2  and  C_3 
REMARK    2  A    between atoms: C_4  and  O_5 
REMARK    3  A    between atoms: O_5  and  C_6 
REMARK    4  A    between atoms: C_6  and  C_7 
REMARK       I    between atoms: C_7  and  N_8 
REMARK    5  A    between atoms: N_8  and  N_9 
REMARK    6  A    between atoms: C_10  and  C_11 
ROOT
HETATM    1  C   UNL     1       7.028  28.416  57.040  1.00  0.00     0.261 C 
HETATM    2  N   UNL     1       8.189  28.879  57.645  1.00  0.00    -0.246 N 
HETATM    3  O   UNL     1       5.901  28.394  57.529  1.00  0.00    -0.269 OA
HETATM    4  H   UNL     1       9.049  28.835  57.103  1.00  0.00     0.192 HD
ENDROOT
BRANCH   2   5
HETATM    5  N   UNL     1       8.363  29.362  58.914  1.00  0.00    -0.184 NA
HETATM    6  C   UNL     1       7.985  30.559  59.226  1.00  0.00     0.152 C 
BRANCH   6   7
HETATM    7  C   UNL     1       8.184  31.020  60.590  1.00  0.00     0.011 A 
HETATM    8  C   UNL     1       7.441  32.035  61.278  1.00  0.00     0.004 A 
HETATM    9  C   UNL     1       7.989  32.160  62.556  1.00  0.00     0.043 A 
HETATM   10  C   UNL     1       6.358  32.871  60.929  1.00  0.00     0.014 A 
HETATM   11  C   UNL     1       7.512  33.077  63.500  1.00  0.00     0.030 A 
HETATM   12  N   UNL     1       9.014  31.248  62.649  1.00  0.00    -0.364 N 
HETATM   13  C   UNL     1       6.441  33.895  63.127  1.00  0.00     0.002 A 
HETATM   14  C   UNL     1       5.869  33.794  61.861  1.00  0.00     0.001 A 
HETATM   15  H   UNL     1       9.592  31.116  63.467  1.00  0.00     0.165 HD
HETATM   16  C   UNL     1       9.142  30.560  61.474  1.00  0.00     0.102 A 
ENDBRANCH   6   7
ENDBRANCH   2   5
BRANCH   1  17
HETATM   17  C   UNL     1       7.303  27.824  55.659  1.00  0.00     0.280 C 
BRANCH  17  18
HETATM   18  O   UNL     1       6.566  26.623  55.445  1.00  0.00    -0.341 OA
BRANCH  18  19
HETATM   19  C   UNL     1       7.302  25.468  55.527  1.00  0.00     0.076 A 
HETATM   20  C   UNL     1       7.457  24.713  54.347  1.00  0.00    -0.021 A 
HETATM   21  C   UNL     1       8.242  23.547  54.404  1.00  0.00     0.010 A 
HETATM   22  C   UNL     1       8.810  23.119  55.605  1.00  0.00     0.001 A 
HETATM   23  C   UNL     1       8.599  23.844  56.773  1.00  0.00     0.003 A 
HETATM   24  C   UNL     1       7.841  25.014  56.737  1.00  0.00     0.037 A 
BRANCH  20  25
HETATM   25  C   UNL     1       6.827  25.180  53.041  1.00  0.00     0.013 C 
HETATM   26  C   UNL     1       5.424  24.618  52.781  1.00  0.00     0.015 C 
HETATM   27  C   UNL     1       7.752  24.865  51.863  1.00  0.00     0.015 C 
ENDBRANCH  20  25
ENDBRANCH  18  19
ENDBRANCH  17  18
ENDBRANCH   1  17
TORSDOF 6
ENDMDL
MODEL 9
REMARK VINA RESULT:      -8.3      2.286      9.817
REMARK  6 active torsions:
REMARK  status: ('A' for Active; 'I' for Inactive)
REMARK    1  A    between atoms: C_2  and  C_3 
REMARK    2  A    between atoms: C_4  and  O_5 
REMARK    3  A    between atoms: O_5  and  C_6 
REMARK    4  A    between atoms: C_6  and  C_7 
REMARK       I    between atoms: C_7  and  N_8 
REMARK    5  A    between atoms: N_8  and  N_9 
REMARK    6  A    between atoms: C_10  and  C_11 
ROOT
HETATM    1  C   UNL     1       7.727  28.351  56.896  1.00  0.00     0.261 C 
HETATM    2  N   UNL     1       6.943  27.640  55.996  1.00  0.00    -0.246 N 
HETATM    3  O   UNL     1       8.943  28.260  57.045  1.00  0.00    -0.269 OA
HETATM    4  H   UNL     1       5.944  27.835  55.990  1.00  0.00     0.192 HD
ENDROOT
BRANCH   2   5
HETATM    5  N   UNL     1       7.318  26.658  55.119  1.00  0.00    -0.184 NA
HETATM    6  C   UNL     1       6.894  25.445  55.261  1.00  0.00     0.152 C 
BRANCH   6   7
HETATM    7  C   UNL     1       7.314  24.442  54.297  1.00  0.00     0.011 A 
HETATM    8  C   UNL     1       7.564  23.053  54.546  1.00  0.00     0.004 A 
HETATM    9  C   UNL     1       7.963  22.477  53.338  1.00  0.00     0.043 A 
HETATM   10  C   UNL     1       7.498  22.229  55.691  1.00  0.00     0.014 A 
HETATM   11  C   UNL     1       8.302  21.123  53.218  1.00  0.00     0.030 A 
HETATM   12  N   UNL     1       7.945  23.471  52.389  1.00  0.00    -0.364 N 
HETATM   13  C   UNL     1       8.232  20.332  54.368  1.00  0.00     0.002 A 
HETATM   14  C   UNL     1       7.834  20.874  55.588  1.00  0.00     0.001 A 
HETATM   15  H   UNL     1       8.189  23.342  51.417  1.00  0.00     0.165 HD
HETATM   16  C   UNL     1       7.559  24.657  52.953  1.00  0.00     0.102 A 
ENDBRANCH   6   7
ENDBRANCH   2   5
BRANCH   1  17
HETATM   17  C   UNL     1       6.884  29.252  57.796  1.00  0.00     0.280 C 
BRANCH  17  18
HETATM   18  O   UNL     1       7.474  30.542  57.949  1.00  0.00    -0.341 OA
BRANCH  18  19
HETATM   19  C   UNL     1       6.850  31.361  58.857  1.00  0.00     0.076 A 
HETATM   20  C   UNL     1       7.522  31.615  60.069  1.00  0.00    -0.021 A 
HETATM   21  C   UNL     1       6.915  32.484  60.994  1.00  0.00     0.010 A 
HETATM   22  C   UNL     1       5.659  33.040  60.743  1.00  0.00     0.001 A 
HETATM   23  C   UNL     1       4.983  32.732  59.568  1.00  0.00     0.003 A 
HETATM   24  C   UNL     1       5.574  31.888  58.627  1.00  0.00     0.037 A 
BRANCH  20  25
HETATM   25  C   UNL     1       8.889  31.000  60.341  1.00  0.00     0.013 C 
HETATM   26  C   UNL     1       9.120  30.599  61.803  1.00  0.00     0.015 C 
HETATM   27  C   UNL     1      10.000  31.941  59.867  1.00  0.00     0.015 C 
ENDBRANCH  20  25
ENDBRANCH  18  19
ENDBRANCH  17  18
ENDBRANCH   1  17
TORSDOF 6
ENDMDL
MODEL 10
REMARK VINA RESULT:      -8.3      6.092      9.145
REMARK  6 active torsions:
REMARK  status: ('A' for Active; 'I' for Inactive)
REMARK    1  A    between atoms: C_2  and  C_3 
REMARK    2  A    between atoms: C_4  and  O_5 
REMARK    3  A    between atoms: O_5  and  C_6 
REMARK    4  A    between atoms: C_6  and  C_7 
REMARK       I    between atoms: C_7  and  N_8 
REMARK    5  A    between atoms: N_8  and  N_9 
REMARK    6  A    between atoms: C_10  and  C_11 
ROOT
HETATM    1  C   UNL     1       5.976  25.832  51.762  1.00  0.00     0.261 C 
HETATM    2  N   UNL     1       5.781  26.099  50.413  1.00  0.00    -0.246 N 
HETATM    3  O   UNL     1       5.192  26.064  52.679  1.00  0.00    -0.269 OA
HETATM    4  H   UNL     1       6.528  25.841  49.772  1.00  0.00     0.192 HD
ENDROOT
BRANCH   2   5
HETATM    5  N   UNL     1       4.720  26.714  49.803  1.00  0.00    -0.184 NA
HETATM    6  C   UNL     1       4.392  26.418  48.588  1.00  0.00     0.152 C 
BRANCH   6   7
HETATM    7  C   UNL     1       3.252  27.093  47.990  1.00  0.00     0.011 A 
HETATM    8  C   UNL     1       3.219  28.419  47.446  1.00  0.00     0.004 A 
HETATM    9  C   UNL     1       1.917  28.656  47.001  1.00  0.00     0.043 A 
HETATM   10  C   UNL     1       4.174  29.448  47.300  1.00  0.00     0.014 A 
HETATM   11  C   UNL     1       1.521  29.867  46.421  1.00  0.00     0.030 A 
HETATM   12  N   UNL     1       1.189  27.516  47.250  1.00  0.00    -0.364 N 
HETATM   13  C   UNL     1       2.486  30.870  46.291  1.00  0.00     0.002 A 
HETATM   14  C   UNL     1       3.795  30.666  46.722  1.00  0.00     0.001 A 
HETATM   15  H   UNL     1       0.210  27.400  47.030  1.00  0.00     0.165 HD
HETATM   16  C   UNL     1       1.980  26.571  47.846  1.00  0.00     0.102 A 
ENDBRANCH   6   7
ENDBRANCH   2   5
BRANCH   1  17
HETATM   17  C   UNL     1       7.368  25.265  52.035  1.00  0.00     0.280 C 
BRANCH  17  18
HETATM   18  O   UNL     1       7.589  25.062  53.429  1.00  0.00    -0.341 OA
BRANCH  18  19
HETATM   19  C   UNL     1       7.728  23.751  53.809  1.00  0.00     0.076 A 
HETATM   20  C   UNL     1       7.881  23.488  55.185  1.00  0.00    -0.021 A 
HETATM   21  C   UNL     1       7.985  22.147  55.597  1.00  0.00     0.010 A 
HETATM   22  C   UNL     1       7.989  21.106  54.666  1.00  0.00     0.001 A 
HETATM   23  C   UNL     1       7.895  21.386  53.307  1.00  0.00     0.003 A 
HETATM   24  C   UNL     1       7.771  22.707  52.877  1.00  0.00     0.037 A 
BRANCH  20  25
HETATM   25  C   UNL     1       7.885  24.628  56.195  1.00  0.00     0.013 C 
HETATM   26  C   UNL     1       8.887  24.450  57.343  1.00  0.00     0.015 C 
HETATM   27  C   UNL     1       6.476  24.852  56.750  1.00  0.00     0.015 C 
ENDBRANCH  20  25
ENDBRANCH  18  19
ENDBRANCH  17  18
ENDBRANCH   1  17
TORSDOF 6
ENDMDL
