MODEL 1
REMARK VINA RESULT:     -11.1      0.000      0.000
REMARK  2 active torsions:
REMARK  status: ('A' for Active; 'I' for Inactive)
REMARK    1  A    between atoms: C_7  and  C_8 
REMARK       I    between atoms: C_8  and  N_9 
REMARK    2  A    between atoms: N_9  and  N_10 
ROOT
HETATM    1  C   UNL     1       6.649  27.814  54.137  1.00  0.00     0.292 C 
HETATM    2  N   UNL     1       6.024  27.863  52.900  1.00  0.00    -0.241 N 
HETATM    3  O   UNL     1       7.110  28.771  54.752  1.00  0.00    -0.264 OA
HETATM    4  H   UNL     1       5.813  26.961  52.487  1.00  0.00     0.192 HD
ENDROOT
BRANCH   1   5
HETATM    5  C   UNL     1       6.696  26.435  54.659  1.00  0.00     0.154 A 
HETATM    6  C   UNL     1       7.228  25.283  54.029  1.00  0.00     0.007 A 
HETATM    7  C   UNL     1       7.065  24.254  54.928  1.00  0.00     0.069 A 
HETATM    8  C   UNL     1       7.891  25.070  52.713  1.00  0.00     0.048 C 
HETATM    9  C   UNL     1       7.478  22.882  54.691  1.00  0.00    -0.001 A 
HETATM   10  N   UNL     1       6.446  24.800  56.009  1.00  0.00    -0.276 N 
HETATM   11  C   UNL     1       7.871  22.562  53.368  1.00  0.00    -0.045 A 
HETATM   12  C   UNL     1       7.529  21.908  55.691  1.00  0.00     0.014 A 
HETATM   13  C   UNL     1       8.283  21.257  53.070  1.00  0.00     0.008 A 
HETATM   14  C   UNL     1       7.748  23.597  52.255  1.00  0.00     0.044 C 
HETATM   15  C   UNL     1       8.331  20.292  54.076  1.00  0.00     0.001 A 
HETATM   16  C   UNL     1       7.957  20.616  55.381  1.00  0.00     0.001 A 
HETATM   17  N   UNL     1       6.203  26.122  55.885  1.00  0.00    -0.168 NA
HETATM   18  H   UNL     1       6.154  24.332  56.860  1.00  0.00     0.189 HD
ENDBRANCH   1   5
BRANCH   2  19
HETATM   19  N   UNL     1       5.990  29.004  52.165  1.00  0.00    -0.165 NA
HETATM   20  C   UNL     1       5.652  28.948  50.916  1.00  0.00     0.157 A 
HETATM   21  C   UNL     1       5.749  30.203  50.020  1.00  0.00     0.277 A 
HETATM   22  C   UNL     1       5.156  27.874  50.039  1.00  0.00     0.027 A 
HETATM   23  O   UNL     1       6.083  31.315  50.361  1.00  0.00    -0.266 OA
HETATM   24  N   UNL     1       5.395  29.782  48.760  1.00  0.00    -0.321 N 
HETATM   25  C   UNL     1       5.043  28.439  48.764  1.00  0.00     0.048 A 
HETATM   26  H   UNL     1       5.368  30.406  47.968  1.00  0.00     0.169 HD
HETATM   27  C   UNL     1       4.601  27.716  47.673  1.00  0.00     0.030 A 
HETATM   28  C   UNL     1       4.249  26.382  47.884  1.00  0.00     0.002 A 
HETATM   29  C   UNL     1       4.331  25.812  49.167  1.00  0.00     0.001 A 
HETATM   30  C   UNL     1       4.778  26.562  50.262  1.00  0.00     0.016 A 
ENDBRANCH   2  19
TORSDOF 2
ENDMDL
MODEL 2
REMARK VINA RESULT:     -11.1      3.547      6.208
REMARK  2 active torsions:
REMARK  status: ('A' for Active; 'I' for Inactive)
REMARK    1  A    between atoms: C_7  and  C_8 
REMARK       I    between atoms: C_8  and  N_9 
REMARK    2  A    between atoms: N_9  and  N_10 
ROOT
HETATM    1  C   UNL     1       5.598  27.430  54.688  1.00  0.00     0.292 C 
HETATM    2  N   UNL     1       6.426  27.994  55.647  1.00  0.00    -0.241 N 
HETATM    3  O   UNL     1       4.493  27.844  54.354  1.00  0.00    -0.264 OA
HETATM    4  H   UNL     1       7.249  27.451  55.880  1.00  0.00     0.192 HD
ENDROOT
BRANCH   1   5
HETATM    5  C   UNL     1       6.217  26.236  54.082  1.00  0.00     0.154 A 
HETATM    6  C   UNL     1       6.568  25.020  54.718  1.00  0.00     0.007 A 
HETATM    7  C   UNL     1       7.080  24.212  53.728  1.00  0.00     0.069 A 
HETATM    8  C   UNL     1       6.439  24.543  56.122  1.00  0.00     0.048 C 
HETATM    9  C   UNL     1       7.564  22.859  53.938  1.00  0.00    -0.001 A 
HETATM   10  N   UNL     1       7.040  24.952  52.587  1.00  0.00    -0.276 N 
HETATM   11  C   UNL     1       7.712  22.446  55.285  1.00  0.00    -0.045 A 
HETATM   12  C   UNL     1       7.851  21.973  52.898  1.00  0.00     0.014 A 
HETATM   13  C   UNL     1       8.174  21.153  55.560  1.00  0.00     0.008 A 
HETATM   14  C   UNL     1       7.473  23.430  56.425  1.00  0.00     0.044 C 
HETATM   15  C   UNL     1       8.457  20.274  54.515  1.00  0.00     0.001 A 
HETATM   16  C   UNL     1       8.296  20.681  53.189  1.00  0.00     0.001 A 
HETATM   17  N   UNL     1       6.524  26.188  52.761  1.00  0.00    -0.168 NA
HETATM   18  H   UNL     1       7.352  24.684  51.660  1.00  0.00     0.189 HD
ENDBRANCH   1   5
BRANCH   2  19
HETATM   19  N   UNL     1       6.007  29.017  56.436  1.00  0.00    -0.165 NA
HETATM   20  C   UNL     1       6.880  29.735  57.068  1.00  0.00     0.157 A 
HETATM   21  C   UNL     1       6.427  30.805  58.085  1.00  0.00     0.277 A 
HETATM   22  C   UNL     1       8.352  29.785  57.071  1.00  0.00     0.027 A 
HETATM   23  O   UNL     1       5.288  31.113  58.358  1.00  0.00    -0.266 OA
HETATM   24  N   UNL     1       7.586  31.317  58.620  1.00  0.00    -0.321 N 
HETATM   25  C   UNL     1       8.703  30.738  58.034  1.00  0.00     0.048 A 
HETATM   26  H   UNL     1       7.586  32.045  59.317  1.00  0.00     0.169 HD
HETATM   27  C   UNL     1      10.019  31.054  58.313  1.00  0.00     0.030 A 
HETATM   28  C   UNL     1      11.008  30.393  57.584  1.00  0.00     0.002 A 
HETATM   29  C   UNL     1      10.666  29.455  56.594  1.00  0.00     0.001 A 
HETATM   30  C   UNL     1       9.326  29.150  56.322  1.00  0.00     0.016 A 
ENDBRANCH   2  19
TORSDOF 2
ENDMDL
MODEL 3
REMARK VINA RESULT:     -11.0      3.226      3.977
REMARK  2 active torsions:
REMARK  status: ('A' for Active; 'I' for Inactive)
REMARK    1  A    between atoms: C_7  and  C_8 
REMARK       I    between atoms: C_8  and  N_9 
REMARK    2  A    between atoms: N_9  and  N_10 
ROOT
HETATM    1  C   UNL     1       7.925  27.346  57.100  1.00  0.00     0.292 C 
HETATM    2  N   UNL     1       6.617  27.722  57.366  1.00  0.00    -0.241 N 
HETATM    3  O   UNL     1       8.881  28.103  56.964  1.00  0.00    -0.264 OA
HETATM    4  H   UNL     1       5.935  26.973  57.326  1.00  0.00     0.192 HD
ENDROOT
BRANCH   1   5
HETATM    5  C   UNL     1       8.050  25.879  57.003  1.00  0.00     0.154 A 
HETATM    6  C   UNL     1       7.953  25.072  55.842  1.00  0.00     0.007 A 
HETATM    7  C   UNL     1       8.173  23.780  56.263  1.00  0.00     0.069 A 
HETATM    8  C   UNL     1       7.716  25.393  54.408  1.00  0.00     0.048 C 
HETATM    9  C   UNL     1       8.169  22.619  55.391  1.00  0.00    -0.001 A 
HETATM   10  N   UNL     1       8.363  23.856  57.608  1.00  0.00    -0.276 N 
HETATM   11  C   UNL     1       7.693  22.823  54.073  1.00  0.00    -0.045 A 
HETATM   12  C   UNL     1       8.629  21.360  55.782  1.00  0.00     0.014 A 
HETATM   13  C   UNL     1       7.663  21.746  53.178  1.00  0.00     0.008 A 
HETATM   14  C   UNL     1       7.120  24.175  53.660  1.00  0.00     0.044 C 
HETATM   15  C   UNL     1       8.124  20.492  53.578  1.00  0.00     0.001 A 
HETATM   16  C   UNL     1       8.607  20.299  54.873  1.00  0.00     0.001 A 
HETATM   17  N   UNL     1       8.295  25.113  58.096  1.00  0.00    -0.168 NA
HETATM   18  H   UNL     1       8.537  23.094  58.255  1.00  0.00     0.189 HD
ENDBRANCH   1   5
BRANCH   2  19
HETATM   19  N   UNL     1       6.236  29.026  57.358  1.00  0.00    -0.165 NA
HETATM   20  C   UNL     1       5.610  29.502  56.329  1.00  0.00     0.157 A 
HETATM   21  C   UNL     1       5.299  31.011  56.231  1.00  0.00     0.277 A 
HETATM   22  C   UNL     1       5.074  28.906  55.094  1.00  0.00     0.027 A 
HETATM   23  O   UNL     1       5.540  31.859  57.060  1.00  0.00    -0.266 OA
HETATM   24  N   UNL     1       4.707  31.184  55.001  1.00  0.00    -0.321 N 
HETATM   25  C   UNL     1       4.567  29.971  54.341  1.00  0.00     0.048 A 
HETATM   26  H   UNL     1       4.394  32.084  54.672  1.00  0.00     0.169 HD
HETATM   27  C   UNL     1       3.978  29.786  53.105  1.00  0.00     0.030 A 
HETATM   28  C   UNL     1       3.888  28.479  52.624  1.00  0.00     0.002 A 
HETATM   29  C   UNL     1       4.368  27.399  53.385  1.00  0.00     0.001 A 
HETATM   30  C   UNL     1       4.959  27.605  54.638  1.00  0.00     0.016 A 
ENDBRANCH   2  19
TORSDOF 2
ENDMDL
MODEL 4
REMARK VINA RESULT:     -10.5      4.028      6.237
REMARK  2 active torsions:
REMARK  status: ('A' for Active; 'I' for Inactive)
REMARK    1  A    between atoms: C_7  and  C_8 
REMARK       I    between atoms: C_8  and  N_9 
REMARK    2  A    between atoms: N_9  and  N_10 
ROOT
HETATM    1  C   UNL     1       7.018  27.483  55.793  1.00  0.00     0.292 C 
HETATM    2  N   UNL     1       5.965  27.963  56.557  1.00  0.00    -0.241 N 
HETATM    3  O   UNL     1       7.644  28.116  54.949  1.00  0.00    -0.264 OA
HETATM    4  H   UNL     1       5.486  27.266  57.117  1.00  0.00     0.192 HD
ENDROOT
BRANCH   1   5
HETATM    5  C   UNL     1       7.321  26.077  56.121  1.00  0.00     0.154 A 
HETATM    6  C   UNL     1       7.533  25.000  55.226  1.00  0.00     0.007 A 
HETATM    7  C   UNL     1       7.813  23.907  56.014  1.00  0.00     0.069 A 
HETATM    8  C   UNL     1       7.534  24.910  53.740  1.00  0.00     0.048 C 
HETATM    9  C   UNL     1       8.101  22.577  55.503  1.00  0.00    -0.001 A 
HETATM   10  N   UNL     1       7.739  24.346  57.299  1.00  0.00    -0.276 N 
HETATM   11  C   UNL     1       7.859  22.367  54.123  1.00  0.00    -0.045 A 
HETATM   12  C   UNL     1       8.616  21.545  56.289  1.00  0.00     0.014 A 
HETATM   13  C   UNL     1       8.117  21.109  53.565  1.00  0.00     0.008 A 
HETATM   14  C   UNL     1       7.227  23.465  53.274  1.00  0.00     0.044 C 
HETATM   15  C   UNL     1       8.632  20.084  54.358  1.00  0.00     0.001 A 
HETATM   16  C   UNL     1       8.882  20.300  55.714  1.00  0.00     0.001 A 
HETATM   17  N   UNL     1       7.441  25.659  57.407  1.00  0.00    -0.168 NA
HETATM   18  H   UNL     1       7.872  23.808  58.148  1.00  0.00     0.189 HD
ENDBRANCH   1   5
BRANCH   2  19
HETATM   19  N   UNL     1       5.418  29.185  56.329  1.00  0.00    -0.165 NA
HETATM   20  C   UNL     1       5.783  30.192  57.056  1.00  0.00     0.157 A 
HETATM   21  C   UNL     1       5.072  31.556  56.919  1.00  0.00     0.277 A 
HETATM   22  C   UNL     1       6.804  30.383  58.100  1.00  0.00     0.027 A 
HETATM   23  O   UNL     1       4.188  31.841  56.141  1.00  0.00    -0.266 OA
HETATM   24  N   UNL     1       5.643  32.366  57.872  1.00  0.00    -0.321 N 
HETATM   25  C   UNL     1       6.650  31.697  58.555  1.00  0.00     0.048 A 
HETATM   26  H   UNL     1       5.367  33.327  58.004  1.00  0.00     0.169 HD
HETATM   27  C   UNL     1       7.449  32.233  59.546  1.00  0.00     0.030 A 
HETATM   28  C   UNL     1       8.443  31.415  60.084  1.00  0.00     0.002 A 
HETATM   29  C   UNL     1       8.626  30.103  59.614  1.00  0.00     0.001 A 
HETATM   30  C   UNL     1       7.809  29.577  58.605  1.00  0.00     0.016 A 
ENDBRANCH   2  19
TORSDOF 2
ENDMDL
MODEL 5
REMARK VINA RESULT:     -10.4      1.733      2.299
REMARK  2 active torsions:
REMARK  status: ('A' for Active; 'I' for Inactive)
REMARK    1  A    between atoms: C_7  and  C_8 
REMARK       I    between atoms: C_8  and  N_9 
REMARK    2  A    between atoms: N_9  and  N_10 
ROOT
HETATM    1  C   UNL     1       6.440  27.012  53.172  1.00  0.00     0.292 C 
HETATM    2  N   UNL     1       5.096  26.998  52.827  1.00  0.00    -0.241 N 
HETATM    3  O   UNL     1       7.091  27.998  53.501  1.00  0.00    -0.264 OA
HETATM    4  H   UNL     1       4.753  26.116  52.465  1.00  0.00     0.192 HD
ENDROOT
BRANCH   1   5
HETATM    5  C   UNL     1       7.023  25.658  53.104  1.00  0.00     0.154 A 
HETATM    6  C   UNL     1       7.156  24.715  54.153  1.00  0.00     0.007 A 
HETATM    7  C   UNL     1       7.728  23.599  53.583  1.00  0.00     0.069 A 
HETATM    8  C   UNL     1       6.776  24.745  55.591  1.00  0.00     0.048 C 
HETATM    9  C   UNL     1       8.043  22.378  54.303  1.00  0.00    -0.001 A 
HETATM   10  N   UNL     1       7.928  23.912  52.274  1.00  0.00    -0.276 N 
HETATM   11  C   UNL     1       7.950  22.438  55.715  1.00  0.00    -0.045 A 
HETATM   12  C   UNL     1       8.393  21.181  53.675  1.00  0.00     0.014 A 
HETATM   13  C   UNL     1       8.238  21.295  56.472  1.00  0.00     0.008 A 
HETATM   14  C   UNL     1       7.641  23.758  56.413  1.00  0.00     0.044 C 
HETATM   15  C   UNL     1       8.586  20.104  55.835  1.00  0.00     0.001 A 
HETATM   16  C   UNL     1       8.662  20.046  54.443  1.00  0.00     0.001 A 
HETATM   17  N   UNL     1       7.515  25.154  51.944  1.00  0.00    -0.168 NA
HETATM   18  H   UNL     1       8.346  23.333  51.554  1.00  0.00     0.189 HD
ENDBRANCH   1   5
BRANCH   2  19
HETATM   19  N   UNL     1       4.388  28.148  52.682  1.00  0.00    -0.165 NA
HETATM   20  C   UNL     1       4.059  28.548  51.495  1.00  0.00     0.157 A 
HETATM   21  C   UNL     1       3.386  29.923  51.290  1.00  0.00     0.277 A 
HETATM   22  C   UNL     1       4.190  27.969  50.148  1.00  0.00     0.027 A 
HETATM   23  O   UNL     1       3.064  30.711  52.152  1.00  0.00    -0.266 OA
HETATM   24  N   UNL     1       3.246  30.064  49.930  1.00  0.00    -0.321 N 
HETATM   25  C   UNL     1       3.702  28.936  49.262  1.00  0.00     0.048 A 
HETATM   26  H   UNL     1       2.826  30.880  49.510  1.00  0.00     0.169 HD
HETATM   27  C   UNL     1       3.668  28.735  47.896  1.00  0.00     0.030 A 
HETATM   28  C   UNL     1       4.132  27.511  47.413  1.00  0.00     0.002 A 
HETATM   29  C   UNL     1       4.598  26.521  48.295  1.00  0.00     0.001 A 
HETATM   30  C   UNL     1       4.621  26.740  49.679  1.00  0.00     0.016 A 
ENDBRANCH   2  19
TORSDOF 2
ENDMDL
MODEL 6
REMARK VINA RESULT:     -10.0      2.117      7.239
REMARK  2 active torsions:
REMARK  status: ('A' for Active; 'I' for Inactive)
REMARK    1  A    between atoms: C_7  and  C_8 
REMARK       I    between atoms: C_8  and  N_9 
REMARK    2  A    between atoms: N_9  and  N_10 
ROOT
HETATM    1  C   UNL     1       5.843  27.245  55.303  1.00  0.00     0.292 C 
HETATM    2  N   UNL     1       7.214  27.045  55.358  1.00  0.00    -0.241 N 
HETATM    3  O   UNL     1       5.031  26.922  56.164  1.00  0.00    -0.264 OA
HETATM    4  H   UNL     1       7.716  27.265  54.504  1.00  0.00     0.192 HD
ENDROOT
BRANCH   1   5
HETATM    5  C   UNL     1       5.450  27.921  54.052  1.00  0.00     0.154 A 
HETATM    6  C   UNL     1       5.124  27.328  52.807  1.00  0.00     0.007 A 
HETATM    7  C   UNL     1       4.796  28.370  51.970  1.00  0.00     0.069 A 
HETATM    8  C   UNL     1       5.057  25.913  52.352  1.00  0.00     0.048 C 
HETATM    9  C   UNL     1       4.390  28.215  50.583  1.00  0.00    -0.001 A 
HETATM   10  N   UNL     1       4.953  29.503  52.706  1.00  0.00    -0.276 N 
HETATM   11  C   UNL     1       4.561  26.927  50.018  1.00  0.00    -0.045 A 
HETATM   12  C   UNL     1       3.832  29.244  49.823  1.00  0.00     0.014 A 
HETATM   13  C   UNL     1       4.189  26.706  48.686  1.00  0.00     0.008 A 
HETATM   14  C   UNL     1       5.238  25.817  50.817  1.00  0.00     0.044 C 
HETATM   15  C   UNL     1       3.631  27.741  47.935  1.00  0.00     0.001 A 
HETATM   16  C   UNL     1       3.452  29.004  48.501  1.00  0.00     0.001 A 
HETATM   17  N   UNL     1       5.351  29.273  53.976  1.00  0.00    -0.168 NA
HETATM   18  H   UNL     1       4.815  30.462  52.409  1.00  0.00     0.189 HD
ENDBRANCH   1   5
BRANCH   2  19
HETATM   19  N   UNL     1       7.788  26.316  56.349  1.00  0.00    -0.165 NA
HETATM   20  C   UNL     1       8.066  25.068  56.144  1.00  0.00     0.157 A 
HETATM   21  C   UNL     1       8.580  24.180  57.298  1.00  0.00     0.277 A 
HETATM   22  C   UNL     1       7.999  24.186  54.967  1.00  0.00     0.027 A 
HETATM   23  O   UNL     1       8.812  24.527  58.435  1.00  0.00    -0.266 OA
HETATM   24  N   UNL     1       8.700  22.919  56.764  1.00  0.00    -0.321 N 
HETATM   25  C   UNL     1       8.373  22.915  55.416  1.00  0.00     0.048 A 
HETATM   26  H   UNL     1       9.024  22.130  57.304  1.00  0.00     0.169 HD
HETATM   27  C   UNL     1       8.426  21.822  54.573  1.00  0.00     0.030 A 
HETATM   28  C   UNL     1       8.102  22.026  53.231  1.00  0.00     0.002 A 
HETATM   29  C   UNL     1       7.753  23.305  52.763  1.00  0.00     0.001 A 
HETATM   30  C   UNL     1       7.708  24.404  53.631  1.00  0.00     0.016 A 
ENDBRANCH   2  19
TORSDOF 2
ENDMDL
MODEL 7
REMARK VINA RESULT:     -10.0      2.148      7.971
REMARK  2 active torsions:
REMARK  status: ('A' for Active; 'I' for Inactive)
REMARK    1  A    between atoms: C_7  and  C_8 
REMARK       I    between atoms: C_8  and  N_9 
REMARK    2  A    between atoms: N_9  and  N_10 
ROOT
HETATM    1  C   UNL     1       5.975  26.947  53.913  1.00  0.00     0.292 C 
HETATM    2  N   UNL     1       7.110  26.186  54.150  1.00  0.00    -0.241 N 
HETATM    3  O   UNL     1       5.357  27.601  54.747  1.00  0.00    -0.264 OA
HETATM    4  H   UNL     1       7.418  25.616  53.370  1.00  0.00     0.192 HD
ENDROOT
BRANCH   1   5
HETATM    5  C   UNL     1       5.579  26.890  52.493  1.00  0.00     0.154 A 
HETATM    6  C   UNL     1       4.637  27.705  51.819  1.00  0.00     0.007 A 
HETATM    7  C   UNL     1       4.647  27.284  50.508  1.00  0.00     0.069 A 
HETATM    8  C   UNL     1       3.778  28.835  52.267  1.00  0.00     0.048 C 
HETATM    9  C   UNL     1       3.826  27.855  49.454  1.00  0.00    -0.001 A 
HETATM   10  N   UNL     1       5.541  26.260  50.453  1.00  0.00    -0.276 N 
HETATM   11  C   UNL     1       2.804  28.747  49.866  1.00  0.00    -0.045 A 
HETATM   12  C   UNL     1       4.017  27.589  48.097  1.00  0.00     0.014 A 
HETATM   13  C   UNL     1       1.976  29.335  48.902  1.00  0.00     0.008 A 
HETATM   14  C   UNL     1       2.540  28.985  51.349  1.00  0.00     0.044 C 
HETATM   15  C   UNL     1       2.176  29.063  47.549  1.00  0.00     0.001 A 
HETATM   16  C   UNL     1       3.193  28.196  47.147  1.00  0.00     0.001 A 
HETATM   17  N   UNL     1       6.128  25.989  51.638  1.00  0.00    -0.168 NA
HETATM   18  H   UNL     1       5.795  25.699  49.648  1.00  0.00     0.189 HD
ENDBRANCH   1   5
BRANCH   2  19
HETATM   19  N   UNL     1       7.576  25.976  55.408  1.00  0.00    -0.165 NA
HETATM   20  C   UNL     1       7.833  24.768  55.799  1.00  0.00     0.157 A 
HETATM   21  C   UNL     1       8.220  24.485  57.267  1.00  0.00     0.277 A 
HETATM   22  C   UNL     1       7.839  23.456  55.130  1.00  0.00     0.027 A 
HETATM   23  O   UNL     1       8.365  25.300  58.151  1.00  0.00    -0.266 OA
HETATM   24  N   UNL     1       8.346  23.119  57.357  1.00  0.00    -0.321 N 
HETATM   25  C   UNL     1       8.135  22.517  56.124  1.00  0.00     0.048 A 
HETATM   26  H   UNL     1       8.599  22.653  58.215  1.00  0.00     0.169 HD
HETATM   27  C   UNL     1       8.226  21.165  55.857  1.00  0.00     0.030 A 
HETATM   28  C   UNL     1       8.023  20.753  54.540  1.00  0.00     0.002 A 
HETATM   29  C   UNL     1       7.754  21.691  53.527  1.00  0.00     0.001 A 
HETATM   30  C   UNL     1       7.669  23.059  53.815  1.00  0.00     0.016 A 
ENDBRANCH   2  19
TORSDOF 2
ENDMDL
MODEL 8
REMARK VINA RESULT:     -10.0      4.754      6.312
REMARK  2 active torsions:
REMARK  status: ('A' for Active; 'I' for Inactive)
REMARK    1  A    between atoms: C_7  and  C_8 
REMARK       I    between atoms: C_8  and  N_9 
REMARK    2  A    between atoms: N_9  and  N_10 
ROOT
HETATM    1  C   UNL     1       7.884  26.609  57.385  1.00  0.00     0.292 C 
HETATM    2  N   UNL     1       8.291  27.902  57.095  1.00  0.00    -0.241 N 
HETATM    3  O   UNL     1       7.558  26.185  58.490  1.00  0.00    -0.264 OA
HETATM    4  H   UNL     1       8.639  28.044  56.153  1.00  0.00     0.192 HD
ENDROOT
BRANCH   1   5
HETATM    5  C   UNL     1       7.877  25.765  56.175  1.00  0.00     0.154 A 
HETATM    6  C   UNL     1       8.073  24.364  56.089  1.00  0.00     0.007 A 
HETATM    7  C   UNL     1       7.942  24.048  54.756  1.00  0.00     0.069 A 
HETATM    8  C   UNL     1       8.328  23.317  57.116  1.00  0.00     0.048 C 
HETATM    9  C   UNL     1       8.064  22.707  54.213  1.00  0.00    -0.001 A 
HETATM   10  N   UNL     1       7.706  25.226  54.116  1.00  0.00    -0.276 N 
HETATM   11  C   UNL     1       8.563  21.715  55.092  1.00  0.00    -0.045 A 
HETATM   12  C   UNL     1       7.693  22.365  52.911  1.00  0.00     0.014 A 
HETATM   13  C   UNL     1       8.705  20.399  54.635  1.00  0.00     0.008 A 
HETATM   14  C   UNL     1       9.040  22.093  56.491  1.00  0.00     0.044 C 
HETATM   15  C   UNL     1       8.331  20.068  53.332  1.00  0.00     0.001 A 
HETATM   16  C   UNL     1       7.827  21.045  52.474  1.00  0.00     0.001 A 
HETATM   17  N   UNL     1       7.661  26.292  54.943  1.00  0.00    -0.168 NA
HETATM   18  H   UNL     1       7.573  25.378  53.123  1.00  0.00     0.189 HD
ENDBRANCH   1   5
BRANCH   2  19
HETATM   19  N   UNL     1       8.509  28.817  58.075  1.00  0.00    -0.165 NA
HETATM   20  C   UNL     1       7.635  29.749  58.283  1.00  0.00     0.157 A 
HETATM   21  C   UNL     1       7.926  30.886  59.287  1.00  0.00     0.277 A 
HETATM   22  C   UNL     1       6.297  30.036  57.739  1.00  0.00     0.027 A 
HETATM   23  O   UNL     1       8.910  31.008  59.982  1.00  0.00    -0.266 OA
HETATM   24  N   UNL     1       6.844  31.730  59.210  1.00  0.00    -0.321 N 
HETATM   25  C   UNL     1       5.894  31.242  58.322  1.00  0.00     0.048 A 
HETATM   26  H   UNL     1       6.767  32.566  59.768  1.00  0.00     0.169 HD
HETATM   27  C   UNL     1       4.673  31.825  58.042  1.00  0.00     0.030 A 
HETATM   28  C   UNL     1       3.830  31.159  57.153  1.00  0.00     0.002 A 
HETATM   29  C   UNL     1       4.212  29.932  56.583  1.00  0.00     0.001 A 
HETATM   30  C   UNL     1       5.453  29.352  56.882  1.00  0.00     0.016 A 
ENDBRANCH   2  19
TORSDOF 2
ENDMDL
MODEL 9
REMARK VINA RESULT:     -10.0      3.272      4.618
REMARK  2 active torsions:
REMARK  status: ('A' for Active; 'I' for Inactive)
REMARK    1  A    between atoms: C_7  and  C_8 
REMARK       I    between atoms: C_8  and  N_9 
REMARK    2  A    between atoms: N_9  and  N_10 
ROOT
HETATM    1  C   UNL     1       7.025  27.547  56.064  1.00  0.00     0.292 C 
HETATM    2  N   UNL     1       5.694  27.539  56.456  1.00  0.00    -0.241 N 
HETATM    3  O   UNL     1       7.871  28.371  56.397  1.00  0.00    -0.264 OA
HETATM    4  H   UNL     1       5.111  26.854  55.988  1.00  0.00     0.192 HD
ENDROOT
BRANCH   1   5
HETATM    5  C   UNL     1       7.328  26.409  55.175  1.00  0.00     0.154 A 
HETATM    6  C   UNL     1       7.509  25.050  55.532  1.00  0.00     0.007 A 
HETATM    7  C   UNL     1       7.738  24.379  54.352  1.00  0.00     0.069 A 
HETATM    8  C   UNL     1       7.455  24.334  56.836  1.00  0.00     0.048 C 
HETATM    9  C   UNL     1       7.973  22.950  54.250  1.00  0.00    -0.001 A 
HETATM   10  N   UNL     1       7.708  25.325  53.375  1.00  0.00    -0.276 N 
HETATM   11  C   UNL     1       8.195  22.260  55.468  1.00  0.00    -0.045 A 
HETATM   12  C   UNL     1       7.961  22.250  53.042  1.00  0.00     0.014 A 
HETATM   13  C   UNL     1       8.427  20.879  55.444  1.00  0.00     0.008 A 
HETATM   14  C   UNL     1       8.283  23.027  56.784  1.00  0.00     0.044 C 
HETATM   15  C   UNL     1       8.412  20.189  54.232  1.00  0.00     0.001 A 
HETATM   16  C   UNL     1       8.179  20.870  53.036  1.00  0.00     0.001 A 
HETATM   17  N   UNL     1       7.463  26.572  53.834  1.00  0.00    -0.168 NA
HETATM   18  H   UNL     1       7.852  25.197  52.380  1.00  0.00     0.189 HD
ENDBRANCH   1   5
BRANCH   2  19
HETATM   19  N   UNL     1       5.154  28.567  57.159  1.00  0.00    -0.165 NA
HETATM   20  C   UNL     1       4.544  29.520  56.529  1.00  0.00     0.157 A 
HETATM   21  C   UNL     1       4.051  30.772  57.289  1.00  0.00     0.277 A 
HETATM   22  C   UNL     1       4.171  29.740  55.122  1.00  0.00     0.027 A 
HETATM   23  O   UNL     1       4.128  30.977  58.479  1.00  0.00    -0.266 OA
HETATM   24  N   UNL     1       3.527  31.602  56.326  1.00  0.00    -0.321 N 
HETATM   25  C   UNL     1       3.586  31.010  55.072  1.00  0.00     0.048 A 
HETATM   26  H   UNL     1       3.126  32.501  56.545  1.00  0.00     0.169 HD
HETATM   27  C   UNL     1       3.110  31.557  53.896  1.00  0.00     0.030 A 
HETATM   28  C   UNL     1       3.218  30.787  52.737  1.00  0.00     0.002 A 
HETATM   29  C   UNL     1       3.778  29.498  52.781  1.00  0.00     0.001 A 
HETATM   30  C   UNL     1       4.252  28.958  53.983  1.00  0.00     0.016 A 
ENDBRANCH   2  19
TORSDOF 2
ENDMDL
MODEL 10
REMARK VINA RESULT:     -10.0      4.751      8.282
REMARK  2 active torsions:
REMARK  status: ('A' for Active; 'I' for Inactive)
REMARK    1  A    between atoms: C_7  and  C_8 
REMARK       I    between atoms: C_8  and  N_9 
REMARK    2  A    between atoms: N_9  and  N_10 
ROOT
HETATM    1  C   UNL     1       7.822  28.537  55.394  1.00  0.00     0.292 C 
HETATM    2  N   UNL     1       6.662  27.830  55.669  1.00  0.00    -0.241 N 
HETATM    3  O   UNL     1       8.339  28.675  54.290  1.00  0.00    -0.264 OA
HETATM    4  H   UNL     1       6.448  27.719  56.654  1.00  0.00     0.192 HD
ENDROOT
BRANCH   1   5
HETATM    5  C   UNL     1       8.387  29.137  56.618  1.00  0.00     0.154 A 
HETATM    6  C   UNL     1       7.725  29.939  57.580  1.00  0.00     0.007 A 
HETATM    7  C   UNL     1       8.666  30.222  58.544  1.00  0.00     0.069 A 
HETATM    8  C   UNL     1       6.321  30.420  57.697  1.00  0.00     0.048 C 
HETATM    9  C   UNL     1       8.413  31.023  59.729  1.00  0.00    -0.001 A 
HETATM   10  N   UNL     1       9.815  29.625  58.129  1.00  0.00    -0.276 N 
HETATM   11  C   UNL     1       7.182  31.723  59.765  1.00  0.00    -0.045 A 
HETATM   12  C   UNL     1       9.295  31.101  60.809  1.00  0.00     0.014 A 
HETATM   13  C   UNL     1       6.873  32.513  60.880  1.00  0.00     0.008 A 
HETATM   14  C   UNL     1       6.247  31.703  58.560  1.00  0.00     0.044 C 
HETATM   15  C   UNL     1       7.760  32.585  61.953  1.00  0.00     0.001 A 
HETATM   16  C   UNL     1       8.965  31.881  61.920  1.00  0.00     0.001 A 
HETATM   17  N   UNL     1       9.688  28.956  56.962  1.00  0.00    -0.168 NA
HETATM   18  H   UNL     1      10.721  29.636  58.584  1.00  0.00     0.189 HD
ENDBRANCH   1   5
BRANCH   2  19
HETATM   19  N   UNL     1       6.046  27.076  54.722  1.00  0.00    -0.165 NA
HETATM   20  C   UNL     1       6.359  25.826  54.599  1.00  0.00     0.157 A 
HETATM   21  C   UNL     1       5.786  24.985  53.437  1.00  0.00     0.277 A 
HETATM   22  C   UNL     1       7.224  24.909  55.360  1.00  0.00     0.027 A 
HETATM   23  O   UNL     1       4.998  25.352  52.594  1.00  0.00    -0.266 OA
HETATM   24  N   UNL     1       6.370  23.747  53.557  1.00  0.00    -0.321 N 
HETATM   25  C   UNL     1       7.198  23.692  54.670  1.00  0.00     0.048 A 
HETATM   26  H   UNL     1       6.171  22.989  52.922  1.00  0.00     0.169 HD
HETATM   27  C   UNL     1       7.903  22.585  55.100  1.00  0.00     0.030 A 
HETATM   28  C   UNL     1       8.648  22.711  56.273  1.00  0.00     0.002 A 
HETATM   29  C   UNL     1       8.658  23.920  56.991  1.00  0.00     0.001 A 
HETATM   30  C   UNL     1       7.934  25.032  56.542  1.00  0.00     0.016 A 
ENDBRANCH   2  19
TORSDOF 2
ENDMDL
