MODEL 1
REMARK VINA RESULT:      -9.4      0.000      0.000
REMARK  5 active torsions:
REMARK  status: ('A' for Active; 'I' for Inactive)
REMARK    1  A    between atoms: C_5  and  C_6 
REMARK    2  A    between atoms: C_10  and  C_11 
REMARK       I    between atoms: C_11  and  N_12 
REMARK    3  A    between atoms: N_12  and  C_13 
REMARK    4  A    between atoms: C_13  and  C_14 
REMARK    5  A    between atoms: C_14  and  O_15 
ROOT
HETATM    1  C   UNL     1       7.808  27.297  56.395  1.00  0.00     0.068 A 
HETATM    2  N   UNL     1       6.836  27.597  55.497  1.00  0.00    -0.248 NA
HETATM    3  C   UNL     1       6.326  26.638  54.705  1.00  0.00     0.068 A 
HETATM    4  C   UNL     1       6.732  25.293  54.770  1.00  0.00     0.008 A 
HETATM    5  C   UNL     1       7.703  24.994  55.748  1.00  0.00     0.046 A 
HETATM    6  C   UNL     1       8.254  25.996  56.549  1.00  0.00     0.050 A 
HETATM    7  C   UNL     1       5.362  27.002  53.774  1.00  0.00     0.032 A 
HETATM    8  C   UNL     1       4.797  26.080  52.891  1.00  0.00     0.002 A 
HETATM    9  C   UNL     1       5.207  24.756  52.928  1.00  0.00     0.001 A 
HETATM   10  C   UNL     1       6.171  24.363  53.856  1.00  0.00     0.015 A 
ENDROOT
BRANCH   5  11
HETATM   11  C   UNL     1       8.222  23.628  55.984  1.00  0.00     0.252 C 
HETATM   12  N   UNL     1       8.802  23.014  54.902  1.00  0.00    -0.354 N 
HETATM   13  H   UNL     1       8.883  23.494  54.012  1.00  0.00     0.162 HD
HETATM   14  O   UNL     1       8.065  23.101  57.078  1.00  0.00    -0.268 OA
BRANCH  12  15
HETATM   15  C   UNL     1       9.396  21.691  54.979  1.00  0.00     0.154 C 
BRANCH  15  16
HETATM   16  C   UNL     1       8.417  20.597  54.530  1.00  0.00     0.132 C 
HETATM   17  C   UNL     1       7.948  20.789  53.093  1.00  0.00     0.041 C 
BRANCH  16  18
HETATM   18  O   UNL     1       9.055  19.321  54.649  1.00  0.00    -0.394 OA
HETATM   19  H   UNL     1      10.013  19.484  54.710  1.00  0.00     0.210 HD
ENDBRANCH  16  18
ENDBRANCH  15  16
ENDBRANCH  12  15
ENDBRANCH   5  11
BRANCH   1  20
HETATM   20  C   UNL     1       8.336  28.439  57.177  1.00  0.00    -0.007 A 
HETATM   21  C   UNL     1       7.554  29.050  58.176  1.00  0.00     0.014 A 
HETATM   22  C   UNL     1       8.027  30.134  58.924  1.00  0.00     0.007 A 
HETATM   23  C   UNL     1       9.302  30.653  58.688  1.00  0.00    -0.062 A 
HETATM   24  C   UNL     1       9.829  31.805  59.490  1.00  0.00     0.048 C 
HETATM   25  C   UNL     1      10.097  30.060  57.704  1.00  0.00     0.007 A 
HETATM   26  C   UNL     1       9.617  28.975  56.958  1.00  0.00     0.014 A 
ENDBRANCH   1  20
TORSDOF 5
ENDMDL
MODEL 2
REMARK VINA RESULT:      -9.3      2.813      7.364
REMARK  5 active torsions:
REMARK  status: ('A' for Active; 'I' for Inactive)
REMARK    1  A    between atoms: C_5  and  C_6 
REMARK    2  A    between atoms: C_10  and  C_11 
REMARK       I    between atoms: C_11  and  N_12 
REMARK    3  A    between atoms: N_12  and  C_13 
REMARK    4  A    between atoms: C_13  and  C_14 
REMARK    5  A    between atoms: C_14  and  O_15 
ROOT
HETATM    1  C   UNL     1       6.999  25.902  54.864  1.00  0.00     0.068 A 
HETATM    2  N   UNL     1       5.976  26.542  54.245  1.00  0.00    -0.248 NA
HETATM    3  C   UNL     1       5.603  27.770  54.645  1.00  0.00     0.068 A 
HETATM    4  C   UNL     1       6.246  28.467  55.683  1.00  0.00     0.008 A 
HETATM    5  C   UNL     1       7.342  27.805  56.276  1.00  0.00     0.046 A 
HETATM    6  C   UNL     1       7.710  26.518  55.880  1.00  0.00     0.050 A 
HETATM    7  C   UNL     1       4.524  28.366  54.006  1.00  0.00     0.032 A 
HETATM    8  C   UNL     1       4.048  29.626  54.374  1.00  0.00     0.002 A 
HETATM    9  C   UNL     1       4.658  30.313  55.414  1.00  0.00     0.001 A 
HETATM   10  C   UNL     1       5.746  29.738  56.069  1.00  0.00     0.015 A 
ENDROOT
BRANCH   5  11
HETATM   11  C   UNL     1       8.160  28.400  57.357  1.00  0.00     0.252 C 
HETATM   12  N   UNL     1       9.159  29.250  56.953  1.00  0.00    -0.354 N 
HETATM   13  H   UNL     1       9.295  29.464  55.970  1.00  0.00     0.162 HD
HETATM   14  O   UNL     1       7.956  28.074  58.519  1.00  0.00    -0.268 OA
BRANCH  12  15
HETATM   15  C   UNL     1      10.022  29.946  57.891  1.00  0.00     0.154 C 
BRANCH  15  16
HETATM   16  C   UNL     1       9.317  31.147  58.535  1.00  0.00     0.132 C 
HETATM   17  C   UNL     1       8.962  30.901  59.996  1.00  0.00     0.041 C 
BRANCH  16  18
HETATM   18  O   UNL     1      10.171  32.293  58.446  1.00  0.00    -0.394 OA
HETATM   19  H   UNL     1      10.456  32.509  59.351  1.00  0.00     0.210 HD
ENDBRANCH  16  18
ENDBRANCH  15  16
ENDBRANCH  12  15
ENDBRANCH   5  11
BRANCH   1  20
HETATM   20  C   UNL     1       7.291  24.533  54.378  1.00  0.00    -0.007 A 
HETATM   21  C   UNL     1       7.272  23.437  55.260  1.00  0.00     0.014 A 
HETATM   22  C   UNL     1       7.551  22.135  54.826  1.00  0.00     0.007 A 
HETATM   23  C   UNL     1       7.872  21.889  53.490  1.00  0.00    -0.062 A 
HETATM   24  C   UNL     1       8.159  20.500  53.007  1.00  0.00     0.048 C 
HETATM   25  C   UNL     1       7.893  22.963  52.595  1.00  0.00     0.007 A 
HETATM   26  C   UNL     1       7.614  24.263  53.036  1.00  0.00     0.014 A 
ENDBRANCH   1  20
TORSDOF 5
ENDMDL
MODEL 3
REMARK VINA RESULT:      -9.2      4.509      7.476
REMARK  5 active torsions:
REMARK  status: ('A' for Active; 'I' for Inactive)
REMARK    1  A    between atoms: C_5  and  C_6 
REMARK    2  A    between atoms: C_10  and  C_11 
REMARK       I    between atoms: C_11  and  N_12 
REMARK    3  A    between atoms: N_12  and  C_13 
REMARK    4  A    between atoms: C_13  and  C_14 
REMARK    5  A    between atoms: C_14  and  O_15 
ROOT
HETATM    1  C   UNL     1       6.026  25.366  53.346  1.00  0.00     0.068 A 
HETATM    2  N   UNL     1       5.629  26.141  54.387  1.00  0.00    -0.248 NA
HETATM    3  C   UNL     1       5.018  27.317  54.161  1.00  0.00     0.068 A 
HETATM    4  C   UNL     1       4.731  27.797  52.871  1.00  0.00     0.008 A 
HETATM    5  C   UNL     1       5.103  26.949  51.806  1.00  0.00     0.046 A 
HETATM    6  C   UNL     1       5.765  25.743  52.040  1.00  0.00     0.050 A 
HETATM    7  C   UNL     1       4.668  28.092  55.258  1.00  0.00     0.032 A 
HETATM    8  C   UNL     1       4.056  29.340  55.119  1.00  0.00     0.002 A 
HETATM    9  C   UNL     1       3.791  29.836  53.851  1.00  0.00     0.001 A 
HETATM   10  C   UNL     1       4.129  29.075  52.734  1.00  0.00     0.015 A 
ENDROOT
BRANCH   5  11
HETATM   11  C   UNL     1       4.848  27.274  50.385  1.00  0.00     0.252 C 
HETATM   12  N   UNL     1       3.776  26.637  49.809  1.00  0.00    -0.354 N 
HETATM   13  H   UNL     1       3.193  26.007  50.350  1.00  0.00     0.162 HD
HETATM   14  O   UNL     1       5.610  28.023  49.788  1.00  0.00    -0.268 OA
BRANCH  12  15
HETATM   15  C   UNL     1       3.369  26.877  48.436  1.00  0.00     0.154 C 
BRANCH  15  16
HETATM   16  C   UNL     1       3.522  25.622  47.566  1.00  0.00     0.132 C 
HETATM   17  C   UNL     1       3.031  24.362  48.268  1.00  0.00     0.041 C 
BRANCH  16  18
HETATM   18  O   UNL     1       2.783  25.801  46.353  1.00  0.00    -0.394 OA
HETATM   19  H   UNL     1       1.873  26.036  46.603  1.00  0.00     0.210 HD
ENDBRANCH  16  18
ENDBRANCH  15  16
ENDBRANCH  12  15
ENDBRANCH   5  11
BRANCH   1  20
HETATM   20  C   UNL     1       6.737  24.117  53.708  1.00  0.00    -0.007 A 
HETATM   21  C   UNL     1       7.283  23.285  52.713  1.00  0.00     0.014 A 
HETATM   22  C   UNL     1       7.953  22.097  53.029  1.00  0.00     0.007 A 
HETATM   23  C   UNL     1       8.089  21.695  54.360  1.00  0.00    -0.062 A 
HETATM   24  C   UNL     1       8.816  20.433  54.716  1.00  0.00     0.048 C 
HETATM   25  C   UNL     1       7.558  22.508  55.365  1.00  0.00     0.007 A 
HETATM   26  C   UNL     1       6.888  23.695  55.041  1.00  0.00     0.014 A 
ENDBRANCH   1  20
TORSDOF 5
ENDMDL
MODEL 4
REMARK VINA RESULT:      -8.9      3.223      7.441
REMARK  5 active torsions:
REMARK  status: ('A' for Active; 'I' for Inactive)
REMARK    1  A    between atoms: C_5  and  C_6 
REMARK    2  A    between atoms: C_10  and  C_11 
REMARK       I    between atoms: C_11  and  N_12 
REMARK    3  A    between atoms: N_12  and  C_13 
REMARK    4  A    between atoms: C_13  and  C_14 
REMARK    5  A    between atoms: C_14  and  O_15 
ROOT
HETATM    1  C   UNL     1       7.007  25.737  54.830  1.00  0.00     0.068 A 
HETATM    2  N   UNL     1       7.536  26.183  55.997  1.00  0.00    -0.248 NA
HETATM    3  C   UNL     1       7.298  27.438  56.414  1.00  0.00     0.068 A 
HETATM    4  C   UNL     1       6.485  28.340  55.705  1.00  0.00     0.008 A 
HETATM    5  C   UNL     1       5.900  27.838  54.524  1.00  0.00     0.046 A 
HETATM    6  C   UNL     1       6.173  26.544  54.075  1.00  0.00     0.050 A 
HETATM    7  C   UNL     1       7.895  27.859  57.594  1.00  0.00     0.032 A 
HETATM    8  C   UNL     1       7.728  29.154  58.089  1.00  0.00     0.002 A 
HETATM    9  C   UNL     1       6.949  30.062  57.386  1.00  0.00     0.001 A 
HETATM   10  C   UNL     1       6.335  29.662  56.200  1.00  0.00     0.015 A 
ENDROOT
BRANCH   5  11
HETATM   11  C   UNL     1       4.989  28.632  53.669  1.00  0.00     0.252 C 
HETATM   12  N   UNL     1       5.549  29.172  52.537  1.00  0.00    -0.354 N 
HETATM   13  H   UNL     1       6.523  29.002  52.307  1.00  0.00     0.162 HD
HETATM   14  O   UNL     1       3.833  28.817  54.025  1.00  0.00    -0.268 OA
BRANCH  12  15
HETATM   15  C   UNL     1       4.781  29.941  51.575  1.00  0.00     0.154 C 
BRANCH  15  16
HETATM   16  C   UNL     1       4.157  29.048  50.495  1.00  0.00     0.132 C 
HETATM   17  C   UNL     1       5.096  27.936  50.043  1.00  0.00     0.041 C 
BRANCH  16  18
HETATM   18  O   UNL     1       2.953  28.466  51.007  1.00  0.00    -0.394 OA
HETATM   19  H   UNL     1       3.212  27.839  51.705  1.00  0.00     0.210 HD
ENDBRANCH  16  18
ENDBRANCH  15  16
ENDBRANCH  12  15
ENDBRANCH   5  11
BRANCH   1  20
HETATM   20  C   UNL     1       7.377  24.357  54.440  1.00  0.00    -0.007 A 
HETATM   21  C   UNL     1       7.709  24.049  53.107  1.00  0.00     0.014 A 
HETATM   22  C   UNL     1       8.055  22.752  52.713  1.00  0.00     0.007 A 
HETATM   23  C   UNL     1       8.070  21.710  53.643  1.00  0.00    -0.062 A 
HETATM   24  C   UNL     1       8.453  20.319  53.240  1.00  0.00     0.048 C 
HETATM   25  C   UNL     1       7.748  21.993  54.973  1.00  0.00     0.007 A 
HETATM   26  C   UNL     1       7.401  23.294  55.361  1.00  0.00     0.014 A 
ENDBRANCH   1  20
TORSDOF 5
ENDMDL
MODEL 5
REMARK VINA RESULT:      -8.9      3.312      7.352
REMARK  5 active torsions:
REMARK  status: ('A' for Active; 'I' for Inactive)
REMARK    1  A    between atoms: C_5  and  C_6 
REMARK    2  A    between atoms: C_10  and  C_11 
REMARK       I    between atoms: C_11  and  N_12 
REMARK    3  A    between atoms: N_12  and  C_13 
REMARK    4  A    between atoms: C_13  and  C_14 
REMARK    5  A    between atoms: C_14  and  O_15 
ROOT
HETATM    1  C   UNL     1       6.292  25.004  53.443  1.00  0.00     0.068 A 
HETATM    2  N   UNL     1       5.996  25.099  52.122  1.00  0.00    -0.248 NA
HETATM    3  C   UNL     1       5.352  26.179  51.649  1.00  0.00     0.068 A 
HETATM    4  C   UNL     1       4.975  27.264  52.459  1.00  0.00     0.008 A 
HETATM    5  C   UNL     1       5.342  27.169  53.818  1.00  0.00     0.046 A 
HETATM    6  C   UNL     1       5.985  26.033  54.315  1.00  0.00     0.050 A 
HETATM    7  C   UNL     1       5.036  26.211  50.297  1.00  0.00     0.032 A 
HETATM    8  C   UNL     1       4.342  27.278  49.723  1.00  0.00     0.002 A 
HETATM    9  C   UNL     1       3.943  28.343  50.516  1.00  0.00     0.001 A 
HETATM   10  C   UNL     1       4.251  28.337  51.876  1.00  0.00     0.015 A 
ENDROOT
BRANCH   5  11
HETATM   11  C   UNL     1       5.061  28.231  54.810  1.00  0.00     0.252 C 
HETATM   12  N   UNL     1       6.112  29.062  55.111  1.00  0.00    -0.354 N 
HETATM   13  H   UNL     1       7.010  28.953  54.651  1.00  0.00     0.162 HD
HETATM   14  O   UNL     1       3.961  28.284  55.345  1.00  0.00    -0.268 OA
BRANCH  12  15
HETATM   15  C   UNL     1       5.989  30.177  56.033  1.00  0.00     0.154 C 
BRANCH  15  16
HETATM   16  C   UNL     1       6.151  29.733  57.493  1.00  0.00     0.132 C 
HETATM   17  C   UNL     1       6.845  30.786  58.349  1.00  0.00     0.041 C 
BRANCH  16  18
HETATM   18  O   UNL     1       4.859  29.457  58.045  1.00  0.00    -0.394 OA
HETATM   19  H   UNL     1       4.450  30.314  58.259  1.00  0.00     0.210 HD
ENDBRANCH  16  18
ENDBRANCH  15  16
ENDBRANCH  12  15
ENDBRANCH   5  11
BRANCH   1  20
HETATM   20  C   UNL     1       6.956  23.748  53.865  1.00  0.00    -0.007 A 
HETATM   21  C   UNL     1       7.520  22.877  52.915  1.00  0.00     0.014 A 
HETATM   22  C   UNL     1       8.146  21.682  53.288  1.00  0.00     0.007 A 
HETATM   23  C   UNL     1       8.218  21.312  54.632  1.00  0.00    -0.062 A 
HETATM   24  C   UNL     1       8.898  20.042  55.049  1.00  0.00     0.048 C 
HETATM   25  C   UNL     1       7.668  22.163  55.594  1.00  0.00     0.007 A 
HETATM   26  C   UNL     1       7.042  23.358  55.214  1.00  0.00     0.014 A 
ENDBRANCH   1  20
TORSDOF 5
ENDMDL
MODEL 6
REMARK VINA RESULT:      -8.6      2.763      4.640
REMARK  5 active torsions:
REMARK  status: ('A' for Active; 'I' for Inactive)
REMARK    1  A    between atoms: C_5  and  C_6 
REMARK    2  A    between atoms: C_10  and  C_11 
REMARK       I    between atoms: C_11  and  N_12 
REMARK    3  A    between atoms: N_12  and  C_13 
REMARK    4  A    between atoms: C_13  and  C_14 
REMARK    5  A    between atoms: C_14  and  O_15 
ROOT
HETATM    1  C   UNL     1       7.644  26.524  55.995  1.00  0.00     0.068 A 
HETATM    2  N   UNL     1       8.009  25.405  56.670  1.00  0.00    -0.248 NA
HETATM    3  C   UNL     1       7.977  24.206  56.064  1.00  0.00     0.068 A 
HETATM    4  C   UNL     1       7.600  24.037  54.720  1.00  0.00     0.008 A 
HETATM    5  C   UNL     1       7.278  25.219  54.021  1.00  0.00     0.046 A 
HETATM    6  C   UNL     1       7.283  26.461  54.661  1.00  0.00     0.050 A 
HETATM    7  C   UNL     1       8.321  23.087  56.809  1.00  0.00     0.032 A 
HETATM    8  C   UNL     1       8.288  21.799  56.271  1.00  0.00     0.002 A 
HETATM    9  C   UNL     1       7.894  21.616  54.954  1.00  0.00     0.001 A 
HETATM   10  C   UNL     1       7.547  22.724  54.183  1.00  0.00     0.015 A 
ENDROOT
BRANCH   5  11
HETATM   11  C   UNL     1       6.894  25.238  52.592  1.00  0.00     0.252 C 
HETATM   12  N   UNL     1       5.572  25.502  52.331  1.00  0.00    -0.354 N 
HETATM   13  H   UNL     1       4.921  25.696  53.085  1.00  0.00     0.162 HD
HETATM   14  O   UNL     1       7.728  24.968  51.737  1.00  0.00    -0.268 OA
BRANCH  12  15
HETATM   15  C   UNL     1       5.045  25.596  50.981  1.00  0.00     0.154 C 
BRANCH  15  16
HETATM   16  C   UNL     1       4.961  27.051  50.499  1.00  0.00     0.132 C 
HETATM   17  C   UNL     1       4.727  27.155  48.997  1.00  0.00     0.041 C 
BRANCH  16  18
HETATM   18  O   UNL     1       3.893  27.711  51.187  1.00  0.00    -0.394 OA
HETATM   19  H   UNL     1       3.590  27.110  51.890  1.00  0.00     0.210 HD
ENDBRANCH  16  18
ENDBRANCH  15  16
ENDBRANCH  12  15
ENDBRANCH   5  11
BRANCH   1  20
HETATM   20  C   UNL     1       7.667  27.783  56.775  1.00  0.00    -0.007 A 
HETATM   21  C   UNL     1       6.472  28.461  57.083  1.00  0.00     0.014 A 
HETATM   22  C   UNL     1       6.468  29.656  57.812  1.00  0.00     0.007 A 
HETATM   23  C   UNL     1       7.667  30.221  58.250  1.00  0.00    -0.062 A 
HETATM   24  C   UNL     1       7.679  31.492  59.045  1.00  0.00     0.048 C 
HETATM   25  C   UNL     1       8.865  29.563  57.960  1.00  0.00     0.007 A 
HETATM   26  C   UNL     1       8.863  28.368  57.228  1.00  0.00     0.014 A 
ENDBRANCH   1  20
TORSDOF 5
ENDMDL
MODEL 7
REMARK VINA RESULT:      -8.5      2.989      7.381
REMARK  5 active torsions:
REMARK  status: ('A' for Active; 'I' for Inactive)
REMARK    1  A    between atoms: C_5  and  C_6 
REMARK    2  A    between atoms: C_10  and  C_11 
REMARK       I    between atoms: C_11  and  N_12 
REMARK    3  A    between atoms: N_12  and  C_13 
REMARK    4  A    between atoms: C_13  and  C_14 
REMARK    5  A    between atoms: C_14  and  O_15 
ROOT
HETATM    1  C   UNL     1       6.492  26.773  53.713  1.00  0.00     0.068 A 
HETATM    2  N   UNL     1       6.920  25.503  53.926  1.00  0.00    -0.248 NA
HETATM    3  C   UNL     1       7.511  25.173  55.087  1.00  0.00     0.068 A 
HETATM    4  C   UNL     1       7.696  26.086  56.140  1.00  0.00     0.008 A 
HETATM    5  C   UNL     1       7.194  27.385  55.919  1.00  0.00     0.046 A 
HETATM    6  C   UNL     1       6.608  27.736  54.701  1.00  0.00     0.050 A 
HETATM    7  C   UNL     1       7.968  23.871  55.241  1.00  0.00     0.032 A 
HETATM    8  C   UNL     1       8.620  23.446  56.400  1.00  0.00     0.002 A 
HETATM    9  C   UNL     1       8.831  24.343  57.436  1.00  0.00     0.001 A 
HETATM   10  C   UNL     1       8.379  25.655  57.308  1.00  0.00     0.015 A 
ENDROOT
BRANCH   5  11
HETATM   11  C   UNL     1       7.267  28.466  56.928  1.00  0.00     0.252 C 
HETATM   12  N   UNL     1       8.454  29.154  56.982  1.00  0.00    -0.354 N 
HETATM   13  H   UNL     1       9.212  28.936  56.343  1.00  0.00     0.162 HD
HETATM   14  O   UNL     1       6.323  28.654  57.683  1.00  0.00    -0.268 OA
BRANCH  12  15
HETATM   15  C   UNL     1       8.673  30.268  57.887  1.00  0.00     0.154 C 
BRANCH  15  16
HETATM   16  C   UNL     1      10.165  30.502  58.157  1.00  0.00     0.132 C 
HETATM   17  C   UNL     1      11.058  29.830  57.121  1.00  0.00     0.041 C 
BRANCH  16  18
HETATM   18  O   UNL     1      10.425  31.911  58.157  1.00  0.00    -0.394 OA
HETATM   19  H   UNL     1       9.987  32.283  58.942  1.00  0.00     0.210 HD
ENDBRANCH  16  18
ENDBRANCH  15  16
ENDBRANCH  12  15
ENDBRANCH   5  11
BRANCH   1  20
HETATM   20  C   UNL     1       5.904  27.039  52.380  1.00  0.00    -0.007 A 
HETATM   21  C   UNL     1       5.539  25.979  51.529  1.00  0.00     0.014 A 
HETATM   22  C   UNL     1       4.989  26.205  50.262  1.00  0.00     0.007 A 
HETATM   23  C   UNL     1       4.794  27.507  49.798  1.00  0.00    -0.062 A 
HETATM   24  C   UNL     1       4.192  27.766  48.449  1.00  0.00     0.048 C 
HETATM   25  C   UNL     1       5.144  28.576  50.627  1.00  0.00     0.007 A 
HETATM   26  C   UNL     1       5.697  28.343  51.894  1.00  0.00     0.014 A 
ENDBRANCH   1  20
TORSDOF 5
ENDMDL
MODEL 8
REMARK VINA RESULT:      -8.5      3.023      7.284
REMARK  5 active torsions:
REMARK  status: ('A' for Active; 'I' for Inactive)
REMARK    1  A    between atoms: C_5  and  C_6 
REMARK    2  A    between atoms: C_10  and  C_11 
REMARK       I    between atoms: C_11  and  N_12 
REMARK    3  A    between atoms: N_12  and  C_13 
REMARK    4  A    between atoms: C_13  and  C_14 
REMARK    5  A    between atoms: C_14  and  O_15 
ROOT
HETATM    1  C   UNL     1       5.879  26.046  52.333  1.00  0.00     0.068 A 
HETATM    2  N   UNL     1       6.448  24.830  52.129  1.00  0.00    -0.248 NA
HETATM    3  C   UNL     1       6.956  24.138  53.163  1.00  0.00     0.068 A 
HETATM    4  C   UNL     1       6.911  24.599  54.491  1.00  0.00     0.008 A 
HETATM    5  C   UNL     1       6.266  25.838  54.687  1.00  0.00     0.046 A 
HETATM    6  C   UNL     1       5.765  26.571  53.608  1.00  0.00     0.050 A 
HETATM    7  C   UNL     1       7.563  22.918  52.898  1.00  0.00     0.032 A 
HETATM    8  C   UNL     1       8.144  22.144  53.904  1.00  0.00     0.002 A 
HETATM    9  C   UNL     1       8.128  22.599  55.214  1.00  0.00     0.001 A 
HETATM   10  C   UNL     1       7.521  23.819  55.508  1.00  0.00     0.015 A 
ENDROOT
BRANCH   5  11
HETATM   11  C   UNL     1       6.093  26.461  56.018  1.00  0.00     0.252 C 
HETATM   12  N   UNL     1       7.030  27.403  56.365  1.00  0.00    -0.354 N 
HETATM   13  H   UNL     1       7.772  27.660  55.722  1.00  0.00     0.162 HD
HETATM   14  O   UNL     1       5.189  26.081  56.751  1.00  0.00    -0.268 OA
BRANCH  12  15
HETATM   15  C   UNL     1       6.978  28.134  57.618  1.00  0.00     0.154 C 
BRANCH  15  16
HETATM   16  C   UNL     1       6.083  29.377  57.518  1.00  0.00     0.132 C 
HETATM   17  C   UNL     1       6.121  30.014  56.134  1.00  0.00     0.041 C 
BRANCH  16  18
HETATM   18  O   UNL     1       4.735  29.009  57.829  1.00  0.00    -0.394 OA
HETATM   19  H   UNL     1       4.701  28.820  58.783  1.00  0.00     0.210 HD
ENDBRANCH  16  18
ENDBRANCH  15  16
ENDBRANCH  12  15
ENDBRANCH   5  11
BRANCH   1  20
HETATM   20  C   UNL     1       5.400  26.744  51.117  1.00  0.00    -0.007 A 
HETATM   21  C   UNL     1       5.486  28.145  51.010  1.00  0.00     0.014 A 
HETATM   22  C   UNL     1       5.033  28.828  49.876  1.00  0.00     0.007 A 
HETATM   23  C   UNL     1       4.466  28.129  48.809  1.00  0.00    -0.062 A 
HETATM   24  C   UNL     1       3.990  28.844  47.581  1.00  0.00     0.048 C 
HETATM   25  C   UNL     1       4.374  26.737  48.892  1.00  0.00     0.007 A 
HETATM   26  C   UNL     1       4.827  26.059  50.031  1.00  0.00     0.014 A 
ENDBRANCH   1  20
TORSDOF 5
ENDMDL
MODEL 9
REMARK VINA RESULT:      -8.3      3.423      7.935
REMARK  5 active torsions:
REMARK  status: ('A' for Active; 'I' for Inactive)
REMARK    1  A    between atoms: C_5  and  C_6 
REMARK    2  A    between atoms: C_10  and  C_11 
REMARK       I    between atoms: C_11  and  N_12 
REMARK    3  A    between atoms: N_12  and  C_13 
REMARK    4  A    between atoms: C_13  and  C_14 
REMARK    5  A    between atoms: C_14  and  O_15 
ROOT
HETATM    1  C   UNL     1       6.970  26.001  55.010  1.00  0.00     0.068 A 
HETATM    2  N   UNL     1       7.731  26.425  56.050  1.00  0.00    -0.248 NA
HETATM    3  C   UNL     1       7.552  27.655  56.563  1.00  0.00     0.068 A 
HETATM    4  C   UNL     1       6.575  28.549  56.090  1.00  0.00     0.008 A 
HETATM    5  C   UNL     1       5.759  28.066  55.046  1.00  0.00     0.046 A 
HETATM    6  C   UNL     1       5.965  26.800  54.494  1.00  0.00     0.050 A 
HETATM    7  C   UNL     1       8.384  28.058  57.600  1.00  0.00     0.032 A 
HETATM    8  C   UNL     1       8.290  29.327  58.174  1.00  0.00     0.002 A 
HETATM    9  C   UNL     1       7.348  30.227  57.700  1.00  0.00     0.001 A 
HETATM   10  C   UNL     1       6.498  29.845  56.663  1.00  0.00     0.015 A 
ENDROOT
BRANCH   5  11
HETATM   11  C   UNL     1       4.657  28.853  54.449  1.00  0.00     0.252 C 
HETATM   12  N   UNL     1       5.019  29.737  53.463  1.00  0.00    -0.354 N 
HETATM   13  H   UNL     1       5.985  29.811  53.160  1.00  0.00     0.162 HD
HETATM   14  O   UNL     1       3.519  28.729  54.884  1.00  0.00    -0.268 OA
BRANCH  12  15
HETATM   15  C   UNL     1       4.053  30.552  52.749  1.00  0.00     0.154 C 
BRANCH  15  16
HETATM   16  C   UNL     1       3.910  31.948  53.373  1.00  0.00     0.132 C 
HETATM   17  C   UNL     1       2.663  32.074  54.239  1.00  0.00     0.041 C 
BRANCH  16  18
HETATM   18  O   UNL     1       5.066  32.224  54.171  1.00  0.00    -0.394 OA
HETATM   19  H   UNL     1       5.397  31.371  54.502  1.00  0.00     0.210 HD
ENDBRANCH  16  18
ENDBRANCH  15  16
ENDBRANCH  12  15
ENDBRANCH   5  11
BRANCH   1  20
HETATM   20  C   UNL     1       7.287  24.650  54.489  1.00  0.00    -0.007 A 
HETATM   21  C   UNL     1       7.269  23.528  55.338  1.00  0.00     0.014 A 
HETATM   22  C   UNL     1       7.572  22.244  54.872  1.00  0.00     0.007 A 
HETATM   23  C   UNL     1       7.916  22.041  53.534  1.00  0.00    -0.062 A 
HETATM   24  C   UNL     1       8.229  20.670  53.016  1.00  0.00     0.048 C 
HETATM   25  C   UNL     1       7.937  23.140  52.672  1.00  0.00     0.007 A 
HETATM   26  C   UNL     1       7.634  24.424  53.145  1.00  0.00     0.014 A 
ENDBRANCH   1  20
TORSDOF 5
ENDMDL
MODEL 10
REMARK VINA RESULT:      -8.3      3.577      6.700
REMARK  5 active torsions:
REMARK  status: ('A' for Active; 'I' for Inactive)
REMARK    1  A    between atoms: C_5  and  C_6 
REMARK    2  A    between atoms: C_10  and  C_11 
REMARK       I    between atoms: C_11  and  N_12 
REMARK    3  A    between atoms: N_12  and  C_13 
REMARK    4  A    between atoms: C_13  and  C_14 
REMARK    5  A    between atoms: C_14  and  O_15 
ROOT
HETATM    1  C   UNL     1       7.878  31.487  60.018  1.00  0.00     0.068 A 
HETATM    2  N   UNL     1       9.189  31.450  59.669  1.00  0.00    -0.248 NA
HETATM    3  C   UNL     1       9.577  30.793  58.563  1.00  0.00     0.068 A 
HETATM    4  C   UNL     1       8.677  30.142  57.701  1.00  0.00     0.008 A 
HETATM    5  C   UNL     1       7.314  30.241  58.053  1.00  0.00     0.046 A 
HETATM    6  C   UNL     1       6.915  30.897  59.219  1.00  0.00     0.050 A 
HETATM    7  C   UNL     1      10.934  30.750  58.271  1.00  0.00     0.032 A 
HETATM    8  C   UNL     1      11.432  30.067  57.159  1.00  0.00     0.002 A 
HETATM    9  C   UNL     1      10.557  29.400  56.316  1.00  0.00     0.001 A 
HETATM   10  C   UNL     1       9.189  29.431  56.585  1.00  0.00     0.015 A 
ENDROOT
BRANCH   5  11
HETATM   11  C   UNL     1       6.224  29.649  57.246  1.00  0.00     0.252 C 
HETATM   12  N   UNL     1       6.037  28.297  57.393  1.00  0.00    -0.354 N 
HETATM   13  H   UNL     1       6.605  27.760  58.040  1.00  0.00     0.162 HD
HETATM   14  O   UNL     1       5.597  30.354  56.466  1.00  0.00    -0.268 OA
BRANCH  12  15
HETATM   15  C   UNL     1       4.984  27.573  56.704  1.00  0.00     0.154 C 
BRANCH  15  16
HETATM   16  C   UNL     1       5.389  26.123  56.402  1.00  0.00     0.132 C 
HETATM   17  C   UNL     1       6.826  25.822  56.809  1.00  0.00     0.041 C 
BRANCH  16  18
HETATM   18  O   UNL     1       4.508  25.237  57.100  1.00  0.00    -0.394 OA
HETATM   19  H   UNL     1       3.927  25.787  57.654  1.00  0.00     0.210 HD
ENDBRANCH  16  18
ENDBRANCH  15  16
ENDBRANCH  12  15
ENDBRANCH   5  11
BRANCH   1  20
HETATM   20  C   UNL     1       7.568  32.192  61.284  1.00  0.00    -0.007 A 
HETATM   21  C   UNL     1       8.346  31.978  62.437  1.00  0.00     0.014 A 
HETATM   22  C   UNL     1       8.069  32.627  63.646  1.00  0.00     0.007 A 
HETATM   23  C   UNL     1       6.991  33.508  63.744  1.00  0.00    -0.062 A 
HETATM   24  C   UNL     1       6.690  34.222  65.027  1.00  0.00     0.048 C 
HETATM   25  C   UNL     1       6.207  33.740  62.610  1.00  0.00     0.007 A 
HETATM   26  C   UNL     1       6.489  33.086  61.403  1.00  0.00     0.014 A 
ENDBRANCH   1  20
TORSDOF 5
ENDMDL
