MODEL 1
REMARK VINA RESULT:     -11.0      0.000      0.000
REMARK  8 active torsions:
REMARK  status: ('A' for Active; 'I' for Inactive)
REMARK    1  A    between atoms: C_4  and  S_5 
REMARK    2  A    between atoms: S_5  and  C_6 
REMARK    3  A    between atoms: C_6  and  C_7 
REMARK       I    between atoms: C_7  and  N_8 
REMARK    4  A    between atoms: N_8  and  C_9 
REMARK    5  A    between atoms: C_11  and  C_12 
REMARK    6  A    between atoms: C_23  and  C_24 
REMARK    7  A    between atoms: C_30  and  C_31 
REMARK       I    between atoms: C_31  and  N_32 
REMARK    8  A    between atoms: N_32  and  C_33 
ROOT
HETATM    1  C   UNL     1       9.141  31.840  59.400  1.00  0.00     0.069 C 
HETATM    2  C   UNL     1       7.975  31.208  58.678  1.00  0.00     0.019 C 
HETATM    3  N   UNL     1       8.311  30.220  57.764  1.00  0.00    -0.353 N 
HETATM    4  C   UNL     1       7.406  29.362  57.167  1.00  0.00     0.087 C 
HETATM    5  C   UNL     1       6.086  29.648  57.246  1.00  0.00     0.055 C 
HETATM    6  C   UNL     1       5.044  28.852  56.476  1.00  0.00     0.019 C 
HETATM    7  N   UNL     1       4.180  28.193  55.838  1.00  0.00    -0.096 N 
HETATM    8  C   UNL     1       5.583  30.852  58.046  1.00  0.00     0.104 C 
HETATM    9  C   UNL     1       6.672  31.522  58.884  1.00  0.00     0.046 C 
HETATM   10  H   UNL     1       9.261  29.854  57.822  1.00  0.00     0.166 HD
ENDROOT
BRANCH   4  11
HETATM   11  S   UNL     1       7.984  27.863  56.474  1.00  0.00    -0.102 SA
BRANCH  11  12
HETATM   12  C   UNL     1       7.544  26.635  57.745  1.00  0.00     0.184 C 
BRANCH  12  13
HETATM   13  C   UNL     1       7.186  25.264  57.155  1.00  0.00     0.231 C 
HETATM   14  N   UNL     1       8.263  24.444  56.879  1.00  0.00    -0.327 N 
HETATM   15  H   UNL     1       9.172  24.863  57.041  1.00  0.00     0.169 HD
HETATM   16  O   UNL     1       6.005  24.972  56.977  1.00  0.00    -0.272 OA
BRANCH  14  17
HETATM   17  C   UNL     1       8.271  23.129  56.373  1.00  0.00     0.035 A 
HETATM   18  C   UNL     1       8.211  22.813  55.015  1.00  0.00     0.045 A 
HETATM   19  C   UNL     1       8.206  21.471  54.591  1.00  0.00     0.050 A 
HETATM   20  C   UNL     1       8.287  20.448  55.548  1.00  0.00     0.016 A 
HETATM   21  C   UNL     1       8.348  20.758  56.904  1.00  0.00     0.003 A 
HETATM   22  C   UNL     1       8.333  22.092  57.312  1.00  0.00     0.029 A 
BRANCH  19  23
HETATM   23  C   UNL     1       8.149  21.126  53.123  1.00  0.00     0.417 C 
HETATM   24  F   UNL     1       9.259  20.485  52.666  1.00  0.00    -0.166 F 
HETATM   25  F   UNL     1       7.095  20.319  52.821  1.00  0.00    -0.166 F 
HETATM   26  F   UNL     1       8.009  22.229  52.332  1.00  0.00    -0.166 F 
ENDBRANCH  19  23
ENDBRANCH  14  17
ENDBRANCH  12  13
ENDBRANCH  11  12
ENDBRANCH   4  11
BRANCH   8  27
HETATM   27  C   UNL     1       4.851  31.827  57.124  1.00  0.00    -0.042 A 
HETATM   28  C   UNL     1       3.531  32.205  57.411  1.00  0.00     0.027 A 
HETATM   29  C   UNL     1       2.888  33.088  56.559  1.00  0.00     0.116 A 
HETATM   30  N   UNL     1       3.465  33.618  55.462  1.00  0.00    -0.273 NA
HETATM   31  C   UNL     1       4.727  33.229  55.183  1.00  0.00     0.116 A 
HETATM   32  C   UNL     1       5.450  32.344  55.968  1.00  0.00     0.027 A 
ENDBRANCH   8  27
BRANCH   9  33
HETATM   33  C   UNL     1       6.291  32.312  60.106  1.00  0.00     0.255 C 
HETATM   34  N   UNL     1       6.637  31.745  61.312  1.00  0.00    -0.323 N 
HETATM   35  H   UNL     1       7.047  30.822  61.312  1.00  0.00     0.169 HD
HETATM   36  O   UNL     1       5.779  33.419  59.964  1.00  0.00    -0.268 OA
BRANCH  34  37
HETATM   37  C   UNL     1       6.511  32.326  62.593  1.00  0.00     0.035 A 
HETATM   38  C   UNL     1       5.293  32.539  63.242  1.00  0.00     0.029 A 
HETATM   39  C   UNL     1       5.255  33.138  64.505  1.00  0.00     0.002 A 
HETATM   40  C   UNL     1       6.435  33.539  65.127  1.00  0.00     0.000 A 
HETATM   41  C   UNL     1       7.655  33.329  64.492  1.00  0.00     0.002 A 
HETATM   42  C   UNL     1       7.694  32.716  63.236  1.00  0.00     0.029 A 
ENDBRANCH  34  37
ENDBRANCH   9  33
TORSDOF 8
ENDMDL
MODEL 2
REMARK VINA RESULT:     -10.8      5.376      9.809
REMARK  8 active torsions:
REMARK  status: ('A' for Active; 'I' for Inactive)
REMARK    1  A    between atoms: C_4  and  S_5 
REMARK    2  A    between atoms: S_5  and  C_6 
REMARK    3  A    between atoms: C_6  and  C_7 
REMARK       I    between atoms: C_7  and  N_8 
REMARK    4  A    between atoms: N_8  and  C_9 
REMARK    5  A    between atoms: C_11  and  C_12 
REMARK    6  A    between atoms: C_23  and  C_24 
REMARK    7  A    between atoms: C_30  and  C_31 
REMARK       I    between atoms: C_31  and  N_32 
REMARK    8  A    between atoms: N_32  and  C_33 
ROOT
HETATM    1  C   UNL     1       5.736  26.663  50.987  1.00  0.00     0.069 C 
HETATM    2  C   UNL     1       5.391  27.283  52.320  1.00  0.00     0.019 C 
HETATM    3  N   UNL     1       4.925  28.588  52.261  1.00  0.00    -0.353 N 
HETATM    4  C   UNL     1       4.344  29.262  53.319  1.00  0.00     0.087 C 
HETATM    5  C   UNL     1       4.466  28.750  54.566  1.00  0.00     0.055 C 
HETATM    6  C   UNL     1       4.005  29.513  55.797  1.00  0.00     0.019 C 
HETATM    7  N   UNL     1       3.623  30.146  56.818  1.00  0.00    -0.096 N 
HETATM    8  C   UNL     1       5.162  27.409  54.806  1.00  0.00     0.104 C 
HETATM    9  C   UNL     1       5.485  26.652  53.516  1.00  0.00     0.046 C 
HETATM   10  H   UNL     1       4.644  28.928  51.342  1.00  0.00     0.166 HD
ENDROOT
BRANCH   4  11
HETATM   11  S   UNL     1       3.341  30.658  52.991  1.00  0.00    -0.102 SA
BRANCH  11  12
HETATM   12  C   UNL     1       4.081  31.336  51.471  1.00  0.00     0.184 C 
BRANCH  12  13
HETATM   13  C   UNL     1       3.982  30.377  50.277  1.00  0.00     0.231 C 
HETATM   14  N   UNL     1       2.741  29.800  50.088  1.00  0.00    -0.327 N 
HETATM   15  H   UNL     1       2.051  30.029  50.796  1.00  0.00     0.169 HD
HETATM   16  O   UNL     1       4.969  30.187  49.569  1.00  0.00    -0.272 OA
BRANCH  14  17
HETATM   17  C   UNL     1       2.317  28.916  49.077  1.00  0.00     0.035 A 
HETATM   18  C   UNL     1       2.911  27.679  48.818  1.00  0.00     0.045 A 
HETATM   19  C   UNL     1       2.438  26.861  47.775  1.00  0.00     0.050 A 
HETATM   20  C   UNL     1       1.343  27.288  47.009  1.00  0.00     0.016 A 
HETATM   21  C   UNL     1       0.746  28.520  47.263  1.00  0.00     0.003 A 
HETATM   22  C   UNL     1       1.236  29.331  48.287  1.00  0.00     0.029 A 
BRANCH  19  23
HETATM   23  C   UNL     1       3.074  25.520  47.499  1.00  0.00     0.417 C 
HETATM   24  F   UNL     1       2.736  24.557  48.399  1.00  0.00    -0.166 F 
HETATM   25  F   UNL     1       2.736  25.030  46.275  1.00  0.00    -0.166 F 
HETATM   26  F   UNL     1       4.436  25.575  47.512  1.00  0.00    -0.166 F 
ENDBRANCH  19  23
ENDBRANCH  14  17
ENDBRANCH  12  13
ENDBRANCH  11  12
ENDBRANCH   4  11
BRANCH   8  27
HETATM   27  C   UNL     1       6.382  27.603  55.707  1.00  0.00    -0.042 A 
HETATM   28  C   UNL     1       6.460  26.927  56.934  1.00  0.00     0.027 A 
HETATM   29  C   UNL     1       7.574  27.122  57.734  1.00  0.00     0.116 A 
HETATM   30  N   UNL     1       8.602  27.926  57.397  1.00  0.00    -0.273 NA
HETATM   31  C   UNL     1       8.504  28.589  56.225  1.00  0.00     0.116 A 
HETATM   32  C   UNL     1       7.428  28.468  55.361  1.00  0.00     0.027 A 
ENDBRANCH   8  27
BRANCH   9  33
HETATM   33  C   UNL     1       5.637  25.156  53.548  1.00  0.00     0.255 C 
HETATM   34  N   UNL     1       6.909  24.694  53.801  1.00  0.00    -0.323 N 
HETATM   35  H   UNL     1       7.661  25.363  53.874  1.00  0.00     0.169 HD
HETATM   36  O   UNL     1       4.637  24.453  53.429  1.00  0.00    -0.268 OA
BRANCH  34  37
HETATM   37  C   UNL     1       7.301  23.352  54.008  1.00  0.00     0.035 A 
HETATM   38  C   UNL     1       7.662  22.473  52.984  1.00  0.00     0.029 A 
HETATM   39  C   UNL     1       8.021  21.153  53.274  1.00  0.00     0.002 A 
HETATM   40  C   UNL     1       8.012  20.696  54.589  1.00  0.00     0.000 A 
HETATM   41  C   UNL     1       7.657  21.563  55.618  1.00  0.00     0.002 A 
HETATM   42  C   UNL     1       7.314  22.887  55.330  1.00  0.00     0.029 A 
ENDBRANCH  34  37
ENDBRANCH   9  33
TORSDOF 8
ENDMDL
MODEL 3
REMARK VINA RESULT:     -10.4      2.455      3.207
REMARK  8 active torsions:
REMARK  status: ('A' for Active; 'I' for Inactive)
REMARK    1  A    between atoms: C_4  and  S_5 
REMARK    2  A    between atoms: S_5  and  C_6 
REMARK    3  A    between atoms: C_6  and  C_7 
REMARK       I    between atoms: C_7  and  N_8 
REMARK    4  A    between atoms: N_8  and  C_9 
REMARK    5  A    between atoms: C_11  and  C_12 
REMARK    6  A    between atoms: C_23  and  C_24 
REMARK    7  A    between atoms: C_30  and  C_31 
REMARK       I    between atoms: C_31  and  N_32 
REMARK    8  A    between atoms: N_32  and  C_33 
ROOT
HETATM    1  C   UNL     1       8.212  32.097  61.571  1.00  0.00     0.069 C 
HETATM    2  C   UNL     1       7.024  31.962  60.649  1.00  0.00     0.019 C 
HETATM    3  N   UNL     1       7.319  31.528  59.365  1.00  0.00    -0.353 N 
HETATM    4  C   UNL     1       6.376  31.122  58.438  1.00  0.00     0.087 C 
HETATM    5  C   UNL     1       5.073  31.406  58.664  1.00  0.00     0.055 C 
HETATM    6  C   UNL     1       4.001  31.146  57.618  1.00  0.00     0.019 C 
HETATM    7  N   UNL     1       3.111  30.931  56.752  1.00  0.00    -0.096 N 
HETATM    8  C   UNL     1       4.625  32.094  59.956  1.00  0.00     0.104 C 
HETATM    9  C   UNL     1       5.738  32.209  61.000  1.00  0.00     0.046 C 
HETATM   10  H   UNL     1       8.246  31.128  59.224  1.00  0.00     0.166 HD
ENDROOT
BRANCH   4  11
HETATM   11  S   UNL     1       6.882  30.120  57.094  1.00  0.00    -0.102 SA
BRANCH  11  12
HETATM   12  C   UNL     1       6.745  28.436  57.774  1.00  0.00     0.184 C 
BRANCH  12  13
HETATM   13  C   UNL     1       7.492  27.389  56.935  1.00  0.00     0.231 C 
HETATM   14  N   UNL     1       6.767  26.846  55.892  1.00  0.00    -0.327 N 
HETATM   15  H   UNL     1       5.803  27.156  55.835  1.00  0.00     0.169 HD
HETATM   16  O   UNL     1       8.655  27.107  57.216  1.00  0.00    -0.272 OA
BRANCH  14  17
HETATM   17  C   UNL     1       7.169  25.901  54.929  1.00  0.00     0.035 A 
HETATM   18  C   UNL     1       7.357  24.543  55.194  1.00  0.00     0.045 A 
HETATM   19  C   UNL     1       7.779  23.665  54.178  1.00  0.00     0.050 A 
HETATM   20  C   UNL     1       7.985  24.163  52.883  1.00  0.00     0.016 A 
HETATM   21  C   UNL     1       7.799  25.516  52.612  1.00  0.00     0.003 A 
HETATM   22  C   UNL     1       7.400  26.379  53.633  1.00  0.00     0.029 A 
BRANCH  19  23
HETATM   23  C   UNL     1       7.975  22.196  54.461  1.00  0.00     0.417 C 
HETATM   24  F   UNL     1       7.622  21.385  53.426  1.00  0.00    -0.166 F 
HETATM   25  F   UNL     1       9.269  21.894  54.755  1.00  0.00    -0.166 F 
HETATM   26  F   UNL     1       7.244  21.767  55.530  1.00  0.00    -0.166 F 
ENDBRANCH  19  23
ENDBRANCH  14  17
ENDBRANCH  12  13
ENDBRANCH  11  12
ENDBRANCH   4  11
BRANCH   8  27
HETATM   27  C   UNL     1       3.963  33.433  59.637  1.00  0.00    -0.042 A 
HETATM   28  C   UNL     1       2.737  33.768  60.231  1.00  0.00     0.027 A 
HETATM   29  C   UNL     1       2.156  34.987  59.923  1.00  0.00     0.116 A 
HETATM   30  N   UNL     1       2.708  35.884  59.083  1.00  0.00    -0.273 NA
HETATM   31  C   UNL     1       3.875  35.541  58.498  1.00  0.00     0.116 A 
HETATM   32  C   UNL     1       4.530  34.343  58.734  1.00  0.00     0.027 A 
ENDBRANCH   8  27
BRANCH   9  33
HETATM   33  C   UNL     1       5.382  32.323  62.457  1.00  0.00     0.255 C 
HETATM   34  N   UNL     1       5.440  33.594  62.984  1.00  0.00    -0.323 N 
HETATM   35  H   UNL     1       5.780  34.344  62.401  1.00  0.00     0.169 HD
HETATM   36  O   UNL     1       4.998  31.323  63.056  1.00  0.00    -0.268 OA
BRANCH  34  37
HETATM   37  C   UNL     1       5.041  33.997  64.278  1.00  0.00     0.035 A 
HETATM   38  C   UNL     1       3.798  34.560  64.577  1.00  0.00     0.029 A 
HETATM   39  C   UNL     1       3.489  34.949  65.884  1.00  0.00     0.002 A 
HETATM   40  C   UNL     1       4.425  34.790  66.903  1.00  0.00     0.000 A 
HETATM   41  C   UNL     1       5.666  34.228  66.618  1.00  0.00     0.002 A 
HETATM   42  C   UNL     1       5.968  33.824  65.314  1.00  0.00     0.029 A 
ENDBRANCH  34  37
ENDBRANCH   9  33
TORSDOF 8
ENDMDL
MODEL 4
REMARK VINA RESULT:     -10.3      2.312      3.120
REMARK  8 active torsions:
REMARK  status: ('A' for Active; 'I' for Inactive)
REMARK    1  A    between atoms: C_4  and  S_5 
REMARK    2  A    between atoms: S_5  and  C_6 
REMARK    3  A    between atoms: C_6  and  C_7 
REMARK       I    between atoms: C_7  and  N_8 
REMARK    4  A    between atoms: N_8  and  C_9 
REMARK    5  A    between atoms: C_11  and  C_12 
REMARK    6  A    between atoms: C_23  and  C_24 
REMARK    7  A    between atoms: C_30  and  C_31 
REMARK       I    between atoms: C_31  and  N_32 
REMARK    8  A    between atoms: N_32  and  C_33 
ROOT
HETATM    1  C   UNL     1       8.300  32.172  61.824  1.00  0.00     0.069 C 
HETATM    2  C   UNL     1       7.087  32.064  60.931  1.00  0.00     0.019 C 
HETATM    3  N   UNL     1       7.349  31.688  59.622  1.00  0.00    -0.353 N 
HETATM    4  C   UNL     1       6.384  31.312  58.706  1.00  0.00     0.087 C 
HETATM    5  C   UNL     1       5.085  31.572  58.981  1.00  0.00     0.055 C 
HETATM    6  C   UNL     1       3.985  31.345  57.957  1.00  0.00     0.019 C 
HETATM    7  N   UNL     1       3.073  31.158  57.108  1.00  0.00    -0.096 N 
HETATM    8  C   UNL     1       4.668  32.199  60.314  1.00  0.00     0.104 C 
HETATM    9  C   UNL     1       5.810  32.281  61.329  1.00  0.00     0.046 C 
HETATM   10  H   UNL     1       8.275  31.305  59.437  1.00  0.00     0.166 HD
ENDROOT
BRANCH   4  11
HETATM   11  S   UNL     1       6.859  30.374  57.306  1.00  0.00    -0.102 SA
BRANCH  11  12
HETATM   12  C   UNL     1       7.585  28.880  58.051  1.00  0.00     0.184 C 
BRANCH  12  13
HETATM   13  C   UNL     1       7.160  27.588  57.339  1.00  0.00     0.231 C 
HETATM   14  N   UNL     1       8.180  26.689  57.093  1.00  0.00    -0.327 N 
HETATM   15  H   UNL     1       9.106  27.010  57.357  1.00  0.00     0.169 HD
HETATM   16  O   UNL     1       5.978  27.420  57.045  1.00  0.00    -0.272 OA
BRANCH  14  17
HETATM   17  C   UNL     1       8.116  25.414  56.498  1.00  0.00     0.035 A 
HETATM   18  C   UNL     1       7.740  25.187  55.173  1.00  0.00     0.045 A 
HETATM   19  C   UNL     1       7.684  23.878  54.659  1.00  0.00     0.050 A 
HETATM   20  C   UNL     1       8.036  22.799  55.484  1.00  0.00     0.016 A 
HETATM   21  C   UNL     1       8.412  23.021  56.806  1.00  0.00     0.003 A 
HETATM   22  C   UNL     1       8.445  24.321  57.310  1.00  0.00     0.029 A 
BRANCH  19  23
HETATM   23  C   UNL     1       7.285  23.630  53.224  1.00  0.00     0.417 C 
HETATM   24  F   UNL     1       7.298  22.316  52.870  1.00  0.00    -0.166 F 
HETATM   25  F   UNL     1       6.031  24.084  52.950  1.00  0.00    -0.166 F 
HETATM   26  F   UNL     1       8.107  24.259  52.336  1.00  0.00    -0.166 F 
ENDBRANCH  19  23
ENDBRANCH  14  17
ENDBRANCH  12  13
ENDBRANCH  11  12
ENDBRANCH   4  11
BRANCH   8  27
HETATM   27  C   UNL     1       3.984  33.544  60.072  1.00  0.00    -0.042 A 
HETATM   28  C   UNL     1       4.523  34.446  59.142  1.00  0.00     0.027 A 
HETATM   29  C   UNL     1       3.887  35.660  58.943  1.00  0.00     0.116 A 
HETATM   30  N   UNL     1       2.764  36.028  59.591  1.00  0.00    -0.273 NA
HETATM   31  C   UNL     1       2.268  35.162  60.500  1.00  0.00     0.116 A 
HETATM   32  C   UNL     1       2.837  33.929  60.777  1.00  0.00     0.027 A 
ENDBRANCH   8  27
BRANCH   9  33
HETATM   33  C   UNL     1       5.496  32.330  62.800  1.00  0.00     0.255 C 
HETATM   34  N   UNL     1       5.736  33.536  63.419  1.00  0.00    -0.323 N 
HETATM   35  H   UNL     1       6.168  34.276  62.885  1.00  0.00     0.169 HD
HETATM   36  O   UNL     1       4.986  31.348  63.332  1.00  0.00    -0.268 OA
BRANCH  34  37
HETATM   37  C   UNL     1       5.417  33.888  64.749  1.00  0.00     0.035 A 
HETATM   38  C   UNL     1       4.141  34.261  65.178  1.00  0.00     0.029 A 
HETATM   39  C   UNL     1       3.914  34.613  66.512  1.00  0.00     0.002 A 
HETATM   40  C   UNL     1       4.963  34.606  67.428  1.00  0.00     0.000 A 
HETATM   41  C   UNL     1       6.238  34.234  67.013  1.00  0.00     0.002 A 
HETATM   42  C   UNL     1       6.462  33.867  65.683  1.00  0.00     0.029 A 
ENDBRANCH  34  37
ENDBRANCH   9  33
TORSDOF 8
ENDMDL
MODEL 5
REMARK VINA RESULT:     -10.1      5.842     11.055
REMARK  8 active torsions:
REMARK  status: ('A' for Active; 'I' for Inactive)
REMARK    1  A    between atoms: C_4  and  S_5 
REMARK    2  A    between atoms: S_5  and  C_6 
REMARK    3  A    between atoms: C_6  and  C_7 
REMARK       I    between atoms: C_7  and  N_8 
REMARK    4  A    between atoms: N_8  and  C_9 
REMARK    5  A    between atoms: C_11  and  C_12 
REMARK    6  A    between atoms: C_23  and  C_24 
REMARK    7  A    between atoms: C_30  and  C_31 
REMARK       I    between atoms: C_31  and  N_32 
REMARK    8  A    between atoms: N_32  and  C_33 
ROOT
HETATM    1  C   UNL     1       4.005  28.631  55.275  1.00  0.00     0.069 C 
HETATM    2  C   UNL     1       4.972  29.226  56.271  1.00  0.00     0.019 C 
HETATM    3  N   UNL     1       4.710  30.539  56.636  1.00  0.00    -0.353 N 
HETATM    4  C   UNL     1       5.320  31.197  57.688  1.00  0.00     0.087 C 
HETATM    5  C   UNL     1       6.429  30.656  58.241  1.00  0.00     0.055 C 
HETATM    6  C   UNL     1       7.252  31.398  59.282  1.00  0.00     0.019 C 
HETATM    7  N   UNL     1       7.934  32.013  60.145  1.00  0.00    -0.096 N 
HETATM    8  C   UNL     1       6.966  29.300  57.776  1.00  0.00     0.104 C 
HETATM    9  C   UNL     1       6.021  28.568  56.822  1.00  0.00     0.046 C 
HETATM   10  H   UNL     1       3.790  30.902  56.389  1.00  0.00     0.166 HD
ENDROOT
BRANCH   4  11
HETATM   11  S   UNL     1       4.549  32.614  58.366  1.00  0.00    -0.102 SA
BRANCH  11  12
HETATM   12  C   UNL     1       3.725  31.952  59.849  1.00  0.00     0.184 C 
BRANCH  12  13
HETATM   13  C   UNL     1       4.042  32.754  61.119  1.00  0.00     0.231 C 
HETATM   14  N   UNL     1       5.043  32.227  61.912  1.00  0.00    -0.327 N 
HETATM   15  H   UNL     1       5.415  31.338  61.596  1.00  0.00     0.169 HD
HETATM   16  O   UNL     1       3.421  33.790  61.351  1.00  0.00    -0.272 OA
BRANCH  14  17
HETATM   17  C   UNL     1       5.588  32.734  63.108  1.00  0.00     0.035 A 
HETATM   18  C   UNL     1       4.836  33.332  64.120  1.00  0.00     0.045 A 
HETATM   19  C   UNL     1       5.460  33.830  65.279  1.00  0.00     0.050 A 
HETATM   20  C   UNL     1       6.849  33.697  65.422  1.00  0.00     0.016 A 
HETATM   21  C   UNL     1       7.604  33.101  64.416  1.00  0.00     0.003 A 
HETATM   22  C   UNL     1       6.976  32.629  63.263  1.00  0.00     0.029 A 
BRANCH  19  23
HETATM   23  C   UNL     1       4.646  34.470  66.378  1.00  0.00     0.417 C 
HETATM   24  F   UNL     1       5.288  35.489  67.013  1.00  0.00    -0.166 F 
HETATM   25  F   UNL     1       3.474  34.989  65.919  1.00  0.00    -0.166 F 
HETATM   26  F   UNL     1       4.301  33.585  67.357  1.00  0.00    -0.166 F 
ENDBRANCH  19  23
ENDBRANCH  14  17
ENDBRANCH  12  13
ENDBRANCH  11  12
ENDBRANCH   4  11
BRANCH   8  27
HETATM   27  C   UNL     1       8.379  29.458  57.216  1.00  0.00    -0.042 A 
HETATM   28  C   UNL     1       8.600  29.351  55.834  1.00  0.00     0.027 A 
HETATM   29  C   UNL     1       9.890  29.494  55.351  1.00  0.00     0.116 A 
HETATM   30  N   UNL     1      10.957  29.740  56.137  1.00  0.00    -0.273 NA
HETATM   31  C   UNL     1      10.736  29.817  57.466  1.00  0.00     0.116 A 
HETATM   32  C   UNL     1       9.485  29.679  58.046  1.00  0.00     0.027 A 
ENDBRANCH   8  27
BRANCH   9  33
HETATM   33  C   UNL     1       6.089  27.070  56.710  1.00  0.00     0.255 C 
HETATM   34  N   UNL     1       6.931  26.585  55.734  1.00  0.00    -0.323 N 
HETATM   35  H   UNL     1       7.384  27.242  55.116  1.00  0.00     0.169 HD
HETATM   36  O   UNL     1       5.472  26.383  57.519  1.00  0.00    -0.268 OA
BRANCH  34  37
HETATM   37  C   UNL     1       7.274  25.234  55.500  1.00  0.00     0.035 A 
HETATM   38  C   UNL     1       6.875  24.506  54.377  1.00  0.00     0.029 A 
HETATM   39  C   UNL     1       7.243  23.165  54.231  1.00  0.00     0.002 A 
HETATM   40  C   UNL     1       8.006  22.536  55.211  1.00  0.00     0.000 A 
HETATM   41  C   UNL     1       8.412  23.252  56.333  1.00  0.00     0.002 A 
HETATM   42  C   UNL     1       8.057  24.597  56.472  1.00  0.00     0.029 A 
ENDBRANCH  34  37
ENDBRANCH   9  33
TORSDOF 8
ENDMDL
MODEL 6
REMARK VINA RESULT:     -10.0      2.425      3.462
REMARK  8 active torsions:
REMARK  status: ('A' for Active; 'I' for Inactive)
REMARK    1  A    between atoms: C_4  and  S_5 
REMARK    2  A    between atoms: S_5  and  C_6 
REMARK    3  A    between atoms: C_6  and  C_7 
REMARK       I    between atoms: C_7  and  N_8 
REMARK    4  A    between atoms: N_8  and  C_9 
REMARK    5  A    between atoms: C_11  and  C_12 
REMARK    6  A    between atoms: C_23  and  C_24 
REMARK    7  A    between atoms: C_30  and  C_31 
REMARK       I    between atoms: C_31  and  N_32 
REMARK    8  A    between atoms: N_32  and  C_33 
ROOT
HETATM    1  C   UNL     1       7.206  30.732  58.535  1.00  0.00     0.069 C 
HETATM    2  C   UNL     1       5.964  31.320  57.909  1.00  0.00     0.019 C 
HETATM    3  N   UNL     1       5.719  30.927  56.601  1.00  0.00    -0.353 N 
HETATM    4  C   UNL     1       4.538  31.158  55.920  1.00  0.00     0.087 C 
HETATM    5  C   UNL     1       3.654  32.047  56.428  1.00  0.00     0.055 C 
HETATM    6  C   UNL     1       2.418  32.481  55.658  1.00  0.00     0.019 C 
HETATM    7  N   UNL     1       1.392  32.842  55.020  1.00  0.00    -0.096 N 
HETATM    8  C   UNL     1       3.907  32.734  57.773  1.00  0.00     0.104 C 
HETATM    9  C   UNL     1       5.100  32.156  58.535  1.00  0.00     0.046 C 
HETATM   10  H   UNL     1       6.248  30.124  56.263  1.00  0.00     0.166 HD
ENDROOT
BRANCH   4  11
HETATM   11  S   UNL     1       4.158  30.179  54.520  1.00  0.00    -0.102 SA
BRANCH  11  12
HETATM   12  C   UNL     1       4.169  28.488  55.195  1.00  0.00     0.184 C 
BRANCH  12  13
HETATM   13  C   UNL     1       5.449  27.713  54.851  1.00  0.00     0.231 C 
HETATM   14  N   UNL     1       5.249  26.439  54.355  1.00  0.00    -0.327 N 
HETATM   15  H   UNL     1       4.280  26.137  54.330  1.00  0.00     0.169 HD
HETATM   16  O   UNL     1       6.543  28.249  55.016  1.00  0.00    -0.272 OA
BRANCH  14  17
HETATM   17  C   UNL     1       6.200  25.497  53.917  1.00  0.00     0.035 A 
HETATM   18  C   UNL     1       6.727  24.485  54.721  1.00  0.00     0.045 A 
HETATM   19  C   UNL     1       7.689  23.593  54.211  1.00  0.00     0.050 A 
HETATM   20  C   UNL     1       8.098  23.714  52.875  1.00  0.00     0.016 A 
HETATM   21  C   UNL     1       7.575  24.721  52.069  1.00  0.00     0.003 A 
HETATM   22  C   UNL     1       6.637  25.611  52.591  1.00  0.00     0.029 A 
BRANCH  19  23
HETATM   23  C   UNL     1       8.255  22.493  55.076  1.00  0.00     0.417 C 
HETATM   24  F   UNL     1       7.354  21.522  55.388  1.00  0.00    -0.166 F 
HETATM   25  F   UNL     1       9.306  21.860  54.487  1.00  0.00    -0.166 F 
HETATM   26  F   UNL     1       8.724  22.956  56.271  1.00  0.00    -0.166 F 
ENDBRANCH  19  23
ENDBRANCH  14  17
ENDBRANCH  12  13
ENDBRANCH  11  12
ENDBRANCH   4  11
BRANCH   8  27
HETATM   27  C   UNL     1       3.995  34.248  57.582  1.00  0.00    -0.042 A 
HETATM   28  C   UNL     1       4.904  34.785  56.657  1.00  0.00     0.027 A 
HETATM   29  C   UNL     1       4.967  36.160  56.506  1.00  0.00     0.116 A 
HETATM   30  N   UNL     1       4.193  37.023  57.194  1.00  0.00    -0.273 NA
HETATM   31  C   UNL     1       3.340  36.495  58.097  1.00  0.00     0.116 A 
HETATM   32  C   UNL     1       3.210  35.135  58.329  1.00  0.00     0.027 A 
ENDBRANCH   8  27
BRANCH   9  33
HETATM   33  C   UNL     1       5.163  32.291  60.032  1.00  0.00     0.255 C 
HETATM   34  N   UNL     1       6.304  32.880  60.528  1.00  0.00    -0.323 N 
HETATM   35  H   UNL     1       7.047  33.114  59.885  1.00  0.00     0.169 HD
HETATM   36  O   UNL     1       4.192  31.950  60.702  1.00  0.00    -0.268 OA
BRANCH  34  37
HETATM   37  C   UNL     1       6.564  33.238  61.870  1.00  0.00     0.035 A 
HETATM   38  C   UNL     1       5.909  34.268  62.549  1.00  0.00     0.029 A 
HETATM   39  C   UNL     1       6.240  34.569  63.874  1.00  0.00     0.002 A 
HETATM   40  C   UNL     1       7.235  33.849  64.530  1.00  0.00     0.000 A 
HETATM   41  C   UNL     1       7.893  32.819  63.865  1.00  0.00     0.002 A 
HETATM   42  C   UNL     1       7.552  32.508  62.545  1.00  0.00     0.029 A 
ENDBRANCH  34  37
ENDBRANCH   9  33
TORSDOF 8
ENDMDL
MODEL 7
REMARK VINA RESULT:      -9.9      5.190     10.827
REMARK  8 active torsions:
REMARK  status: ('A' for Active; 'I' for Inactive)
REMARK    1  A    between atoms: C_4  and  S_5 
REMARK    2  A    between atoms: S_5  and  C_6 
REMARK    3  A    between atoms: C_6  and  C_7 
REMARK       I    between atoms: C_7  and  N_8 
REMARK    4  A    between atoms: N_8  and  C_9 
REMARK    5  A    between atoms: C_11  and  C_12 
REMARK    6  A    between atoms: C_23  and  C_24 
REMARK    7  A    between atoms: C_30  and  C_31 
REMARK       I    between atoms: C_31  and  N_32 
REMARK    8  A    between atoms: N_32  and  C_33 
ROOT
HETATM    1  C   UNL     1       4.353  28.807  54.489  1.00  0.00     0.069 C 
HETATM    2  C   UNL     1       5.167  29.402  55.614  1.00  0.00     0.019 C 
HETATM    3  N   UNL     1       4.903  30.735  55.893  1.00  0.00    -0.353 N 
HETATM    4  C   UNL     1       5.359  31.408  57.012  1.00  0.00     0.087 C 
HETATM    5  C   UNL     1       6.339  30.847  57.756  1.00  0.00     0.055 C 
HETATM    6  C   UNL     1       7.009  31.595  58.897  1.00  0.00     0.019 C 
HETATM    7  N   UNL     1       7.566  32.215  59.843  1.00  0.00    -0.096 N 
HETATM    8  C   UNL     1       6.888  29.457  57.425  1.00  0.00     0.104 C 
HETATM    9  C   UNL     1       6.083  28.726  56.349  1.00  0.00     0.046 C 
HETATM   10  H   UNL     1       4.052  31.123  55.488  1.00  0.00     0.166 HD
ENDROOT
BRANCH   4  11
HETATM   11  S   UNL     1       4.546  32.874  57.512  1.00  0.00    -0.102 SA
BRANCH  11  12
HETATM   12  C   UNL     1       3.354  32.271  58.750  1.00  0.00     0.184 C 
BRANCH  12  13
HETATM   13  C   UNL     1       3.772  32.594  60.192  1.00  0.00     0.231 C 
HETATM   14  N   UNL     1       4.502  33.757  60.346  1.00  0.00    -0.327 N 
HETATM   15  H   UNL     1       4.731  34.235  59.481  1.00  0.00     0.169 HD
HETATM   16  O   UNL     1       3.439  31.838  61.102  1.00  0.00    -0.272 OA
BRANCH  14  17
HETATM   17  C   UNL     1       4.999  34.344  61.525  1.00  0.00     0.035 A 
HETATM   18  C   UNL     1       5.828  33.689  62.437  1.00  0.00     0.045 A 
HETATM   19  C   UNL     1       6.268  34.342  63.604  1.00  0.00     0.050 A 
HETATM   20  C   UNL     1       5.884  35.672  63.833  1.00  0.00     0.016 A 
HETATM   21  C   UNL     1       5.057  36.330  62.927  1.00  0.00     0.003 A 
HETATM   22  C   UNL     1       4.612  35.666  61.784  1.00  0.00     0.029 A 
BRANCH  19  23
HETATM   23  C   UNL     1       7.171  33.638  64.587  1.00  0.00     0.417 C 
HETATM   24  F   UNL     1       8.214  34.400  65.017  1.00  0.00    -0.166 F 
HETATM   25  F   UNL     1       6.508  33.239  65.706  1.00  0.00    -0.166 F 
HETATM   26  F   UNL     1       7.731  32.508  64.066  1.00  0.00    -0.166 F 
ENDBRANCH  19  23
ENDBRANCH  14  17
ENDBRANCH  12  13
ENDBRANCH  11  12
ENDBRANCH   4  11
BRANCH   8  27
HETATM   27  C   UNL     1       8.379  29.544  57.102  1.00  0.00    -0.042 A 
HETATM   28  C   UNL     1       9.309  29.755  58.132  1.00  0.00     0.027 A 
HETATM   29  C   UNL     1      10.654  29.834  57.812  1.00  0.00     0.116 A 
HETATM   30  N   UNL     1      11.130  29.711  56.557  1.00  0.00    -0.273 NA
HETATM   31  C   UNL     1      10.225  29.532  55.572  1.00  0.00     0.116 A 
HETATM   32  C   UNL     1       8.859  29.450  55.789  1.00  0.00     0.027 A 
ENDBRANCH   8  27
BRANCH   9  33
HETATM   33  C   UNL     1       6.108  27.224  56.294  1.00  0.00     0.255 C 
HETATM   34  N   UNL     1       7.014  26.677  55.413  1.00  0.00    -0.323 N 
HETATM   35  H   UNL     1       7.543  27.296  54.817  1.00  0.00     0.169 HD
HETATM   36  O   UNL     1       5.397  26.588  57.067  1.00  0.00    -0.268 OA
BRANCH  34  37
HETATM   37  C   UNL     1       7.327  25.308  55.255  1.00  0.00     0.035 A 
HETATM   38  C   UNL     1       8.046  24.554  56.186  1.00  0.00     0.029 A 
HETATM   39  C   UNL     1       8.329  23.207  55.942  1.00  0.00     0.002 A 
HETATM   40  C   UNL     1       7.906  22.603  54.761  1.00  0.00     0.000 A 
HETATM   41  C   UNL     1       7.187  23.343  53.827  1.00  0.00     0.002 A 
HETATM   42  C   UNL     1       6.891  24.686  54.077  1.00  0.00     0.029 A 
ENDBRANCH  34  37
ENDBRANCH   9  33
TORSDOF 8
ENDMDL
MODEL 8
REMARK VINA RESULT:      -9.8      6.257     10.414
REMARK  8 active torsions:
REMARK  status: ('A' for Active; 'I' for Inactive)
REMARK    1  A    between atoms: C_4  and  S_5 
REMARK    2  A    between atoms: S_5  and  C_6 
REMARK    3  A    between atoms: C_6  and  C_7 
REMARK       I    between atoms: C_7  and  N_8 
REMARK    4  A    between atoms: N_8  and  C_9 
REMARK    5  A    between atoms: C_11  and  C_12 
REMARK    6  A    between atoms: C_23  and  C_24 
REMARK    7  A    between atoms: C_30  and  C_31 
REMARK       I    between atoms: C_31  and  N_32 
REMARK    8  A    between atoms: N_32  and  C_33 
ROOT
HETATM    1  C   UNL     1       5.737  26.648  50.985  1.00  0.00     0.069 C 
HETATM    2  C   UNL     1       5.389  27.294  52.304  1.00  0.00     0.019 C 
HETATM    3  N   UNL     1       4.925  28.598  52.219  1.00  0.00    -0.353 N 
HETATM    4  C   UNL     1       4.341  29.293  53.262  1.00  0.00     0.087 C 
HETATM    5  C   UNL     1       4.459  28.805  54.519  1.00  0.00     0.055 C 
HETATM    6  C   UNL     1       3.995  29.593  55.733  1.00  0.00     0.019 C 
HETATM    7  N   UNL     1       3.611  30.245  56.741  1.00  0.00    -0.096 N 
HETATM    8  C   UNL     1       5.153  27.468  54.787  1.00  0.00     0.104 C 
HETATM    9  C   UNL     1       5.479  26.686  53.513  1.00  0.00     0.046 C 
HETATM   10  H   UNL     1       4.647  28.920  51.293  1.00  0.00     0.166 HD
ENDROOT
BRANCH   4  11
HETATM   11  S   UNL     1       3.341  30.684  52.904  1.00  0.00    -0.102 SA
BRANCH  11  12
HETATM   12  C   UNL     1       4.078  31.324  51.366  1.00  0.00     0.184 C 
BRANCH  12  13
HETATM   13  C   UNL     1       3.907  30.368  50.177  1.00  0.00     0.231 C 
HETATM   14  N   UNL     1       2.620  29.911  49.970  1.00  0.00    -0.327 N 
HETATM   15  H   UNL     1       1.943  30.212  50.663  1.00  0.00     0.169 HD
HETATM   16  O   UNL     1       4.885  30.078  49.490  1.00  0.00    -0.272 OA
BRANCH  14  17
HETATM   17  C   UNL     1       2.131  29.063  48.957  1.00  0.00     0.035 A 
HETATM   18  C   UNL     1       1.185  29.446  48.005  1.00  0.00     0.045 A 
HETATM   19  C   UNL     1       0.733  28.532  47.035  1.00  0.00     0.050 A 
HETATM   20  C   UNL     1       1.263  27.233  47.016  1.00  0.00     0.016 A 
HETATM   21  C   UNL     1       2.207  26.846  47.963  1.00  0.00     0.003 A 
HETATM   22  C   UNL     1       2.632  27.756  48.932  1.00  0.00     0.029 A 
BRANCH  19  23
HETATM   23  C   UNL     1      -0.284  28.946  45.999  1.00  0.00     0.417 C 
HETATM   24  F   UNL     1       0.154  29.925  45.160  1.00  0.00    -0.166 F 
HETATM   25  F   UNL     1      -0.665  27.909  45.204  1.00  0.00    -0.166 F 
HETATM   26  F   UNL     1      -1.432  29.426  46.557  1.00  0.00    -0.166 F 
ENDBRANCH  19  23
ENDBRANCH  14  17
ENDBRANCH  12  13
ENDBRANCH  11  12
ENDBRANCH   4  11
BRANCH   8  27
HETATM   27  C   UNL     1       6.370  27.679  55.687  1.00  0.00    -0.042 A 
HETATM   28  C   UNL     1       6.438  27.038  56.934  1.00  0.00     0.027 A 
HETATM   29  C   UNL     1       7.549  27.248  57.733  1.00  0.00     0.116 A 
HETATM   30  N   UNL     1       8.586  28.033  57.378  1.00  0.00    -0.273 NA
HETATM   31  C   UNL     1       8.499  28.662  56.187  1.00  0.00     0.116 A 
HETATM   32  C   UNL     1       7.425  28.525  55.321  1.00  0.00     0.027 A 
ENDBRANCH   8  27
BRANCH   9  33
HETATM   33  C   UNL     1       5.629  25.191  53.575  1.00  0.00     0.255 C 
HETATM   34  N   UNL     1       6.887  24.734  53.896  1.00  0.00    -0.323 N 
HETATM   35  H   UNL     1       7.635  25.404  53.994  1.00  0.00     0.169 HD
HETATM   36  O   UNL     1       4.636  24.486  53.418  1.00  0.00    -0.268 OA
BRANCH  34  37
HETATM   37  C   UNL     1       7.269  23.395  54.141  1.00  0.00     0.035 A 
HETATM   38  C   UNL     1       7.347  22.821  55.411  1.00  0.00     0.029 A 
HETATM   39  C   UNL     1       7.753  21.491  55.567  1.00  0.00     0.002 A 
HETATM   40  C   UNL     1       8.095  20.727  54.454  1.00  0.00     0.000 A 
HETATM   41  C   UNL     1       8.018  21.288  53.183  1.00  0.00     0.002 A 
HETATM   42  C   UNL     1       7.598  22.612  53.026  1.00  0.00     0.029 A 
ENDBRANCH  34  37
ENDBRANCH   9  33
TORSDOF 8
ENDMDL
MODEL 9
REMARK VINA RESULT:      -9.8      3.898      8.904
REMARK  8 active torsions:
REMARK  status: ('A' for Active; 'I' for Inactive)
REMARK    1  A    between atoms: C_4  and  S_5 
REMARK    2  A    between atoms: S_5  and  C_6 
REMARK    3  A    between atoms: C_6  and  C_7 
REMARK       I    between atoms: C_7  and  N_8 
REMARK    4  A    between atoms: N_8  and  C_9 
REMARK    5  A    between atoms: C_11  and  C_12 
REMARK    6  A    between atoms: C_23  and  C_24 
REMARK    7  A    between atoms: C_30  and  C_31 
REMARK       I    between atoms: C_31  and  N_32 
REMARK    8  A    between atoms: N_32  and  C_33 
ROOT
HETATM    1  C   UNL     1       4.465  27.086  56.930  1.00  0.00     0.069 C 
HETATM    2  C   UNL     1       4.458  28.214  55.927  1.00  0.00     0.019 C 
HETATM    3  N   UNL     1       3.646  29.290  56.253  1.00  0.00    -0.353 N 
HETATM    4  C   UNL     1       3.661  30.511  55.604  1.00  0.00     0.087 C 
HETATM    5  C   UNL     1       4.292  30.608  54.411  1.00  0.00     0.055 C 
HETATM    6  C   UNL     1       4.210  31.863  53.558  1.00  0.00     0.019 C 
HETATM    7  N   UNL     1       4.141  32.903  52.850  1.00  0.00    -0.096 N 
HETATM    8  C   UNL     1       5.050  29.418  53.817  1.00  0.00     0.104 C 
HETATM    9  C   UNL     1       5.189  28.242  54.786  1.00  0.00     0.046 C 
HETATM   10  H   UNL     1       3.315  29.332  57.216  1.00  0.00     0.166 HD
ENDROOT
BRANCH   4  11
HETATM   11  S   UNL     1       3.006  31.915  56.416  1.00  0.00    -0.102 SA
BRANCH  11  12
HETATM   12  C   UNL     1       3.699  31.770  58.094  1.00  0.00     0.184 C 
BRANCH  12  13
HETATM   13  C   UNL     1       5.186  32.143  58.163  1.00  0.00     0.231 C 
HETATM   14  N   UNL     1       6.039  31.103  58.479  1.00  0.00    -0.327 N 
HETATM   15  H   UNL     1       5.580  30.223  58.690  1.00  0.00     0.169 HD
HETATM   16  O   UNL     1       5.531  33.300  57.930  1.00  0.00    -0.272 OA
BRANCH  14  17
HETATM   17  C   UNL     1       7.444  31.107  58.585  1.00  0.00     0.035 A 
HETATM   18  C   UNL     1       8.295  30.413  57.724  1.00  0.00     0.045 A 
HETATM   19  C   UNL     1       9.690  30.454  57.908  1.00  0.00     0.050 A 
HETATM   20  C   UNL     1      10.222  31.222  58.954  1.00  0.00     0.016 A 
HETATM   21  C   UNL     1       9.378  31.917  59.815  1.00  0.00     0.003 A 
HETATM   22  C   UNL     1       7.996  31.852  59.634  1.00  0.00     0.029 A 
BRANCH  19  23
HETATM   23  C   UNL     1      10.613  29.711  56.973  1.00  0.00     0.417 C 
HETATM   24  F   UNL     1      10.541  30.131  55.681  1.00  0.00    -0.166 F 
HETATM   25  F   UNL     1      11.920  29.826  57.336  1.00  0.00    -0.166 F 
HETATM   26  F   UNL     1      10.356  28.371  56.940  1.00  0.00    -0.166 F 
ENDBRANCH  19  23
ENDBRANCH  14  17
ENDBRANCH  12  13
ENDBRANCH  11  12
ENDBRANCH   4  11
BRANCH   8  27
HETATM   27  C   UNL     1       4.435  29.019  52.476  1.00  0.00    -0.042 A 
HETATM   28  C   UNL     1       3.051  29.144  52.276  1.00  0.00     0.027 A 
HETATM   29  C   UNL     1       2.518  28.772  51.053  1.00  0.00     0.116 A 
HETATM   30  N   UNL     1       3.257  28.301  50.029  1.00  0.00    -0.273 NA
HETATM   31  C   UNL     1       4.583  28.163  50.242  1.00  0.00     0.116 A 
HETATM   32  C   UNL     1       5.209  28.497  51.432  1.00  0.00     0.027 A 
ENDBRANCH   8  27
BRANCH   9  33
HETATM   33  C   UNL     1       6.321  27.266  54.614  1.00  0.00     0.255 C 
HETATM   34  N   UNL     1       5.951  25.948  54.466  1.00  0.00    -0.323 N 
HETATM   35  H   UNL     1       4.975  25.707  54.555  1.00  0.00     0.169 HD
HETATM   36  O   UNL     1       7.469  27.693  54.539  1.00  0.00    -0.268 OA
BRANCH  34  37
HETATM   37  C   UNL     1       6.795  24.855  54.168  1.00  0.00     0.035 A 
HETATM   38  C   UNL     1       7.361  24.014  55.128  1.00  0.00     0.029 A 
HETATM   39  C   UNL     1       8.203  22.964  54.748  1.00  0.00     0.002 A 
HETATM   40  C   UNL     1       8.495  22.752  53.403  1.00  0.00     0.000 A 
HETATM   41  C   UNL     1       7.935  23.581  52.436  1.00  0.00     0.002 A 
HETATM   42  C   UNL     1       7.082  24.621  52.815  1.00  0.00     0.029 A 
ENDBRANCH  34  37
ENDBRANCH   9  33
TORSDOF 8
ENDMDL
MODEL 10
REMARK VINA RESULT:      -9.7      6.016     10.864
REMARK  8 active torsions:
REMARK  status: ('A' for Active; 'I' for Inactive)
REMARK    1  A    between atoms: C_4  and  S_5 
REMARK    2  A    between atoms: S_5  and  C_6 
REMARK    3  A    between atoms: C_6  and  C_7 
REMARK       I    between atoms: C_7  and  N_8 
REMARK    4  A    between atoms: N_8  and  C_9 
REMARK    5  A    between atoms: C_11  and  C_12 
REMARK    6  A    between atoms: C_23  and  C_24 
REMARK    7  A    between atoms: C_30  and  C_31 
REMARK       I    between atoms: C_31  and  N_32 
REMARK    8  A    between atoms: N_32  and  C_33 
ROOT
HETATM    1  C   UNL     1       5.599  27.148  51.048  1.00  0.00     0.069 C 
HETATM    2  C   UNL     1       5.283  27.695  52.419  1.00  0.00     0.019 C 
HETATM    3  N   UNL     1       4.798  28.994  52.439  1.00  0.00    -0.353 N 
HETATM    4  C   UNL     1       4.237  29.606  53.545  1.00  0.00     0.087 C 
HETATM    5  C   UNL     1       4.401  29.034  54.760  1.00  0.00     0.055 C 
HETATM    6  C   UNL     1       3.964  29.728  56.040  1.00  0.00     0.019 C 
HETATM    7  N   UNL     1       3.602  30.302  57.102  1.00  0.00    -0.096 N 
HETATM    8  C   UNL     1       5.123  27.693  54.914  1.00  0.00     0.104 C 
HETATM    9  C   UNL     1       5.420  27.007  53.579  1.00  0.00     0.046 C 
HETATM   10  H   UNL     1       4.487  29.375  51.546  1.00  0.00     0.166 HD
ENDROOT
BRANCH   4  11
HETATM   11  S   UNL     1       3.206  31.001  53.315  1.00  0.00    -0.102 SA
BRANCH  11  12
HETATM   12  C   UNL     1       4.402  32.370  53.199  1.00  0.00     0.184 C 
BRANCH  12  13
HETATM   13  C   UNL     1       4.487  32.974  51.791  1.00  0.00     0.231 C 
HETATM   14  N   UNL     1       5.418  32.387  50.955  1.00  0.00    -0.327 N 
HETATM   15  H   UNL     1       5.982  31.662  51.386  1.00  0.00     0.169 HD
HETATM   16  O   UNL     1       3.745  33.905  51.486  1.00  0.00    -0.272 OA
BRANCH  14  17
HETATM   17  C   UNL     1       5.713  32.680  49.609  1.00  0.00     0.035 A 
HETATM   18  C   UNL     1       6.715  33.563  49.202  1.00  0.00     0.045 A 
HETATM   19  C   UNL     1       6.935  33.815  47.835  1.00  0.00     0.050 A 
HETATM   20  C   UNL     1       6.153  33.151  46.879  1.00  0.00     0.016 A 
HETATM   21  C   UNL     1       5.153  32.269  47.280  1.00  0.00     0.003 A 
HETATM   22  C   UNL     1       4.931  32.042  48.638  1.00  0.00     0.029 A 
BRANCH  19  23
HETATM   23  C   UNL     1       8.023  34.764  47.392  1.00  0.00     0.417 C 
HETATM   24  F   UNL     1       9.137  34.724  48.173  1.00  0.00    -0.166 F 
HETATM   25  F   UNL     1       8.442  34.513  46.122  1.00  0.00    -0.166 F 
HETATM   26  F   UNL     1       7.616  36.066  47.396  1.00  0.00    -0.166 F 
ENDBRANCH  19  23
ENDBRANCH  14  17
ENDBRANCH  12  13
ENDBRANCH  11  12
ENDBRANCH   4  11
BRANCH   8  27
HETATM   27  C   UNL     1       6.364  27.861  55.790  1.00  0.00    -0.042 A 
HETATM   28  C   UNL     1       6.455  27.179  57.013  1.00  0.00     0.027 A 
HETATM   29  C   UNL     1       7.589  27.350  57.790  1.00  0.00     0.116 A 
HETATM   30  N   UNL     1       8.625  28.136  57.434  1.00  0.00    -0.273 NA
HETATM   31  C   UNL     1       8.515  28.805  56.267  1.00  0.00     0.116 A 
HETATM   32  C   UNL     1       7.419  28.708  55.425  1.00  0.00     0.027 A 
ENDBRANCH   8  27
BRANCH   9  33
HETATM   33  C   UNL     1       5.593  25.514  53.532  1.00  0.00     0.255 C 
HETATM   34  N   UNL     1       6.860  25.054  53.814  1.00  0.00    -0.323 N 
HETATM   35  H   UNL     1       7.598  25.728  53.958  1.00  0.00     0.169 HD
HETATM   36  O   UNL     1       4.611  24.806  53.328  1.00  0.00    -0.268 OA
BRANCH  34  37
HETATM   37  C   UNL     1       7.264  23.708  53.960  1.00  0.00     0.035 A 
HETATM   38  C   UNL     1       7.625  22.877  52.897  1.00  0.00     0.029 A 
HETATM   39  C   UNL     1       7.996  21.548  53.128  1.00  0.00     0.002 A 
HETATM   40  C   UNL     1       7.999  21.035  54.422  1.00  0.00     0.000 A 
HETATM   41  C   UNL     1       7.644  21.854  55.490  1.00  0.00     0.002 A 
HETATM   42  C   UNL     1       7.288  23.187  55.261  1.00  0.00     0.029 A 
ENDBRANCH  34  37
ENDBRANCH   9  33
TORSDOF 8
ENDMDL
