MODEL 1
REMARK VINA RESULT:      -8.8      0.000      0.000
REMARK  5 active torsions:
REMARK  status: ('A' for Active; 'I' for Inactive)
REMARK    1  A    between atoms: C_2  and  O_3 
REMARK    2  A    between atoms: O_3  and  C_4 
REMARK    3  A    between atoms: C_7  and  C_8 
REMARK       I    between atoms: C_8  and  N_9 
REMARK    4  A    between atoms: N_9  and  N_10 
REMARK    5  A    between atoms: C_11  and  C_12 
ROOT
HETATM    1  C   UNL     1       9.059  29.480  56.716  1.00  0.00     0.271 C 
HETATM    2  N   UNL     1       8.068  28.528  56.524  1.00  0.00    -0.243 N 
HETATM    3  O   UNL     1       9.985  29.701  55.942  1.00  0.00    -0.266 OA
HETATM    4  H   UNL     1       7.395  28.317  57.249  1.00  0.00     0.192 HD
ENDROOT
BRANCH   2   5
HETATM    5  N   UNL     1       8.134  27.712  55.429  1.00  0.00    -0.183 NA
HETATM    6  C   UNL     1       7.400  26.649  55.462  1.00  0.00     0.152 C 
BRANCH   6   7
HETATM    7  C   UNL     1       7.451  25.718  54.353  1.00  0.00     0.011 A 
HETATM    8  C   UNL     1       7.652  24.300  54.405  1.00  0.00     0.005 A 
HETATM    9  C   UNL     1       7.641  23.830  53.089  1.00  0.00     0.043 A 
HETATM   10  C   UNL     1       7.839  23.369  55.449  1.00  0.00     0.033 A 
HETATM   11  C   UNL     1       7.811  22.479  52.761  1.00  0.00     0.031 A 
HETATM   12  N   UNL     1       7.437  24.916  52.270  1.00  0.00    -0.364 N 
HETATM   13  C   UNL     1       7.994  21.575  53.811  1.00  0.00     0.021 A 
HETATM   14  C   UNL     1       8.006  22.016  55.132  1.00  0.00     0.012 A 
HETATM   15 BR   UNL     1       8.247  20.762  56.530  1.00  0.00    -0.051 Br
HETATM   16  H   UNL     1       7.381  24.877  51.261  1.00  0.00     0.165 HD
HETATM   17  C   UNL     1       7.317  26.053  53.018  1.00  0.00     0.102 A 
ENDBRANCH   6   7
ENDBRANCH   2   5
BRANCH   1  18
HETATM   18  C   UNL     1       8.988  30.251  57.993  1.00  0.00     0.033 A 
HETATM   19  C   UNL     1       7.956  30.088  58.923  1.00  0.00     0.020 A 
HETATM   20  C   UNL     1       7.967  30.830  60.111  1.00  0.00     0.038 A 
HETATM   21  C   UNL     1       8.992  31.743  60.379  1.00  0.00     0.068 A 
HETATM   22  C   UNL     1      10.002  31.927  59.438  1.00  0.00     0.038 A 
HETATM   23  C   UNL     1       9.999  31.186  58.251  1.00  0.00     0.020 A 
BRANCH  21  24
HETATM   24  O   UNL     1       8.883  32.388  61.579  1.00  0.00    -0.352 OA
BRANCH  24  25
HETATM   25  C   UNL     1       7.972  31.835  62.531  1.00  0.00     0.171 C 
HETATM   26  C   UNL     1       7.934  32.756  63.736  1.00  0.00     0.034 C 
ENDBRANCH  24  25
ENDBRANCH  21  24
ENDBRANCH   1  18
TORSDOF 5
ENDMDL
MODEL 2
REMARK VINA RESULT:      -8.8      6.089     10.356
REMARK  5 active torsions:
REMARK  status: ('A' for Active; 'I' for Inactive)
REMARK    1  A    between atoms: C_2  and  O_3 
REMARK    2  A    between atoms: O_3  and  C_4 
REMARK    3  A    between atoms: C_7  and  C_8 
REMARK       I    between atoms: C_8  and  N_9 
REMARK    4  A    between atoms: N_9  and  N_10 
REMARK    5  A    between atoms: C_11  and  C_12 
ROOT
HETATM    1  C   UNL     1       4.594  26.795  49.827  1.00  0.00     0.271 C 
HETATM    2  N   UNL     1       4.610  25.650  50.611  1.00  0.00    -0.243 N 
HETATM    3  O   UNL     1       5.390  27.725  49.922  1.00  0.00    -0.266 OA
HETATM    4  H   UNL     1       3.863  24.969  50.560  1.00  0.00     0.192 HD
ENDROOT
BRANCH   2   5
HETATM    5  N   UNL     1       5.530  25.545  51.617  1.00  0.00    -0.183 NA
HETATM    6  C   UNL     1       5.068  25.249  52.786  1.00  0.00     0.152 C 
BRANCH   6   7
HETATM    7  C   UNL     1       5.981  25.162  53.908  1.00  0.00     0.011 A 
HETATM    8  C   UNL     1       6.920  24.118  54.196  1.00  0.00     0.005 A 
HETATM    9  C   UNL     1       7.568  24.459  55.387  1.00  0.00     0.043 A 
HETATM   10  C   UNL     1       7.285  22.915  53.555  1.00  0.00     0.033 A 
HETATM   11  C   UNL     1       8.556  23.659  55.973  1.00  0.00     0.031 A 
HETATM   12  N   UNL     1       7.047  25.663  55.804  1.00  0.00    -0.364 N 
HETATM   13  C   UNL     1       8.902  22.473  55.320  1.00  0.00     0.021 A 
HETATM   14  C   UNL     1       8.276  22.111  54.130  1.00  0.00     0.012 A 
HETATM   15 BR   UNL     1       8.775  20.501  53.268  1.00  0.00    -0.051 Br
HETATM   16  H   UNL     1       7.329  26.156  56.640  1.00  0.00     0.165 HD
HETATM   17  C   UNL     1       6.098  26.094  54.921  1.00  0.00     0.102 A 
ENDBRANCH   6   7
ENDBRANCH   2   5
BRANCH   1  18
HETATM   18  C   UNL     1       3.488  26.891  48.830  1.00  0.00     0.033 A 
HETATM   19  C   UNL     1       2.547  27.927  48.834  1.00  0.00     0.020 A 
HETATM   20  C   UNL     1       1.550  27.965  47.852  1.00  0.00     0.038 A 
HETATM   21  C   UNL     1       1.471  26.974  46.869  1.00  0.00     0.068 A 
HETATM   22  C   UNL     1       2.388  25.926  46.884  1.00  0.00     0.038 A 
HETATM   23  C   UNL     1       3.390  25.884  47.860  1.00  0.00     0.020 A 
BRANCH  21  24
HETATM   24  O   UNL     1       0.456  27.143  45.968  1.00  0.00    -0.352 OA
BRANCH  24  25
HETATM   25  C   UNL     1      -0.649  27.946  46.381  1.00  0.00     0.171 C 
HETATM   26  C   UNL     1      -0.984  28.904  45.252  1.00  0.00     0.034 C 
ENDBRANCH  24  25
ENDBRANCH  21  24
ENDBRANCH   1  18
TORSDOF 5
ENDMDL
MODEL 3
REMARK VINA RESULT:      -8.7      2.219      2.771
REMARK  5 active torsions:
REMARK  status: ('A' for Active; 'I' for Inactive)
REMARK    1  A    between atoms: C_2  and  O_3 
REMARK    2  A    between atoms: O_3  and  C_4 
REMARK    3  A    between atoms: C_7  and  C_8 
REMARK       I    between atoms: C_8  and  N_9 
REMARK    4  A    between atoms: N_9  and  N_10 
REMARK    5  A    between atoms: C_11  and  C_12 
ROOT
HETATM    1  C   UNL     1       8.773  29.598  58.333  1.00  0.00     0.271 C 
HETATM    2  N   UNL     1       7.919  28.520  58.150  1.00  0.00    -0.243 N 
HETATM    3  O   UNL     1       9.858  29.741  57.778  1.00  0.00    -0.266 OA
HETATM    4  H   UNL     1       7.089  28.406  58.717  1.00  0.00     0.192 HD
ENDROOT
BRANCH   2   5
HETATM    5  N   UNL     1       8.313  27.489  57.344  1.00  0.00    -0.183 NA
HETATM    6  C   UNL     1       7.668  26.378  57.479  1.00  0.00     0.152 C 
BRANCH   6   7
HETATM    7  C   UNL     1       8.059  25.230  56.686  1.00  0.00     0.011 A 
HETATM    8  C   UNL     1       7.627  24.887  55.364  1.00  0.00     0.005 A 
HETATM    9  C   UNL     1       8.258  23.689  55.017  1.00  0.00     0.043 A 
HETATM   10  C   UNL     1       6.760  25.485  54.424  1.00  0.00     0.033 A 
HETATM   11  C   UNL     1       8.064  23.055  53.784  1.00  0.00     0.031 A 
HETATM   12  N   UNL     1       9.045  23.320  56.084  1.00  0.00    -0.364 N 
HETATM   13  C   UNL     1       7.202  23.665  52.868  1.00  0.00     0.021 A 
HETATM   14  C   UNL     1       6.564  24.861  53.186  1.00  0.00     0.012 A 
HETATM   15 BR   UNL     1       5.409  25.665  51.920  1.00  0.00    -0.051 Br
HETATM   16  H   UNL     1       9.621  22.490  56.116  1.00  0.00     0.165 HD
HETATM   17  C   UNL     1       8.937  24.240  57.088  1.00  0.00     0.102 A 
ENDBRANCH   6   7
ENDBRANCH   2   5
BRANCH   1  18
HETATM   18  C   UNL     1       8.327  30.627  59.318  1.00  0.00     0.033 A 
HETATM   19  C   UNL     1       7.165  31.388  59.151  1.00  0.00     0.020 A 
HETATM   20  C   UNL     1       6.797  32.320  60.129  1.00  0.00     0.038 A 
HETATM   21  C   UNL     1       7.581  32.512  61.271  1.00  0.00     0.068 A 
HETATM   22  C   UNL     1       8.755  31.776  61.422  1.00  0.00     0.038 A 
HETATM   23  C   UNL     1       9.126  30.840  60.450  1.00  0.00     0.020 A 
BRANCH  21  24
HETATM   24  O   UNL     1       7.097  33.443  62.146  1.00  0.00    -0.352 OA
BRANCH  24  25
HETATM   25  C   UNL     1       6.579  32.958  63.385  1.00  0.00     0.171 C 
HETATM   26  C   UNL     1       7.489  33.443  64.499  1.00  0.00     0.034 C 
ENDBRANCH  24  25
ENDBRANCH  21  24
ENDBRANCH   1  18
TORSDOF 5
ENDMDL
MODEL 4
REMARK VINA RESULT:      -8.1      1.477      2.170
REMARK  5 active torsions:
REMARK  status: ('A' for Active; 'I' for Inactive)
REMARK    1  A    between atoms: C_2  and  O_3 
REMARK    2  A    between atoms: O_3  and  C_4 
REMARK    3  A    between atoms: C_7  and  C_8 
REMARK       I    between atoms: C_8  and  N_9 
REMARK    4  A    between atoms: N_9  and  N_10 
REMARK    5  A    between atoms: C_11  and  C_12 
ROOT
HETATM    1  C   UNL     1       8.754  30.460  58.440  1.00  0.00     0.271 C 
HETATM    2  N   UNL     1       7.685  29.741  57.926  1.00  0.00    -0.243 N 
HETATM    3  O   UNL     1       9.830  30.628  57.873  1.00  0.00    -0.266 OA
HETATM    4  H   UNL     1       6.865  29.546  58.487  1.00  0.00     0.192 HD
ENDROOT
BRANCH   2   5
HETATM    5  N   UNL     1       7.828  29.104  56.725  1.00  0.00    -0.183 NA
HETATM    6  C   UNL     1       6.858  28.327  56.370  1.00  0.00     0.152 C 
BRANCH   6   7
HETATM    7  C   UNL     1       6.961  27.588  55.129  1.00  0.00     0.011 A 
HETATM    8  C   UNL     1       7.324  26.212  54.953  1.00  0.00     0.005 A 
HETATM    9  C   UNL     1       7.303  25.948  53.581  1.00  0.00     0.043 A 
HETATM   10  C   UNL     1       7.665  25.162  55.832  1.00  0.00     0.033 A 
HETATM   11  C   UNL     1       7.610  24.693  53.041  1.00  0.00     0.031 A 
HETATM   12  N   UNL     1       6.939  27.115  52.947  1.00  0.00    -0.364 N 
HETATM   13  C   UNL     1       7.944  23.668  53.931  1.00  0.00     0.021 A 
HETATM   14  C   UNL     1       7.968  23.903  55.303  1.00  0.00     0.012 A 
HETATM   15 BR   UNL     1       8.417  22.490  56.481  1.00  0.00    -0.051 Br
HETATM   16  H   UNL     1       6.840  27.222  51.947  1.00  0.00     0.165 HD
HETATM   17  C   UNL     1       6.727  28.102  53.867  1.00  0.00     0.102 A 
ENDBRANCH   6   7
ENDBRANCH   2   5
BRANCH   1  18
HETATM   18  C   UNL     1       8.565  31.027  59.808  1.00  0.00     0.033 A 
HETATM   19  C   UNL     1       7.621  32.018  60.098  1.00  0.00     0.020 A 
HETATM   20  C   UNL     1       7.484  32.486  61.410  1.00  0.00     0.038 A 
HETATM   21  C   UNL     1       8.287  31.986  62.440  1.00  0.00     0.068 A 
HETATM   22  C   UNL     1       9.249  31.022  62.145  1.00  0.00     0.038 A 
HETATM   23  C   UNL     1       9.388  30.547  60.836  1.00  0.00     0.020 A 
BRANCH  21  24
HETATM   24  O   UNL     1       8.038  32.524  63.671  1.00  0.00    -0.352 OA
BRANCH  24  25
HETATM   25  C   UNL     1       6.719  33.019  63.907  1.00  0.00     0.171 C 
HETATM   26  C   UNL     1       6.724  33.762  65.230  1.00  0.00     0.034 C 
ENDBRANCH  24  25
ENDBRANCH  21  24
ENDBRANCH   1  18
TORSDOF 5
ENDMDL
MODEL 5
REMARK VINA RESULT:      -8.1      5.587      9.066
REMARK  5 active torsions:
REMARK  status: ('A' for Active; 'I' for Inactive)
REMARK    1  A    between atoms: C_2  and  O_3 
REMARK    2  A    between atoms: O_3  and  C_4 
REMARK    3  A    between atoms: C_7  and  C_8 
REMARK       I    between atoms: C_8  and  N_9 
REMARK    4  A    between atoms: N_9  and  N_10 
REMARK    5  A    between atoms: C_11  and  C_12 
ROOT
HETATM    1  C   UNL     1       5.237  26.056  51.271  1.00  0.00     0.271 C 
HETATM    2  N   UNL     1       4.485  25.863  52.421  1.00  0.00    -0.243 N 
HETATM    3  O   UNL     1       6.356  25.593  51.074  1.00  0.00    -0.266 OA
HETATM    4  H   UNL     1       3.616  26.360  52.569  1.00  0.00     0.192 HD
ENDROOT
BRANCH   2   5
HETATM    5  N   UNL     1       5.028  25.161  53.460  1.00  0.00    -0.183 NA
HETATM    6  C   UNL     1       5.875  25.797  54.201  1.00  0.00     0.152 C 
BRANCH   6   7
HETATM    7  C   UNL     1       6.521  25.102  55.296  1.00  0.00     0.011 A 
HETATM    8  C   UNL     1       7.194  23.838  55.258  1.00  0.00     0.005 A 
HETATM    9  C   UNL     1       7.642  23.566  56.553  1.00  0.00     0.043 A 
HETATM   10  C   UNL     1       7.470  22.897  54.242  1.00  0.00     0.033 A 
HETATM   11  C   UNL     1       8.347  22.403  56.888  1.00  0.00     0.031 A 
HETATM   12  N   UNL     1       7.261  24.624  57.346  1.00  0.00    -0.364 N 
HETATM   13  C   UNL     1       8.609  21.487  55.865  1.00  0.00     0.021 A 
HETATM   14  C   UNL     1       8.177  21.734  54.565  1.00  0.00     0.012 A 
HETATM   15 BR   UNL     1       8.557  20.475  53.203  1.00  0.00    -0.051 Br
HETATM   16  H   UNL     1       7.452  24.702  58.336  1.00  0.00     0.165 HD
HETATM   17  C   UNL     1       6.592  25.553  56.600  1.00  0.00     0.102 A 
ENDBRANCH   6   7
ENDBRANCH   2   5
BRANCH   1  18
HETATM   18  C   UNL     1       4.626  26.932  50.228  1.00  0.00     0.033 A 
HETATM   19  C   UNL     1       4.595  26.593  48.871  1.00  0.00     0.020 A 
HETATM   20  C   UNL     1       3.984  27.455  47.952  1.00  0.00     0.038 A 
HETATM   21  C   UNL     1       3.411  28.661  48.368  1.00  0.00     0.068 A 
HETATM   22  C   UNL     1       3.469  29.013  49.715  1.00  0.00     0.038 A 
HETATM   23  C   UNL     1       4.075  28.154  50.639  1.00  0.00     0.020 A 
BRANCH  21  24
HETATM   24  O   UNL     1       2.840  29.396  47.368  1.00  0.00    -0.352 OA
BRANCH  24  25
HETATM   25  C   UNL     1       1.426  29.587  47.431  1.00  0.00     0.171 C 
HETATM   26  C   UNL     1       0.771  28.558  46.527  1.00  0.00     0.034 C 
ENDBRANCH  24  25
ENDBRANCH  21  24
ENDBRANCH   1  18
TORSDOF 5
ENDMDL
MODEL 6
REMARK VINA RESULT:      -7.9      6.919      9.558
REMARK  5 active torsions:
REMARK  status: ('A' for Active; 'I' for Inactive)
REMARK    1  A    between atoms: C_2  and  O_3 
REMARK    2  A    between atoms: O_3  and  C_4 
REMARK    3  A    between atoms: C_7  and  C_8 
REMARK       I    between atoms: C_8  and  N_9 
REMARK    4  A    between atoms: N_9  and  N_10 
REMARK    5  A    between atoms: C_11  and  C_12 
ROOT
HETATM    1  C   UNL     1       5.561  25.748  52.513  1.00  0.00     0.271 C 
HETATM    2  N   UNL     1       5.893  25.924  51.177  1.00  0.00    -0.243 N 
HETATM    3  O   UNL     1       4.610  26.278  53.080  1.00  0.00    -0.266 OA
HETATM    4  H   UNL     1       6.750  25.548  50.795  1.00  0.00     0.192 HD
ENDROOT
BRANCH   2   5
HETATM    5  N   UNL     1       5.162  26.798  50.421  1.00  0.00    -0.183 NA
HETATM    6  C   UNL     1       4.640  26.321  49.339  1.00  0.00     0.152 C 
BRANCH   6   7
HETATM    7  C   UNL     1       3.887  27.201  48.468  1.00  0.00     0.011 A 
HETATM    8  C   UNL     1       4.068  28.609  48.274  1.00  0.00     0.005 A 
HETATM    9  C   UNL     1       3.103  29.029  47.355  1.00  0.00     0.043 A 
HETATM   10  C   UNL     1       4.965  29.569  48.790  1.00  0.00     0.033 A 
HETATM   11  C   UNL     1       2.983  30.358  46.928  1.00  0.00     0.031 A 
HETATM   12  N   UNL     1       2.367  27.921  47.001  1.00  0.00    -0.364 N 
HETATM   13  C   UNL     1       3.883  31.290  47.453  1.00  0.00     0.021 A 
HETATM   14  C   UNL     1       4.856  30.898  48.367  1.00  0.00     0.012 A 
HETATM   15 BR   UNL     1       6.064  32.186  49.050  1.00  0.00    -0.051 Br
HETATM   16  H   UNL     1       1.597  27.924  46.346  1.00  0.00     0.165 HD
HETATM   17  C   UNL     1       2.833  26.819  47.659  1.00  0.00     0.102 A 
ENDBRANCH   6   7
ENDBRANCH   2   5
BRANCH   1  18
HETATM   18  C   UNL     1       6.476  24.872  53.304  1.00  0.00     0.033 A 
HETATM   19  C   UNL     1       6.450  24.812  54.702  1.00  0.00     0.020 A 
HETATM   20  C   UNL     1       7.323  23.950  55.376  1.00  0.00     0.038 A 
HETATM   21  C   UNL     1       8.232  23.152  54.674  1.00  0.00     0.068 A 
HETATM   22  C   UNL     1       8.278  23.236  53.284  1.00  0.00     0.038 A 
HETATM   23  C   UNL     1       7.405  24.093  52.604  1.00  0.00     0.020 A 
BRANCH  21  24
HETATM   24  O   UNL     1       9.013  22.350  55.458  1.00  0.00    -0.352 OA
BRANCH  24  25
HETATM   25  C   UNL     1       8.361  21.646  56.515  1.00  0.00     0.171 C 
HETATM   26  C   UNL     1       7.858  20.325  55.962  1.00  0.00     0.034 C 
ENDBRANCH  24  25
ENDBRANCH  21  24
ENDBRANCH   1  18
TORSDOF 5
ENDMDL
MODEL 7
REMARK VINA RESULT:      -7.8      3.722      9.477
REMARK  5 active torsions:
REMARK  status: ('A' for Active; 'I' for Inactive)
REMARK    1  A    between atoms: C_2  and  O_3 
REMARK    2  A    between atoms: O_3  and  C_4 
REMARK    3  A    between atoms: C_7  and  C_8 
REMARK       I    between atoms: C_8  and  N_9 
REMARK    4  A    between atoms: N_9  and  N_10 
REMARK    5  A    between atoms: C_11  and  C_12 
ROOT
HETATM    1  C   UNL     1       6.531  26.271  54.762  1.00  0.00     0.271 C 
HETATM    2  N   UNL     1       7.355  27.371  54.950  1.00  0.00    -0.243 N 
HETATM    3  O   UNL     1       5.311  26.272  54.902  1.00  0.00    -0.266 OA
HETATM    4  H   UNL     1       8.363  27.281  54.927  1.00  0.00     0.192 HD
ENDROOT
BRANCH   2   5
HETATM    5  N   UNL     1       6.808  28.546  55.384  1.00  0.00    -0.183 NA
HETATM    6  C   UNL     1       7.054  28.874  56.610  1.00  0.00     0.152 C 
BRANCH   6   7
HETATM    7  C   UNL     1       6.472  30.085  57.150  1.00  0.00     0.011 A 
HETATM    8  C   UNL     1       6.837  30.775  58.352  1.00  0.00     0.005 A 
HETATM    9  C   UNL     1       5.991  31.880  58.471  1.00  0.00     0.043 A 
HETATM   10  C   UNL     1       7.812  30.566  59.352  1.00  0.00     0.033 A 
HETATM   11  C   UNL     1       6.063  32.785  59.538  1.00  0.00     0.031 A 
HETATM   12  N   UNL     1       5.148  31.867  57.383  1.00  0.00    -0.364 N 
HETATM   13  C   UNL     1       7.037  32.558  60.515  1.00  0.00     0.021 A 
HETATM   14  C   UNL     1       7.895  31.467  60.419  1.00  0.00     0.012 A 
HETATM   15 BR   UNL     1       9.208  31.195  61.756  1.00  0.00    -0.051 Br
HETATM   16  H   UNL     1       4.426  32.551  57.203  1.00  0.00     0.165 HD
HETATM   17  C   UNL     1       5.432  30.797  56.583  1.00  0.00     0.102 A 
ENDBRANCH   6   7
ENDBRANCH   2   5
BRANCH   1  18
HETATM   18  C   UNL     1       7.214  24.993  54.404  1.00  0.00     0.033 A 
HETATM   19  C   UNL     1       7.020  24.343  53.180  1.00  0.00     0.020 A 
HETATM   20  C   UNL     1       7.713  23.159  52.904  1.00  0.00     0.038 A 
HETATM   21  C   UNL     1       8.593  22.606  53.839  1.00  0.00     0.068 A 
HETATM   22  C   UNL     1       8.763  23.236  55.069  1.00  0.00     0.038 A 
HETATM   23  C   UNL     1       8.076  24.423  55.350  1.00  0.00     0.020 A 
BRANCH  21  24
HETATM   24  O   UNL     1       9.210  21.456  53.432  1.00  0.00    -0.352 OA
BRANCH  24  25
HETATM   25  C   UNL     1       8.488  20.237  53.606  1.00  0.00     0.171 C 
HETATM   26  C   UNL     1       8.498  19.890  55.084  1.00  0.00     0.034 C 
ENDBRANCH  24  25
ENDBRANCH  21  24
ENDBRANCH   1  18
TORSDOF 5
ENDMDL
MODEL 8
REMARK VINA RESULT:      -7.8      3.139      4.823
REMARK  5 active torsions:
REMARK  status: ('A' for Active; 'I' for Inactive)
REMARK    1  A    between atoms: C_2  and  O_3 
REMARK    2  A    between atoms: O_3  and  C_4 
REMARK    3  A    between atoms: C_7  and  C_8 
REMARK       I    between atoms: C_8  and  N_9 
REMARK    4  A    between atoms: N_9  and  N_10 
REMARK    5  A    between atoms: C_11  and  C_12 
ROOT
HETATM    1  C   UNL     1       7.348  32.218  60.133  1.00  0.00     0.271 C 
HETATM    2  N   UNL     1       6.314  31.508  59.541  1.00  0.00    -0.243 N 
HETATM    3  O   UNL     1       8.427  32.467  59.604  1.00  0.00    -0.266 OA
HETATM    4  H   UNL     1       5.492  31.241  60.067  1.00  0.00     0.192 HD
ENDROOT
BRANCH   2   5
HETATM    5  N   UNL     1       6.501  30.975  58.296  1.00  0.00    -0.183 NA
HETATM    6  C   UNL     1       5.482  30.381  57.768  1.00  0.00     0.152 C 
BRANCH   6   7
HETATM    7  C   UNL     1       5.621  29.758  56.468  1.00  0.00     0.011 A 
HETATM    8  C   UNL     1       6.286  28.529  56.149  1.00  0.00     0.005 A 
HETATM    9  C   UNL     1       6.175  28.340  54.769  1.00  0.00     0.043 A 
HETATM   10  C   UNL     1       6.971  27.554  56.906  1.00  0.00     0.033 A 
HETATM   11  C   UNL     1       6.715  27.233  54.105  1.00  0.00     0.031 A 
HETATM   12  N   UNL     1       5.466  29.409  54.268  1.00  0.00    -0.364 N 
HETATM   13  C   UNL     1       7.389  26.280  54.875  1.00  0.00     0.021 A 
HETATM   14  C   UNL     1       7.511  26.441  56.252  1.00  0.00     0.012 A 
HETATM   15 BR   UNL     1       8.422  25.127  57.265  1.00  0.00    -0.051 Br
HETATM   16  H   UNL     1       5.231  29.540  53.294  1.00  0.00     0.165 HD
HETATM   17  C   UNL     1       5.126  30.262  55.279  1.00  0.00     0.102 A 
ENDBRANCH   6   7
ENDBRANCH   2   5
BRANCH   1  18
HETATM   18  C   UNL     1       7.114  32.666  61.538  1.00  0.00     0.033 A 
HETATM   19  C   UNL     1       5.967  33.362  61.934  1.00  0.00     0.020 A 
HETATM   20  C   UNL     1       5.805  33.731  63.275  1.00  0.00     0.038 A 
HETATM   21  C   UNL     1       6.781  33.423  64.228  1.00  0.00     0.068 A 
HETATM   22  C   UNL     1       7.938  32.757  63.828  1.00  0.00     0.038 A 
HETATM   23  C   UNL     1       8.103  32.382  62.489  1.00  0.00     0.020 A 
BRANCH  21  24
HETATM   24  O   UNL     1       6.488  33.831  65.499  1.00  0.00    -0.352 OA
BRANCH  24  25
HETATM   25  C   UNL     1       5.106  33.910  65.851  1.00  0.00     0.171 C 
HETATM   26  C   UNL     1       5.014  34.259  67.325  1.00  0.00     0.034 C 
ENDBRANCH  24  25
ENDBRANCH  21  24
ENDBRANCH   1  18
TORSDOF 5
ENDMDL
MODEL 9
REMARK VINA RESULT:      -7.8      2.221      2.846
REMARK  5 active torsions:
REMARK  status: ('A' for Active; 'I' for Inactive)
REMARK    1  A    between atoms: C_2  and  O_3 
REMARK    2  A    between atoms: O_3  and  C_4 
REMARK    3  A    between atoms: C_7  and  C_8 
REMARK       I    between atoms: C_8  and  N_9 
REMARK    4  A    between atoms: N_9  and  N_10 
REMARK    5  A    between atoms: C_11  and  C_12 
ROOT
HETATM    1  C   UNL     1       8.090  28.041  56.878  1.00  0.00     0.271 C 
HETATM    2  N   UNL     1       8.208  26.840  57.564  1.00  0.00    -0.243 N 
HETATM    3  O   UNL     1       7.862  28.148  55.677  1.00  0.00    -0.266 OA
HETATM    4  H   UNL     1       8.505  26.815  58.531  1.00  0.00     0.192 HD
ENDROOT
BRANCH   2   5
HETATM    5  N   UNL     1       8.134  25.666  56.867  1.00  0.00    -0.183 NA
HETATM    6  C   UNL     1       8.327  24.584  57.545  1.00  0.00     0.152 C 
BRANCH   6   7
HETATM    7  C   UNL     1       8.304  23.306  56.863  1.00  0.00     0.011 A 
HETATM    8  C   UNL     1       8.123  23.062  55.463  1.00  0.00     0.005 A 
HETATM    9  C   UNL     1       8.157  21.678  55.274  1.00  0.00     0.043 A 
HETATM   10  C   UNL     1       7.937  23.888  54.334  1.00  0.00     0.033 A 
HETATM   11  C   UNL     1       8.011  21.075  54.019  1.00  0.00     0.031 A 
HETATM   12  N   UNL     1       8.355  21.103  56.510  1.00  0.00    -0.364 N 
HETATM   13  C   UNL     1       7.828  21.913  52.915  1.00  0.00     0.021 A 
HETATM   14  C   UNL     1       7.794  23.296  53.074  1.00  0.00     0.012 A 
HETATM   15 BR   UNL     1       7.554  24.401  51.556  1.00  0.00    -0.051 Br
HETATM   16  H   UNL     1       8.424  20.109  56.680  1.00  0.00     0.165 HD
HETATM   17  C   UNL     1       8.449  22.072  57.468  1.00  0.00     0.102 A 
ENDBRANCH   6   7
ENDBRANCH   2   5
BRANCH   1  18
HETATM   18  C   UNL     1       8.301  29.279  57.685  1.00  0.00     0.033 A 
HETATM   19  C   UNL     1       7.252  29.992  58.274  1.00  0.00     0.020 A 
HETATM   20  C   UNL     1       7.528  31.134  59.036  1.00  0.00     0.038 A 
HETATM   21  C   UNL     1       8.841  31.582  59.211  1.00  0.00     0.068 A 
HETATM   22  C   UNL     1       9.883  30.889  58.598  1.00  0.00     0.038 A 
HETATM   23  C   UNL     1       9.614  29.745  57.838  1.00  0.00     0.020 A 
BRANCH  21  24
HETATM   24  O   UNL     1       8.965  32.699  59.988  1.00  0.00    -0.352 OA
BRANCH  24  25
HETATM   25  C   UNL     1       9.414  32.508  61.329  1.00  0.00     0.171 C 
HETATM   26  C   UNL     1       8.194  32.440  62.230  1.00  0.00     0.034 C 
ENDBRANCH  24  25
ENDBRANCH  21  24
ENDBRANCH   1  18
TORSDOF 5
ENDMDL
MODEL 10
REMARK VINA RESULT:      -7.6      2.994      4.278
REMARK  5 active torsions:
REMARK  status: ('A' for Active; 'I' for Inactive)
REMARK    1  A    between atoms: C_2  and  O_3 
REMARK    2  A    between atoms: O_3  and  C_4 
REMARK    3  A    between atoms: C_7  and  C_8 
REMARK       I    between atoms: C_8  and  N_9 
REMARK    4  A    between atoms: N_9  and  N_10 
REMARK    5  A    between atoms: C_11  and  C_12 
ROOT
HETATM    1  C   UNL     1       8.399  30.564  60.090  1.00  0.00     0.271 C 
HETATM    2  N   UNL     1       7.513  30.082  59.137  1.00  0.00    -0.243 N 
HETATM    3  O   UNL     1       9.558  30.184  60.232  1.00  0.00    -0.266 OA
HETATM    4  H   UNL     1       6.540  30.356  59.140  1.00  0.00     0.192 HD
ENDROOT
BRANCH   2   5
HETATM    5  N   UNL     1       7.908  29.061  58.318  1.00  0.00    -0.183 NA
HETATM    6  C   UNL     1       6.969  28.306  57.851  1.00  0.00     0.152 C 
BRANCH   6   7
HETATM    7  C   UNL     1       7.318  27.179  57.010  1.00  0.00     0.011 A 
HETATM    8  C   UNL     1       7.097  27.033  55.602  1.00  0.00     0.005 A 
HETATM    9  C   UNL     1       7.584  25.777  55.232  1.00  0.00     0.043 A 
HETATM   10  C   UNL     1       6.531  27.854  54.602  1.00  0.00     0.033 A 
HETATM   11  C   UNL     1       7.532  25.295  53.918  1.00  0.00     0.031 A 
HETATM   12  N   UNL     1       8.085  25.184  56.369  1.00  0.00    -0.364 N 
HETATM   13  C   UNL     1       6.968  26.125  52.945  1.00  0.00     0.021 A 
HETATM   14  C   UNL     1       6.479  27.383  53.285  1.00  0.00     0.012 A 
HETATM   15 BR   UNL     1       5.730  28.485  51.940  1.00  0.00    -0.051 Br
HETATM   16  H   UNL     1       8.505  24.265  56.404  1.00  0.00     0.165 HD
HETATM   17  C   UNL     1       7.934  26.019  57.439  1.00  0.00     0.102 A 
ENDBRANCH   6   7
ENDBRANCH   2   5
BRANCH   1  18
HETATM   18  C   UNL     1       7.859  31.594  61.025  1.00  0.00     0.033 A 
HETATM   19  C   UNL     1       6.772  32.415  60.708  1.00  0.00     0.020 A 
HETATM   20  C   UNL     1       6.305  33.345  61.644  1.00  0.00     0.038 A 
HETATM   21  C   UNL     1       6.918  33.476  62.895  1.00  0.00     0.068 A 
HETATM   22  C   UNL     1       8.020  32.680  63.198  1.00  0.00     0.038 A 
HETATM   23  C   UNL     1       8.489  31.746  62.267  1.00  0.00     0.020 A 
BRANCH  21  24
HETATM   24  O   UNL     1       6.352  34.412  63.713  1.00  0.00    -0.352 OA
BRANCH  24  25
HETATM   25  C   UNL     1       5.328  35.232  63.148  1.00  0.00     0.171 C 
HETATM   26  C   UNL     1       5.744  36.683  63.309  1.00  0.00     0.034 C 
ENDBRANCH  24  25
ENDBRANCH  21  24
ENDBRANCH   1  18
TORSDOF 5
ENDMDL
