MODEL 1
REMARK VINA RESULT:      -8.9      0.000      0.000
REMARK  8 active torsions:
REMARK  status: ('A' for Active; 'I' for Inactive)
REMARK    1  A    between atoms: C_3  and  N_4 
REMARK       I    between atoms: N_4  and  C_5 
REMARK       I    between atoms: C_5  and  N_6 
REMARK       I    between atoms: N_6  and  C_7 
REMARK    2  A    between atoms: C_7  and  C_8 
REMARK    3  A    between atoms: C_8  and  N_9 
REMARK    4  A    between atoms: N_9  and  C_11 
REMARK    5  A    between atoms: N_9  and  C_17 
REMARK    6  A    between atoms: C_11  and  C_12 
REMARK    7  A    between atoms: C_17  and  C_18 
REMARK    8  A    between atoms: C_19  and  O_20 
ROOT
HETATM    1  N   UNL     1       5.982  28.043  55.984  1.00  0.00    -0.053 N 
HETATM    2  H   UNL     1       6.839  27.621  55.598  1.00  0.00     0.281 HD
ENDROOT
BRANCH   1   3
HETATM    3  C   UNL     1       5.433  27.025  56.965  1.00  0.00     0.338 C 
BRANCH   3   4
HETATM    4  C   UNL     1       5.985  25.610  56.762  1.00  0.00     0.251 C 
HETATM    5  N   UNL     1       7.149  25.345  57.459  1.00  0.00    -0.278 N 
HETATM    6  C   UNL     1       8.128  24.435  57.150  1.00  0.00     0.323 C 
HETATM    7  H   UNL     1       7.525  26.021  58.112  1.00  0.00     0.173 HD
HETATM    8  N   UNL     1       7.849  23.570  56.144  1.00  0.00    -0.338 N 
HETATM    9  O   UNL     1       9.188  24.529  57.752  1.00  0.00    -0.247 OA
HETATM   10  H   UNL     1       6.870  23.503  55.880  1.00  0.00     0.164 HD
HETATM   11  O   UNL     1       5.358  24.760  56.132  1.00  0.00    -0.271 OA
BRANCH   8  12
HETATM   12  C   UNL     1       8.722  22.527  55.593  1.00  0.00     0.089 C 
HETATM   13  C   UNL     1       8.295  21.079  55.950  1.00  0.00     0.004 C 
HETATM   14  C   UNL     1       9.542  20.217  56.214  1.00  0.00     0.012 C 
HETATM   15  C   UNL     1       7.417  20.393  54.889  1.00  0.00     0.006 C 
HETATM   16  C   UNL     1       7.905  20.602  53.461  1.00  0.00     0.001 C 
HETATM   17  C   UNL     1       8.088  22.078  53.141  1.00  0.00     0.002 C 
HETATM   18  C   UNL     1       9.052  22.746  54.110  1.00  0.00     0.026 C 
ENDBRANCH   8  12
ENDBRANCH   3   4
ENDBRANCH   1   3
BRANCH   1  19
HETATM   19  C   UNL     1       5.119  28.220  54.755  1.00  0.00     0.300 C 
BRANCH  19  20
HETATM   20  C   UNL     1       5.432  27.193  53.724  1.00  0.00     0.078 A 
HETATM   21  O   UNL     1       6.759  26.978  53.468  1.00  0.00    -0.325 OA
HETATM   22  C   UNL     1       6.823  26.038  52.489  1.00  0.00     0.142 A 
HETATM   23  C   UNL     1       5.559  25.639  52.123  1.00  0.00     0.027 A 
HETATM   24  C   UNL     1       4.657  26.383  52.923  1.00  0.00     0.036 A 
ENDBRANCH  19  20
ENDBRANCH   1  19
BRANCH   1  25
HETATM   25  C   UNL     1       6.469  29.341  56.574  1.00  0.00     0.277 C 
BRANCH  25  26
HETATM   26  C   UNL     1       7.938  29.645  56.738  1.00  0.00     0.001 A 
HETATM   27  C   UNL     1       8.956  29.372  55.816  1.00  0.00     0.073 A 
HETATM   28  C   UNL     1      10.301  29.612  56.124  1.00  0.00     0.037 A 
HETATM   29  C   UNL     1      10.658  30.110  57.373  1.00  0.00     0.003 A 
HETATM   30  C   UNL     1       9.672  30.373  58.315  1.00  0.00     0.001 A 
HETATM   31  C   UNL     1       8.331  30.144  58.001  1.00  0.00     0.011 A 
BRANCH  27  32
HETATM   32  O   UNL     1       8.661  28.856  54.586  1.00  0.00    -0.360 OA
HETATM   33  H   UNL     1       7.961  29.411  54.189  1.00  0.00     0.217 HD
ENDBRANCH  27  32
ENDBRANCH  25  26
ENDBRANCH   1  25
TORSDOF 8
ENDMDL
MODEL 2
REMARK VINA RESULT:      -8.7      2.818      8.057
REMARK  8 active torsions:
REMARK  status: ('A' for Active; 'I' for Inactive)
REMARK    1  A    between atoms: C_3  and  N_4 
REMARK       I    between atoms: N_4  and  C_5 
REMARK       I    between atoms: C_5  and  N_6 
REMARK       I    between atoms: N_6  and  C_7 
REMARK    2  A    between atoms: C_7  and  C_8 
REMARK    3  A    between atoms: C_8  and  N_9 
REMARK    4  A    between atoms: N_9  and  C_11 
REMARK    5  A    between atoms: N_9  and  C_17 
REMARK    6  A    between atoms: C_11  and  C_12 
REMARK    7  A    between atoms: C_17  and  C_18 
REMARK    8  A    between atoms: C_19  and  O_20 
ROOT
HETATM    1  N   UNL     1       7.166  26.421  56.166  1.00  0.00    -0.053 N 
HETATM    2  H   UNL     1       7.437  26.058  57.092  1.00  0.00     0.281 HD
ENDROOT
BRANCH   1   3
HETATM    3  C   UNL     1       7.735  27.825  56.098  1.00  0.00     0.338 C 
BRANCH   3   4
HETATM    4  C   UNL     1       7.503  28.650  57.367  1.00  0.00     0.251 C 
HETATM    5  N   UNL     1       6.568  29.659  57.230  1.00  0.00    -0.278 N 
HETATM    6  C   UNL     1       6.479  30.829  57.943  1.00  0.00     0.323 C 
HETATM    7  H   UNL     1       6.033  29.755  56.376  1.00  0.00     0.173 HD
HETATM    8  N   UNL     1       7.289  30.938  59.024  1.00  0.00    -0.338 N 
HETATM    9  O   UNL     1       5.736  31.695  57.503  1.00  0.00    -0.247 OA
HETATM   10  H   UNL     1       7.700  30.069  59.354  1.00  0.00     0.164 HD
HETATM   11  O   UNL     1       8.020  28.340  58.438  1.00  0.00    -0.271 OA
BRANCH   8  12
HETATM   12  C   UNL     1       7.420  32.082  59.933  1.00  0.00     0.089 C 
HETATM   13  C   UNL     1       6.472  32.037  61.161  1.00  0.00     0.004 C 
HETATM   14  C   UNL     1       5.960  33.452  61.478  1.00  0.00     0.012 C 
HETATM   15  C   UNL     1       7.099  31.425  62.427  1.00  0.00     0.006 C 
HETATM   16  C   UNL     1       8.515  31.912  62.705  1.00  0.00     0.001 C 
HETATM   17  C   UNL     1       9.424  31.713  61.502  1.00  0.00     0.002 C 
HETATM   18  C   UNL     1       8.880  32.417  60.267  1.00  0.00     0.026 C 
ENDBRANCH   8  12
ENDBRANCH   3   4
ENDBRANCH   1   3
BRANCH   1  19
HETATM   19  C   UNL     1       5.656  26.387  56.229  1.00  0.00     0.300 C 
BRANCH  19  20
HETATM   20  C   UNL     1       5.052  27.143  55.098  1.00  0.00     0.078 A 
HETATM   21  O   UNL     1       4.473  28.342  55.412  1.00  0.00    -0.325 OA
HETATM   22  C   UNL     1       3.964  28.847  54.258  1.00  0.00     0.142 A 
HETATM   23  C   UNL     1       4.218  27.996  53.207  1.00  0.00     0.027 A 
HETATM   24  C   UNL     1       4.925  26.894  53.748  1.00  0.00     0.036 A 
ENDBRANCH  19  20
ENDBRANCH   1  19
BRANCH   1  25
HETATM   25  C   UNL     1       7.755  25.415  55.211  1.00  0.00     0.277 C 
BRANCH  25  26
HETATM   26  C   UNL     1       7.822  23.944  55.539  1.00  0.00     0.001 A 
HETATM   27  C   UNL     1       8.201  23.377  56.762  1.00  0.00     0.073 A 
HETATM   28  C   UNL     1       8.320  21.990  56.916  1.00  0.00     0.037 A 
HETATM   29  C   UNL     1       8.082  21.140  55.839  1.00  0.00     0.003 A 
HETATM   30  C   UNL     1       7.722  21.674  54.610  1.00  0.00     0.001 A 
HETATM   31  C   UNL     1       7.593  23.057  54.463  1.00  0.00     0.011 A 
BRANCH  27  32
HETATM   32  O   UNL     1       8.474  24.168  57.842  1.00  0.00    -0.360 OA
HETATM   33  H   UNL     1       7.748  24.053  58.487  1.00  0.00     0.217 HD
ENDBRANCH  27  32
ENDBRANCH  25  26
ENDBRANCH   1  25
TORSDOF 8
ENDMDL
MODEL 3
REMARK VINA RESULT:      -8.6      1.206      4.399
REMARK  8 active torsions:
REMARK  status: ('A' for Active; 'I' for Inactive)
REMARK    1  A    between atoms: C_3  and  N_4 
REMARK       I    between atoms: N_4  and  C_5 
REMARK       I    between atoms: C_5  and  N_6 
REMARK       I    between atoms: N_6  and  C_7 
REMARK    2  A    between atoms: C_7  and  C_8 
REMARK    3  A    between atoms: C_8  and  N_9 
REMARK    4  A    between atoms: N_9  and  C_11 
REMARK    5  A    between atoms: N_9  and  C_17 
REMARK    6  A    between atoms: C_11  and  C_12 
REMARK    7  A    between atoms: C_17  and  C_18 
REMARK    8  A    between atoms: C_19  and  O_20 
ROOT
HETATM    1  N   UNL     1       6.001  28.151  55.983  1.00  0.00    -0.053 N 
HETATM    2  H   UNL     1       5.141  28.193  55.418  1.00  0.00     0.281 HD
ENDROOT
BRANCH   1   3
HETATM    3  C   UNL     1       5.674  27.243  57.154  1.00  0.00     0.338 C 
BRANCH   3   4
HETATM    4  C   UNL     1       6.169  25.804  56.978  1.00  0.00     0.251 C 
HETATM    5  N   UNL     1       7.368  25.530  57.609  1.00  0.00    -0.278 N 
HETATM    6  C   UNL     1       8.297  24.576  57.277  1.00  0.00     0.323 C 
HETATM    7  H   UNL     1       7.806  26.219  58.207  1.00  0.00     0.173 HD
HETATM    8  N   UNL     1       7.926  23.679  56.330  1.00  0.00    -0.338 N 
HETATM    9  O   UNL     1       9.396  24.660  57.805  1.00  0.00    -0.247 OA
HETATM   10  H   UNL     1       6.930  23.634  56.134  1.00  0.00     0.164 HD
HETATM   11  O   UNL     1       5.477  24.950  56.428  1.00  0.00    -0.271 OA
BRANCH   8  12
HETATM   12  C   UNL     1       8.728  22.586  55.770  1.00  0.00     0.089 C 
HETATM   13  C   UNL     1       8.224  21.166  56.139  1.00  0.00     0.004 C 
HETATM   14  C   UNL     1       9.423  20.234  56.387  1.00  0.00     0.012 C 
HETATM   15  C   UNL     1       7.291  20.529  55.094  1.00  0.00     0.006 C 
HETATM   16  C   UNL     1       7.769  20.706  53.658  1.00  0.00     0.001 C 
HETATM   17  C   UNL     1       8.031  22.168  53.329  1.00  0.00     0.002 C 
HETATM   18  C   UNL     1       9.048  22.781  54.281  1.00  0.00     0.026 C 
ENDBRANCH   8  12
ENDBRANCH   3   4
ENDBRANCH   1   3
BRANCH   1  19
HETATM   19  C   UNL     1       6.203  29.596  56.382  1.00  0.00     0.300 C 
BRANCH  19  20
HETATM   20  C   UNL     1       7.420  29.758  57.223  1.00  0.00     0.078 A 
HETATM   21  O   UNL     1       7.210  30.086  58.534  1.00  0.00    -0.325 OA
HETATM   22  C   UNL     1       8.435  30.214  59.108  1.00  0.00     0.142 A 
HETATM   23  C   UNL     1       9.426  29.961  58.189  1.00  0.00     0.027 A 
HETATM   24  C   UNL     1       8.771  29.663  56.968  1.00  0.00     0.036 A 
ENDBRANCH  19  20
ENDBRANCH   1  19
BRANCH   1  25
HETATM   25  C   UNL     1       7.033  27.642  55.011  1.00  0.00     0.277 C 
BRANCH  25  26
HETATM   26  C   UNL     1       6.655  26.845  53.786  1.00  0.00     0.001 A 
HETATM   27  C   UNL     1       5.359  26.601  53.316  1.00  0.00     0.073 A 
HETATM   28  C   UNL     1       5.128  25.762  52.219  1.00  0.00     0.037 A 
HETATM   29  C   UNL     1       6.192  25.129  51.583  1.00  0.00     0.003 A 
HETATM   30  C   UNL     1       7.487  25.337  52.038  1.00  0.00     0.001 A 
HETATM   31  C   UNL     1       7.714  26.184  53.125  1.00  0.00     0.011 A 
BRANCH  27  32
HETATM   32  O   UNL     1       4.278  27.175  53.923  1.00  0.00    -0.360 OA
HETATM   33  H   UNL     1       3.513  27.083  53.321  1.00  0.00     0.217 HD
ENDBRANCH  27  32
ENDBRANCH  25  26
ENDBRANCH   1  25
TORSDOF 8
ENDMDL
MODEL 4
REMARK VINA RESULT:      -8.5      2.798      6.978
REMARK  8 active torsions:
REMARK  status: ('A' for Active; 'I' for Inactive)
REMARK    1  A    between atoms: C_3  and  N_4 
REMARK       I    between atoms: N_4  and  C_5 
REMARK       I    between atoms: C_5  and  N_6 
REMARK       I    between atoms: N_6  and  C_7 
REMARK    2  A    between atoms: C_7  and  C_8 
REMARK    3  A    between atoms: C_8  and  N_9 
REMARK    4  A    between atoms: N_9  and  C_11 
REMARK    5  A    between atoms: N_9  and  C_17 
REMARK    6  A    between atoms: C_11  and  C_12 
REMARK    7  A    between atoms: C_17  and  C_18 
REMARK    8  A    between atoms: C_19  and  O_20 
ROOT
HETATM    1  N   UNL     1       6.525  27.269  56.040  1.00  0.00    -0.053 N 
HETATM    2  H   UNL     1       7.000  27.608  55.191  1.00  0.00     0.281 HD
ENDROOT
BRANCH   1   3
HETATM    3  C   UNL     1       5.043  27.450  55.776  1.00  0.00     0.338 C 
BRANCH   3   4
HETATM    4  C   UNL     1       4.704  27.724  54.307  1.00  0.00     0.251 C 
HETATM    5  N   UNL     1       4.556  26.589  53.533  1.00  0.00    -0.278 N 
HETATM    6  C   UNL     1       4.741  26.462  52.179  1.00  0.00     0.323 C 
HETATM    7  H   UNL     1       4.582  25.669  53.954  1.00  0.00     0.173 HD
HETATM    8  N   UNL     1       4.921  27.612  51.485  1.00  0.00    -0.338 N 
HETATM    9  O   UNL     1       4.802  25.327  51.728  1.00  0.00    -0.247 OA
HETATM   10  H   UNL     1       4.659  28.465  51.972  1.00  0.00     0.164 HD
HETATM   11  O   UNL     1       4.463  28.861  53.905  1.00  0.00    -0.271 OA
BRANCH   8  12
HETATM   12  C   UNL     1       5.171  27.762  50.047  1.00  0.00     0.089 C 
HETATM   13  C   UNL     1       4.039  27.214  49.139  1.00  0.00     0.004 C 
HETATM   14  C   UNL     1       4.644  26.543  47.895  1.00  0.00     0.012 C 
HETATM   15  C   UNL     1       3.009  28.270  48.698  1.00  0.00     0.006 C 
HETATM   16  C   UNL     1       3.634  29.586  48.251  1.00  0.00     0.001 C 
HETATM   17  C   UNL     1       4.570  30.151  49.309  1.00  0.00     0.002 C 
HETATM   18  C   UNL     1       5.670  29.163  49.669  1.00  0.00     0.026 C 
ENDBRANCH   8  12
ENDBRANCH   3   4
ENDBRANCH   1   3
BRANCH   1  19
HETATM   19  C   UNL     1       7.061  28.196  57.109  1.00  0.00     0.300 C 
BRANCH  19  20
HETATM   20  C   UNL     1       8.367  28.786  56.705  1.00  0.00     0.078 A 
HETATM   21  O   UNL     1       8.583  28.914  55.360  1.00  0.00    -0.325 OA
HETATM   22  C   UNL     1       9.827  29.438  55.210  1.00  0.00     0.142 A 
HETATM   23  C   UNL     1      10.406  29.661  56.438  1.00  0.00     0.027 A 
HETATM   24  C   UNL     1       9.462  29.242  57.407  1.00  0.00     0.036 A 
ENDBRANCH  19  20
ENDBRANCH   1  19
BRANCH   1  25
HETATM   25  C   UNL     1       7.012  25.850  56.170  1.00  0.00     0.277 C 
BRANCH  25  26
HETATM   26  C   UNL     1       7.415  25.028  54.970  1.00  0.00     0.001 A 
HETATM   27  C   UNL     1       7.777  25.515  53.708  1.00  0.00     0.073 A 
HETATM   28  C   UNL     1       8.038  24.648  52.640  1.00  0.00     0.037 A 
HETATM   29  C   UNL     1       7.918  23.272  52.808  1.00  0.00     0.003 A 
HETATM   30  C   UNL     1       7.544  22.760  54.043  1.00  0.00     0.001 A 
HETATM   31  C   UNL     1       7.296  23.627  55.109  1.00  0.00     0.011 A 
BRANCH  27  32
HETATM   32  O   UNL     1       7.880  26.859  53.483  1.00  0.00    -0.360 OA
HETATM   33  H   UNL     1       7.022  27.170  53.131  1.00  0.00     0.217 HD
ENDBRANCH  27  32
ENDBRANCH  25  26
ENDBRANCH   1  25
TORSDOF 8
ENDMDL
MODEL 5
REMARK VINA RESULT:      -8.4      3.307      7.662
REMARK  8 active torsions:
REMARK  status: ('A' for Active; 'I' for Inactive)
REMARK    1  A    between atoms: C_3  and  N_4 
REMARK       I    between atoms: N_4  and  C_5 
REMARK       I    between atoms: C_5  and  N_6 
REMARK       I    between atoms: N_6  and  C_7 
REMARK    2  A    between atoms: C_7  and  C_8 
REMARK    3  A    between atoms: C_8  and  N_9 
REMARK    4  A    between atoms: N_9  and  C_11 
REMARK    5  A    between atoms: N_9  and  C_17 
REMARK    6  A    between atoms: C_11  and  C_12 
REMARK    7  A    between atoms: C_17  and  C_18 
REMARK    8  A    between atoms: C_19  and  O_20 
ROOT
HETATM    1  N   UNL     1       6.755  25.372  54.758  1.00  0.00    -0.053 N 
HETATM    2  H   UNL     1       7.318  25.267  53.901  1.00  0.00     0.281 HD
ENDROOT
BRANCH   1   3
HETATM    3  C   UNL     1       5.319  25.505  54.287  1.00  0.00     0.338 C 
BRANCH   3   4
HETATM    4  C   UNL     1       5.162  25.483  52.763  1.00  0.00     0.251 C 
HETATM    5  N   UNL     1       5.567  26.644  52.131  1.00  0.00    -0.278 N 
HETATM    6  C   UNL     1       5.135  27.143  50.927  1.00  0.00     0.323 C 
HETATM    7  H   UNL     1       6.013  27.388  52.652  1.00  0.00     0.173 HD
HETATM    8  N   UNL     1       4.351  26.325  50.183  1.00  0.00    -0.338 N 
HETATM    9  O   UNL     1       5.432  28.299  50.664  1.00  0.00    -0.247 OA
HETATM   10  H   UNL     1       4.355  25.346  50.454  1.00  0.00     0.164 HD
HETATM   11  O   UNL     1       4.824  24.463  52.166  1.00  0.00    -0.271 OA
BRANCH   8  12
HETATM   12  C   UNL     1       3.731  26.616  48.886  1.00  0.00     0.089 C 
HETATM   13  C   UNL     1       2.723  27.795  48.906  1.00  0.00     0.004 C 
HETATM   14  C   UNL     1       1.531  27.481  47.987  1.00  0.00     0.012 C 
HETATM   15  C   UNL     1       3.326  29.156  48.512  1.00  0.00     0.006 C 
HETATM   16  C   UNL     1       4.239  29.090  47.294  1.00  0.00     0.001 C 
HETATM   17  C   UNL     1       5.330  28.044  47.465  1.00  0.00     0.002 C 
HETATM   18  C   UNL     1       4.746  26.665  47.735  1.00  0.00     0.026 C 
ENDBRANCH   8  12
ENDBRANCH   3   4
ENDBRANCH   1   3
BRANCH   1  19
HETATM   19  C   UNL     1       7.308  26.643  55.362  1.00  0.00     0.300 C 
BRANCH  19  20
HETATM   20  C   UNL     1       6.228  27.635  55.615  1.00  0.00     0.078 A 
HETATM   21  O   UNL     1       5.993  28.540  54.616  1.00  0.00    -0.325 OA
HETATM   22  C   UNL     1       5.003  29.361  55.055  1.00  0.00     0.142 A 
HETATM   23  C   UNL     1       4.593  28.989  56.314  1.00  0.00     0.027 A 
HETATM   24  C   UNL     1       5.382  27.870  56.677  1.00  0.00     0.036 A 
ENDBRANCH  19  20
ENDBRANCH   1  19
BRANCH   1  25
HETATM   25  C   UNL     1       7.086  24.133  55.547  1.00  0.00     0.277 C 
BRANCH  25  26
HETATM   26  C   UNL     1       7.585  22.871  54.885  1.00  0.00     0.001 A 
HETATM   27  C   UNL     1       7.890  22.704  53.529  1.00  0.00     0.073 A 
HETATM   28  C   UNL     1       8.252  21.454  53.012  1.00  0.00     0.037 A 
HETATM   29  C   UNL     1       8.292  20.336  53.840  1.00  0.00     0.003 A 
HETATM   30  C   UNL     1       7.977  20.467  55.186  1.00  0.00     0.001 A 
HETATM   31  C   UNL     1       7.628  21.718  55.700  1.00  0.00     0.011 A 
BRANCH  27  32
HETATM   32  O   UNL     1       7.837  23.763  52.667  1.00  0.00    -0.360 OA
HETATM   33  H   UNL     1       7.495  24.534  53.162  1.00  0.00     0.217 HD
ENDBRANCH  27  32
ENDBRANCH  25  26
ENDBRANCH   1  25
TORSDOF 8
ENDMDL
MODEL 6
REMARK VINA RESULT:      -8.0      1.759      4.205
REMARK  8 active torsions:
REMARK  status: ('A' for Active; 'I' for Inactive)
REMARK    1  A    between atoms: C_3  and  N_4 
REMARK       I    between atoms: N_4  and  C_5 
REMARK       I    between atoms: C_5  and  N_6 
REMARK       I    between atoms: N_6  and  C_7 
REMARK    2  A    between atoms: C_7  and  C_8 
REMARK    3  A    between atoms: C_8  and  N_9 
REMARK    4  A    between atoms: N_9  and  C_11 
REMARK    5  A    between atoms: N_9  and  C_17 
REMARK    6  A    between atoms: C_11  and  C_12 
REMARK    7  A    between atoms: C_17  and  C_18 
REMARK    8  A    between atoms: C_19  and  O_20 
ROOT
HETATM    1  N   UNL     1       6.249  28.285  56.012  1.00  0.00    -0.053 N 
HETATM    2  H   UNL     1       5.423  28.501  55.435  1.00  0.00     0.281 HD
ENDROOT
BRANCH   1   3
HETATM    3  C   UNL     1       5.773  27.279  57.043  1.00  0.00     0.338 C 
BRANCH   3   4
HETATM    4  C   UNL     1       6.205  25.839  56.749  1.00  0.00     0.251 C 
HETATM    5  N   UNL     1       7.256  25.388  57.526  1.00  0.00    -0.278 N 
HETATM    6  C   UNL     1       8.171  24.412  57.221  1.00  0.00     0.323 C 
HETATM    7  H   UNL     1       7.622  25.956  58.280  1.00  0.00     0.173 HD
HETATM    8  N   UNL     1       7.922  23.680  56.109  1.00  0.00    -0.338 N 
HETATM    9  O   UNL     1       9.163  24.337  57.932  1.00  0.00    -0.247 OA
HETATM   10  H   UNL     1       6.975  23.742  55.744  1.00  0.00     0.164 HD
HETATM   11  O   UNL     1       5.572  25.124  55.975  1.00  0.00    -0.271 OA
BRANCH   8  12
HETATM   12  C   UNL     1       8.745  22.606  55.540  1.00  0.00     0.089 C 
HETATM   13  C   UNL     1       8.317  21.177  55.964  1.00  0.00     0.004 C 
HETATM   14  C   UNL     1       9.563  20.301  56.182  1.00  0.00     0.012 C 
HETATM   15  C   UNL     1       7.369  20.475  54.976  1.00  0.00     0.006 C 
HETATM   16  C   UNL     1       7.778  20.635  53.517  1.00  0.00     0.001 C 
HETATM   17  C   UNL     1       7.964  22.097  53.142  1.00  0.00     0.002 C 
HETATM   18  C   UNL     1       8.993  22.777  54.035  1.00  0.00     0.026 C 
ENDBRANCH   8  12
ENDBRANCH   3   4
ENDBRANCH   1   3
BRANCH   1  19
HETATM   19  C   UNL     1       6.599  29.632  56.604  1.00  0.00     0.300 C 
BRANCH  19  20
HETATM   20  C   UNL     1       5.412  30.529  56.642  1.00  0.00     0.078 A 
HETATM   21  O   UNL     1       4.559  30.360  57.698  1.00  0.00    -0.325 OA
HETATM   22  C   UNL     1       3.542  31.244  57.528  1.00  0.00     0.142 A 
HETATM   23  C   UNL     1       3.737  31.987  56.387  1.00  0.00     0.027 A 
HETATM   24  C   UNL     1       4.948  31.528  55.813  1.00  0.00     0.036 A 
ENDBRANCH  19  20
ENDBRANCH   1  19
BRANCH   1  25
HETATM   25  C   UNL     1       7.254  27.786  55.007  1.00  0.00     0.277 C 
BRANCH  25  26
HETATM   26  C   UNL     1       6.846  27.311  53.634  1.00  0.00     0.001 A 
HETATM   27  C   UNL     1       5.919  27.921  52.780  1.00  0.00     0.073 A 
HETATM   28  C   UNL     1       5.548  27.331  51.566  1.00  0.00     0.037 A 
HETATM   29  C   UNL     1       6.082  26.101  51.191  1.00  0.00     0.003 A 
HETATM   30  C   UNL     1       6.990  25.463  52.025  1.00  0.00     0.001 A 
HETATM   31  C   UNL     1       7.366  26.061  53.230  1.00  0.00     0.011 A 
BRANCH  27  32
HETATM   32  O   UNL     1       5.344  29.114  53.116  1.00  0.00    -0.360 OA
HETATM   33  H   UNL     1       4.884  29.457  52.324  1.00  0.00     0.217 HD
ENDBRANCH  27  32
ENDBRANCH  25  26
ENDBRANCH   1  25
TORSDOF 8
ENDMDL
MODEL 7
REMARK VINA RESULT:      -8.0      3.590      7.311
REMARK  8 active torsions:
REMARK  status: ('A' for Active; 'I' for Inactive)
REMARK    1  A    between atoms: C_3  and  N_4 
REMARK       I    between atoms: N_4  and  C_5 
REMARK       I    between atoms: C_5  and  N_6 
REMARK       I    between atoms: N_6  and  C_7 
REMARK    2  A    between atoms: C_7  and  C_8 
REMARK    3  A    between atoms: C_8  and  N_9 
REMARK    4  A    between atoms: N_9  and  C_11 
REMARK    5  A    between atoms: N_9  and  C_17 
REMARK    6  A    between atoms: C_11  and  C_12 
REMARK    7  A    between atoms: C_17  and  C_18 
REMARK    8  A    between atoms: C_19  and  O_20 
ROOT
HETATM    1  N   UNL     1       6.543  24.600  53.767  1.00  0.00    -0.053 N 
HETATM    2  H   UNL     1       6.444  24.238  54.727  1.00  0.00     0.281 HD
ENDROOT
BRANCH   1   3
HETATM    3  C   UNL     1       5.129  24.863  53.285  1.00  0.00     0.338 C 
BRANCH   3   4
HETATM    4  C   UNL     1       5.028  25.983  52.245  1.00  0.00     0.251 C 
HETATM    5  N   UNL     1       4.457  27.150  52.715  1.00  0.00    -0.278 N 
HETATM    6  C   UNL     1       3.790  28.112  51.998  1.00  0.00     0.323 C 
HETATM    7  H   UNL     1       4.224  27.253  53.695  1.00  0.00     0.173 HD
HETATM    8  N   UNL     1       3.843  28.000  50.648  1.00  0.00    -0.338 N 
HETATM    9  O   UNL     1       3.150  28.937  52.633  1.00  0.00    -0.247 OA
HETATM   10  H   UNL     1       4.561  27.378  50.286  1.00  0.00     0.164 HD
HETATM   11  O   UNL     1       5.535  25.872  51.130  1.00  0.00    -0.271 OA
BRANCH   8  12
HETATM   12  C   UNL     1       3.198  28.863  49.653  1.00  0.00     0.089 C 
HETATM   13  C   UNL     1       3.960  28.968  48.305  1.00  0.00     0.004 C 
HETATM   14  C   UNL     1       3.867  30.404  47.762  1.00  0.00     0.012 C 
HETATM   15  C   UNL     1       3.481  27.983  47.224  1.00  0.00     0.006 C 
HETATM   16  C   UNL     1       1.965  27.880  47.118  1.00  0.00     0.001 C 
HETATM   17  C   UNL     1       1.328  27.560  48.461  1.00  0.00     0.002 C 
HETATM   18  C   UNL     1       1.693  28.597  49.514  1.00  0.00     0.026 C 
ENDBRANCH   8  12
ENDBRANCH   3   4
ENDBRANCH   1   3
BRANCH   1  19
HETATM   19  C   UNL     1       7.218  23.451  53.051  1.00  0.00     0.300 C 
BRANCH  19  20
HETATM   20  C   UNL     1       7.601  22.373  54.002  1.00  0.00     0.078 A 
HETATM   21  O   UNL     1       7.989  21.185  53.444  1.00  0.00    -0.325 OA
HETATM   22  C   UNL     1       8.264  20.340  54.472  1.00  0.00     0.142 A 
HETATM   23  C   UNL     1       8.071  20.971  55.679  1.00  0.00     0.027 A 
HETATM   24  C   UNL     1       7.645  22.288  55.377  1.00  0.00     0.036 A 
ENDBRANCH  19  20
ENDBRANCH   1  19
BRANCH   1  25
HETATM   25  C   UNL     1       7.425  25.808  53.939  1.00  0.00     0.277 C 
BRANCH  25  26
HETATM   26  C   UNL     1       7.330  26.703  55.151  1.00  0.00     0.001 A 
HETATM   27  C   UNL     1       7.069  28.079  55.155  1.00  0.00     0.073 A 
HETATM   28  C   UNL     1       7.104  28.823  56.340  1.00  0.00     0.037 A 
HETATM   29  C   UNL     1       7.425  28.209  57.547  1.00  0.00     0.003 A 
HETATM   30  C   UNL     1       7.706  26.849  57.572  1.00  0.00     0.001 A 
HETATM   31  C   UNL     1       7.659  26.108  56.389  1.00  0.00     0.011 A 
BRANCH  27  32
HETATM   32  O   UNL     1       6.778  28.736  53.993  1.00  0.00    -0.360 OA
HETATM   33  H   UNL     1       5.854  28.522  53.752  1.00  0.00     0.217 HD
ENDBRANCH  27  32
ENDBRANCH  25  26
ENDBRANCH   1  25
TORSDOF 8
ENDMDL
MODEL 8
REMARK VINA RESULT:      -7.9      3.374      7.577
REMARK  8 active torsions:
REMARK  status: ('A' for Active; 'I' for Inactive)
REMARK    1  A    between atoms: C_3  and  N_4 
REMARK       I    between atoms: N_4  and  C_5 
REMARK       I    between atoms: C_5  and  N_6 
REMARK       I    between atoms: N_6  and  C_7 
REMARK    2  A    between atoms: C_7  and  C_8 
REMARK    3  A    between atoms: C_8  and  N_9 
REMARK    4  A    between atoms: N_9  and  C_11 
REMARK    5  A    between atoms: N_9  and  C_17 
REMARK    6  A    between atoms: C_11  and  C_12 
REMARK    7  A    between atoms: C_17  and  C_18 
REMARK    8  A    between atoms: C_19  and  O_20 
ROOT
HETATM    1  N   UNL     1       5.753  28.400  55.635  1.00  0.00    -0.053 N 
HETATM    2  H   UNL     1       6.559  28.613  55.030  1.00  0.00     0.281 HD
ENDROOT
BRANCH   1   3
HETATM    3  C   UNL     1       4.573  29.117  55.008  1.00  0.00     0.338 C 
BRANCH   3   4
HETATM    4  C   UNL     1       4.372  28.798  53.523  1.00  0.00     0.251 C 
HETATM    5  N   UNL     1       5.282  29.406  52.679  1.00  0.00    -0.278 N 
HETATM    6  C   UNL     1       5.117  29.735  51.357  1.00  0.00     0.323 C 
HETATM    7  H   UNL     1       6.061  29.934  53.053  1.00  0.00     0.173 HD
HETATM    8  N   UNL     1       4.002  29.259  50.753  1.00  0.00    -0.338 N 
HETATM    9  O   UNL     1       5.946  30.486  50.862  1.00  0.00    -0.247 OA
HETATM   10  H   UNL     1       3.522  28.509  51.244  1.00  0.00     0.164 HD
HETATM   11  O   UNL     1       3.545  27.969  53.151  1.00  0.00    -0.271 OA
BRANCH   8  12
HETATM   12  C   UNL     1       3.566  29.485  49.371  1.00  0.00     0.089 C 
HETATM   13  C   UNL     1       4.364  28.685  48.307  1.00  0.00     0.004 C 
HETATM   14  C   UNL     1       4.573  29.549  47.051  1.00  0.00     0.012 C 
HETATM   15  C   UNL     1       3.723  27.346  47.904  1.00  0.00     0.006 C 
HETATM   16  C   UNL     1       2.220  27.431  47.672  1.00  0.00     0.001 C 
HETATM   17  C   UNL     1       1.501  28.037  48.868  1.00  0.00     0.002 C 
HETATM   18  C   UNL     1       2.042  29.419  49.205  1.00  0.00     0.026 C 
ENDBRANCH   8  12
ENDBRANCH   3   4
ENDBRANCH   1   3
BRANCH   1  19
HETATM   19  C   UNL     1       6.176  28.987  56.963  1.00  0.00     0.300 C 
BRANCH  19  20
HETATM   20  C   UNL     1       7.640  29.251  56.995  1.00  0.00     0.078 A 
HETATM   21  O   UNL     1       8.259  29.371  55.781  1.00  0.00    -0.325 OA
HETATM   22  C   UNL     1       9.579  29.577  56.032  1.00  0.00     0.142 A 
HETATM   23  C   UNL     1       9.812  29.603  57.387  1.00  0.00     0.027 A 
HETATM   24  C   UNL     1       8.558  29.396  58.013  1.00  0.00     0.036 A 
ENDBRANCH  19  20
ENDBRANCH   1  19
BRANCH   1  25
HETATM   25  C   UNL     1       5.699  26.895  55.629  1.00  0.00     0.277 C 
BRANCH  25  26
HETATM   26  C   UNL     1       6.451  26.071  54.612  1.00  0.00     0.001 A 
HETATM   27  C   UNL     1       7.343  26.550  53.644  1.00  0.00     0.073 A 
HETATM   28  C   UNL     1       7.906  25.696  52.687  1.00  0.00     0.037 A 
HETATM   29  C   UNL     1       7.570  24.346  52.665  1.00  0.00     0.003 A 
HETATM   30  C   UNL     1       6.674  23.846  53.601  1.00  0.00     0.001 A 
HETATM   31  C   UNL     1       6.123  24.698  54.561  1.00  0.00     0.011 A 
BRANCH  27  32
HETATM   32  O   UNL     1       7.684  27.872  53.604  1.00  0.00    -0.360 OA
HETATM   33  H   UNL     1       7.544  28.189  52.690  1.00  0.00     0.217 HD
ENDBRANCH  27  32
ENDBRANCH  25  26
ENDBRANCH   1  25
TORSDOF 8
ENDMDL
MODEL 9
REMARK VINA RESULT:      -7.8      4.498      8.988
REMARK  8 active torsions:
REMARK  status: ('A' for Active; 'I' for Inactive)
REMARK    1  A    between atoms: C_3  and  N_4 
REMARK       I    between atoms: N_4  and  C_5 
REMARK       I    between atoms: C_5  and  N_6 
REMARK       I    between atoms: N_6  and  C_7 
REMARK    2  A    between atoms: C_7  and  C_8 
REMARK    3  A    between atoms: C_8  and  N_9 
REMARK    4  A    between atoms: N_9  and  C_11 
REMARK    5  A    between atoms: N_9  and  C_17 
REMARK    6  A    between atoms: C_11  and  C_12 
REMARK    7  A    between atoms: C_17  and  C_18 
REMARK    8  A    between atoms: C_19  and  O_20 
ROOT
HETATM    1  N   UNL     1       7.239  28.884  57.524  1.00  0.00    -0.053 N 
HETATM    2  H   UNL     1       6.451  29.149  58.133  1.00  0.00     0.281 HD
ENDROOT
BRANCH   1   3
HETATM    3  C   UNL     1       8.445  29.617  58.079  1.00  0.00     0.338 C 
BRANCH   3   4
HETATM    4  C   UNL     1       8.109  30.604  59.201  1.00  0.00     0.251 C 
HETATM    5  N   UNL     1       8.747  30.346  60.400  1.00  0.00    -0.278 N 
HETATM    6  C   UNL     1       8.334  30.683  61.665  1.00  0.00     0.323 C 
HETATM    7  H   UNL     1       9.444  29.615  60.467  1.00  0.00     0.173 HD
HETATM    8  N   UNL     1       7.268  31.515  61.748  1.00  0.00    -0.338 N 
HETATM    9  O   UNL     1       8.912  30.149  62.600  1.00  0.00    -0.247 OA
HETATM   10  H   UNL     1       7.027  32.008  60.892  1.00  0.00     0.164 HD
HETATM   11  O   UNL     1       7.427  31.605  58.993  1.00  0.00    -0.271 OA
BRANCH   8  12
HETATM   12  C   UNL     1       6.606  32.003  62.962  1.00  0.00     0.089 C 
HETATM   13  C   UNL     1       7.075  33.406  63.429  1.00  0.00     0.004 C 
HETATM   14  C   UNL     1       7.145  33.450  64.965  1.00  0.00     0.012 C 
HETATM   15  C   UNL     1       6.204  34.570  62.926  1.00  0.00     0.006 C 
HETATM   16  C   UNL     1       4.707  34.307  63.035  1.00  0.00     0.001 C 
HETATM   17  C   UNL     1       4.315  33.004  62.355  1.00  0.00     0.002 C 
HETATM   18  C   UNL     1       5.082  31.821  62.928  1.00  0.00     0.026 C 
ENDBRANCH   8  12
ENDBRANCH   3   4
ENDBRANCH   1   3
BRANCH   1  19
HETATM   19  C   UNL     1       6.795  29.395  56.171  1.00  0.00     0.300 C 
BRANCH  19  20
HETATM   20  C   UNL     1       5.444  30.016  56.245  1.00  0.00     0.078 A 
HETATM   21  O   UNL     1       4.710  29.733  57.364  1.00  0.00    -0.325 OA
HETATM   22  C   UNL     1       3.515  30.364  57.220  1.00  0.00     0.142 A 
HETATM   23  C   UNL     1       3.478  31.058  56.033  1.00  0.00     0.027 A 
HETATM   24  C   UNL     1       4.727  30.836  55.402  1.00  0.00     0.036 A 
ENDBRANCH  19  20
ENDBRANCH   1  19
BRANCH   1  25
HETATM   25  C   UNL     1       7.267  27.382  57.623  1.00  0.00     0.277 C 
BRANCH  25  26
HETATM   26  C   UNL     1       6.834  26.495  56.481  1.00  0.00     0.001 A 
HETATM   27  C   UNL     1       5.519  26.179  56.121  1.00  0.00     0.073 A 
HETATM   28  C   UNL     1       5.243  25.263  55.098  1.00  0.00     0.037 A 
HETATM   29  C   UNL     1       6.283  24.625  54.429  1.00  0.00     0.003 A 
HETATM   30  C   UNL     1       7.598  24.904  54.775  1.00  0.00     0.001 A 
HETATM   31  C   UNL     1       7.869  25.827  55.788  1.00  0.00     0.011 A 
BRANCH  27  32
HETATM   32  O   UNL     1       4.462  26.756  56.767  1.00  0.00    -0.360 OA
HETATM   33  H   UNL     1       4.797  27.147  57.598  1.00  0.00     0.217 HD
ENDBRANCH  27  32
ENDBRANCH  25  26
ENDBRANCH   1  25
TORSDOF 8
ENDMDL
MODEL 10
REMARK VINA RESULT:      -7.7      2.318      7.833
REMARK  8 active torsions:
REMARK  status: ('A' for Active; 'I' for Inactive)
REMARK    1  A    between atoms: C_3  and  N_4 
REMARK       I    between atoms: N_4  and  C_5 
REMARK       I    between atoms: C_5  and  N_6 
REMARK       I    between atoms: N_6  and  C_7 
REMARK    2  A    between atoms: C_7  and  C_8 
REMARK    3  A    between atoms: C_8  and  N_9 
REMARK    4  A    between atoms: N_9  and  C_11 
REMARK    5  A    between atoms: N_9  and  C_17 
REMARK    6  A    between atoms: C_11  and  C_12 
REMARK    7  A    between atoms: C_17  and  C_18 
REMARK    8  A    between atoms: C_19  and  O_20 
ROOT
HETATM    1  N   UNL     1       7.352  25.424  56.248  1.00  0.00    -0.053 N 
HETATM    2  H   UNL     1       6.904  24.667  56.784  1.00  0.00     0.281 HD
ENDROOT
BRANCH   1   3
HETATM    3  C   UNL     1       8.251  26.144  57.235  1.00  0.00     0.338 C 
BRANCH   3   4
HETATM    4  C   UNL     1       7.823  27.586  57.525  1.00  0.00     0.251 C 
HETATM    5  N   UNL     1       8.715  28.547  57.087  1.00  0.00    -0.278 N 
HETATM    6  C   UNL     1       8.900  29.814  57.581  1.00  0.00     0.323 C 
HETATM    7  H   UNL     1       9.526  28.287  56.539  1.00  0.00     0.173 HD
HETATM    8  N   UNL     1       7.991  30.244  58.489  1.00  0.00    -0.338 N 
HETATM    9  O   UNL     1       9.903  30.412  57.218  1.00  0.00    -0.247 OA
HETATM   10  H   UNL     1       7.131  29.706  58.539  1.00  0.00     0.164 HD
HETATM   11  O   UNL     1       6.717  27.845  57.994  1.00  0.00    -0.271 OA
BRANCH   8  12
HETATM   12  C   UNL     1       7.971  31.530  59.195  1.00  0.00     0.089 C 
HETATM   13  C   UNL     1       6.947  31.607  60.358  1.00  0.00     0.004 C 
HETATM   14  C   UNL     1       6.308  33.005  60.400  1.00  0.00     0.012 C 
HETATM   15  C   UNL     1       7.529  31.271  61.743  1.00  0.00     0.006 C 
HETATM   16  C   UNL     1       8.882  31.919  62.012  1.00  0.00     0.001 C 
HETATM   17  C   UNL     1       9.885  31.603  60.913  1.00  0.00     0.002 C 
HETATM   18  C   UNL     1       9.375  32.042  59.547  1.00  0.00     0.026 C 
ENDBRANCH   8  12
ENDBRANCH   3   4
ENDBRANCH   1   3
BRANCH   1  19
HETATM   19  C   UNL     1       6.170  26.253  55.797  1.00  0.00     0.300 C 
BRANCH  19  20
HETATM   20  C   UNL     1       5.885  26.045  54.351  1.00  0.00     0.078 A 
HETATM   21  O   UNL     1       6.523  26.888  53.482  1.00  0.00    -0.325 OA
HETATM   22  C   UNL     1       6.108  26.552  52.233  1.00  0.00     0.142 A 
HETATM   23  C   UNL     1       5.224  25.499  52.287  1.00  0.00     0.027 A 
HETATM   24  C   UNL     1       5.081  25.167  53.657  1.00  0.00     0.036 A 
ENDBRANCH  19  20
ENDBRANCH   1  19
BRANCH   1  25
HETATM   25  C   UNL     1       8.043  24.695  55.125  1.00  0.00     0.277 C 
BRANCH  25  26
HETATM   26  C   UNL     1       7.958  23.196  54.972  1.00  0.00     0.001 A 
HETATM   27  C   UNL     1       8.051  22.245  55.996  1.00  0.00     0.073 A 
HETATM   28  C   UNL     1       8.056  20.873  55.718  1.00  0.00     0.037 A 
HETATM   29  C   UNL     1       7.992  20.423  54.403  1.00  0.00     0.003 A 
HETATM   30  C   UNL     1       7.917  21.342  53.365  1.00  0.00     0.001 A 
HETATM   31  C   UNL     1       7.900  22.709  53.647  1.00  0.00     0.011 A 
BRANCH  27  32
HETATM   32  O   UNL     1       8.146  22.636  57.302  1.00  0.00    -0.360 OA
HETATM   33  H   UNL     1       8.969  23.154  57.400  1.00  0.00     0.217 HD
ENDBRANCH  27  32
ENDBRANCH  25  26
ENDBRANCH   1  25
TORSDOF 8
ENDMDL
