MODEL 1
REMARK VINA RESULT:     -10.2      0.000      0.000
REMARK  8 active torsions:
REMARK  status: ('A' for Active; 'I' for Inactive)
REMARK    1  A    between atoms: C_7  and  C_8 
REMARK    2  A    between atoms: C_8  and  O_9 
REMARK    3  A    between atoms: O_9  and  C_10 
REMARK    4  A    between atoms: C_12  and  C_13 
REMARK       I    between atoms: C_13  and  N_14 
REMARK    5  A    between atoms: N_14  and  C_15 
REMARK    6  A    between atoms: C_15  and  C_16 
REMARK    7  A    between atoms: C_19  and  C_20 
REMARK    8  A    between atoms: C_20  and  N_21 
ROOT
HETATM    1  C   UNL     1       7.734  28.179  57.375  1.00  0.00     0.252 C 
HETATM    2  N   UNL     1       6.848  28.361  56.333  1.00  0.00    -0.353 N 
HETATM    3  O   UNL     1       7.689  27.223  58.139  1.00  0.00    -0.268 OA
HETATM    4  H   UNL     1       6.844  29.227  55.814  1.00  0.00     0.163 HD
ENDROOT
BRANCH   1   5
HETATM    5  C   UNL     1       8.762  29.240  57.561  1.00  0.00     0.034 A 
HETATM    6  C   UNL     1       8.430  30.362  58.329  1.00  0.00     0.053 A 
HETATM    7  C   UNL     1       9.373  31.364  58.567  1.00  0.00     0.070 A 
HETATM    8  C   UNL     1      10.650  31.254  58.014  1.00  0.00     0.037 A 
HETATM    9  C   UNL     1      10.991  30.131  57.255  1.00  0.00     0.004 A 
HETATM   10  C   UNL     1      10.053  29.121  57.034  1.00  0.00     0.017 A 
BRANCH   7  11
HETATM   11  O   UNL     1       8.927  32.406  59.329  1.00  0.00    -0.346 OA
BRANCH  11  12
HETATM   12  C   UNL     1       7.622  32.270  59.903  1.00  0.00     0.219 C 
BRANCH  12  13
HETATM   13  C   UNL     1       7.698  32.328  61.387  1.00  0.00     0.024 A 
HETATM   14  C   UNL     1       7.059  33.234  62.277  1.00  0.00     0.069 A 
HETATM   15  C   UNL     1       6.145  34.355  61.956  1.00  0.00     0.073 C 
HETATM   16  N   UNL     1       7.377  32.976  63.550  1.00  0.00    -0.133 NA
HETATM   17  O   UNL     1       8.233  31.895  63.515  1.00  0.00    -0.217 OA
HETATM   18  C   UNL     1       8.427  31.512  62.226  1.00  0.00     0.085 A 
HETATM   19  C   UNL     1       9.323  30.360  62.010  1.00  0.00     0.079 C 
ENDBRANCH  12  13
ENDBRANCH  11  12
ENDBRANCH   7  11
ENDBRANCH   1   5
BRANCH   2  20
HETATM   20  C   UNL     1       5.865  27.357  55.996  1.00  0.00     0.161 C 
BRANCH  20  21
HETATM   21  C   UNL     1       6.387  26.192  55.182  1.00  0.00    -0.041 A 
HETATM   22  C   UNL     1       6.020  24.862  55.415  1.00  0.00     0.009 A 
HETATM   23  C   UNL     1       6.558  23.825  54.646  1.00  0.00     0.009 A 
HETATM   24  C   UNL     1       7.477  24.097  53.622  1.00  0.00    -0.033 A 
HETATM   25  C   UNL     1       7.823  25.429  53.366  1.00  0.00     0.009 A 
HETATM   26  C   UNL     1       7.282  26.462  54.135  1.00  0.00     0.009 A 
BRANCH  24  27
HETATM   27  C   UNL     1       8.080  22.979  52.818  1.00  0.00     0.273 C 
BRANCH  27  28
HETATM   28  N   UNL     1       8.852  21.997  53.659  1.00  0.00    -0.067 N 
HETATM   29  H   UNL     1       9.745  21.844  53.175  1.00  0.00     0.280 HD
HETATM   30  C   UNL     1       8.169  20.652  53.801  1.00  0.00     0.235 C 
HETATM   31  C   UNL     1       7.864  20.533  55.281  1.00  0.00     0.029 C 
HETATM   32  C   UNL     1       9.022  21.262  55.929  1.00  0.00     0.029 C 
HETATM   33  C   UNL     1       9.177  22.492  55.056  1.00  0.00     0.235 C 
ENDBRANCH  27  28
ENDBRANCH  24  27
ENDBRANCH  20  21
ENDBRANCH   2  20
TORSDOF 8
ENDMDL
MODEL 2
REMARK VINA RESULT:      -9.9      2.647     11.494
REMARK  8 active torsions:
REMARK  status: ('A' for Active; 'I' for Inactive)
REMARK    1  A    between atoms: C_7  and  C_8 
REMARK    2  A    between atoms: C_8  and  O_9 
REMARK    3  A    between atoms: O_9  and  C_10 
REMARK    4  A    between atoms: C_12  and  C_13 
REMARK       I    between atoms: C_13  and  N_14 
REMARK    5  A    between atoms: N_14  and  C_15 
REMARK    6  A    between atoms: C_15  and  C_16 
REMARK    7  A    between atoms: C_19  and  C_20 
REMARK    8  A    between atoms: C_20  and  N_21 
ROOT
HETATM    1  C   UNL     1       8.423  29.591  58.443  1.00  0.00     0.252 C 
HETATM    2  N   UNL     1       7.998  30.044  59.675  1.00  0.00    -0.353 N 
HETATM    3  O   UNL     1       9.487  29.921  57.933  1.00  0.00    -0.268 OA
HETATM    4  H   UNL     1       7.060  29.849  59.992  1.00  0.00     0.163 HD
ENDROOT
BRANCH   1   5
HETATM    5  C   UNL     1       7.495  28.679  57.718  1.00  0.00     0.034 A 
HETATM    6  C   UNL     1       7.956  27.407  57.362  1.00  0.00     0.053 A 
HETATM    7  C   UNL     1       7.112  26.500  56.718  1.00  0.00     0.070 A 
HETATM    8  C   UNL     1       5.804  26.876  56.410  1.00  0.00     0.037 A 
HETATM    9  C   UNL     1       5.335  28.142  56.773  1.00  0.00     0.004 A 
HETATM   10  C   UNL     1       6.174  29.040  57.433  1.00  0.00     0.017 A 
BRANCH   7  11
HETATM   11  O   UNL     1       7.680  25.293  56.422  1.00  0.00    -0.346 OA
BRANCH  11  12
HETATM   12  C   UNL     1       6.790  24.242  56.029  1.00  0.00     0.219 C 
BRANCH  12  13
HETATM   13  C   UNL     1       7.398  23.424  54.947  1.00  0.00     0.024 A 
HETATM   14  C   UNL     1       7.651  23.782  53.595  1.00  0.00     0.069 A 
HETATM   15  C   UNL     1       7.380  25.069  52.912  1.00  0.00     0.073 C 
HETATM   16  N   UNL     1       8.205  22.771  52.916  1.00  0.00    -0.133 NA
HETATM   17  O   UNL     1       8.322  21.731  53.814  1.00  0.00    -0.217 OA
HETATM   18  C   UNL     1       7.838  22.119  55.022  1.00  0.00     0.085 A 
HETATM   19  C   UNL     1       7.890  21.118  56.105  1.00  0.00     0.079 C 
ENDBRANCH  12  13
ENDBRANCH  11  12
ENDBRANCH   7  11
ENDBRANCH   1   5
BRANCH   2  20
HETATM   20  C   UNL     1       8.848  30.859  60.512  1.00  0.00     0.161 C 
BRANCH  20  21
HETATM   21  C   UNL     1       8.119  31.811  61.437  1.00  0.00    -0.041 A 
HETATM   22  C   UNL     1       7.069  32.638  61.022  1.00  0.00     0.009 A 
HETATM   23  C   UNL     1       6.452  33.517  61.918  1.00  0.00     0.009 A 
HETATM   24  C   UNL     1       6.872  33.586  63.254  1.00  0.00    -0.033 A 
HETATM   25  C   UNL     1       7.900  32.738  63.681  1.00  0.00     0.009 A 
HETATM   26  C   UNL     1       8.513  31.860  62.784  1.00  0.00     0.009 A 
BRANCH  24  27
HETATM   27  C   UNL     1       6.230  34.555  64.208  1.00  0.00     0.273 C 
BRANCH  27  28
HETATM   28  N   UNL     1       5.466  33.875  65.314  1.00  0.00    -0.067 N 
HETATM   29  H   UNL     1       5.557  32.865  65.147  1.00  0.00     0.280 HD
HETATM   30  C   UNL     1       3.987  34.208  65.323  1.00  0.00     0.235 C 
HETATM   31  C   UNL     1       3.768  34.933  66.636  1.00  0.00     0.029 C 
HETATM   32  C   UNL     1       4.759  34.267  67.566  1.00  0.00     0.029 C 
HETATM   33  C   UNL     1       6.003  34.152  66.705  1.00  0.00     0.235 C 
ENDBRANCH  27  28
ENDBRANCH  24  27
ENDBRANCH  20  21
ENDBRANCH   2  20
TORSDOF 8
ENDMDL
MODEL 3
REMARK VINA RESULT:      -9.9      2.303     11.283
REMARK  8 active torsions:
REMARK  status: ('A' for Active; 'I' for Inactive)
REMARK    1  A    between atoms: C_7  and  C_8 
REMARK    2  A    between atoms: C_8  and  O_9 
REMARK    3  A    between atoms: O_9  and  C_10 
REMARK    4  A    between atoms: C_12  and  C_13 
REMARK       I    between atoms: C_13  and  N_14 
REMARK    5  A    between atoms: N_14  and  C_15 
REMARK    6  A    between atoms: C_15  and  C_16 
REMARK    7  A    between atoms: C_19  and  C_20 
REMARK    8  A    between atoms: C_20  and  N_21 
ROOT
HETATM    1  C   UNL     1       8.347  28.563  57.621  1.00  0.00     0.252 C 
HETATM    2  N   UNL     1       7.945  29.437  58.611  1.00  0.00    -0.353 N 
HETATM    3  O   UNL     1       9.395  28.685  56.999  1.00  0.00    -0.268 OA
HETATM    4  H   UNL     1       7.016  29.370  59.001  1.00  0.00     0.163 HD
ENDROOT
BRANCH   1   5
HETATM    5  C   UNL     1       7.413  27.448  57.305  1.00  0.00     0.034 A 
HETATM    6  C   UNL     1       7.922  26.145  57.264  1.00  0.00     0.053 A 
HETATM    7  C   UNL     1       7.079  25.060  57.013  1.00  0.00     0.070 A 
HETATM    8  C   UNL     1       5.721  25.283  56.779  1.00  0.00     0.037 A 
HETATM    9  C   UNL     1       5.205  26.581  56.830  1.00  0.00     0.004 A 
HETATM   10  C   UNL     1       6.046  27.662  57.099  1.00  0.00     0.017 A 
BRANCH   7  11
HETATM   11  O   UNL     1       7.696  23.842  56.998  1.00  0.00    -0.346 OA
BRANCH  11  12
HETATM   12  C   UNL     1       8.737  23.660  56.031  1.00  0.00     0.219 C 
BRANCH  12  13
HETATM   13  C   UNL     1       8.303  22.711  54.971  1.00  0.00     0.024 A 
HETATM   14  C   UNL     1       7.977  22.980  53.615  1.00  0.00     0.069 A 
HETATM   15  C   UNL     1       7.991  24.278  52.900  1.00  0.00     0.073 C 
HETATM   16  N   UNL     1       7.619  21.867  52.966  1.00  0.00    -0.133 NA
HETATM   17  O   UNL     1       7.703  20.847  53.892  1.00  0.00    -0.217 OA
HETATM   18  C   UNL     1       8.106  21.351  55.086  1.00  0.00     0.085 A 
HETATM   19  C   UNL     1       8.250  20.387  56.194  1.00  0.00     0.079 C 
ENDBRANCH  12  13
ENDBRANCH  11  12
ENDBRANCH   7  11
ENDBRANCH   1   5
BRANCH   2  20
HETATM   20  C   UNL     1       8.805  30.503  59.069  1.00  0.00     0.161 C 
BRANCH  20  21
HETATM   21  C   UNL     1       8.309  31.251  60.288  1.00  0.00    -0.041 A 
HETATM   22  C   UNL     1       7.110  31.973  60.315  1.00  0.00     0.009 A 
HETATM   23  C   UNL     1       6.718  32.668  61.464  1.00  0.00     0.009 A 
HETATM   24  C   UNL     1       7.518  32.654  62.616  1.00  0.00    -0.033 A 
HETATM   25  C   UNL     1       8.703  31.908  62.603  1.00  0.00     0.009 A 
HETATM   26  C   UNL     1       9.090  31.214  61.454  1.00  0.00     0.009 A 
BRANCH  24  27
HETATM   27  C   UNL     1       7.112  33.428  63.839  1.00  0.00     0.273 C 
BRANCH  27  28
HETATM   28  N   UNL     1       5.689  33.917  63.782  1.00  0.00    -0.067 N 
HETATM   29  H   UNL     1       5.265  33.471  62.960  1.00  0.00     0.280 HD
HETATM   30  C   UNL     1       5.569  35.417  63.605  1.00  0.00     0.235 C 
HETATM   31  C   UNL     1       4.893  35.898  64.873  1.00  0.00     0.029 C 
HETATM   32  C   UNL     1       3.975  34.749  65.229  1.00  0.00     0.029 C 
HETATM   33  C   UNL     1       4.849  33.533  64.985  1.00  0.00     0.235 C 
ENDBRANCH  27  28
ENDBRANCH  24  27
ENDBRANCH  20  21
ENDBRANCH   2  20
TORSDOF 8
ENDMDL
MODEL 4
REMARK VINA RESULT:      -9.6      2.313      3.672
REMARK  8 active torsions:
REMARK  status: ('A' for Active; 'I' for Inactive)
REMARK    1  A    between atoms: C_7  and  C_8 
REMARK    2  A    between atoms: C_8  and  O_9 
REMARK    3  A    between atoms: O_9  and  C_10 
REMARK    4  A    between atoms: C_12  and  C_13 
REMARK       I    between atoms: C_13  and  N_14 
REMARK    5  A    between atoms: N_14  and  C_15 
REMARK    6  A    between atoms: C_15  and  C_16 
REMARK    7  A    between atoms: C_19  and  C_20 
REMARK    8  A    between atoms: C_20  and  N_21 
ROOT
HETATM    1  C   UNL     1       7.982  30.089  58.405  1.00  0.00     0.252 C 
HETATM    2  N   UNL     1       6.884  29.265  58.265  1.00  0.00    -0.353 N 
HETATM    3  O   UNL     1       8.846  30.213  57.546  1.00  0.00    -0.268 OA
HETATM    4  H   UNL     1       6.272  29.097  59.050  1.00  0.00     0.163 HD
ENDROOT
BRANCH   1   5
HETATM    5  C   UNL     1       8.097  30.824  59.695  1.00  0.00     0.034 A 
HETATM    6  C   UNL     1       6.957  31.454  60.206  1.00  0.00     0.053 A 
HETATM    7  C   UNL     1       7.003  32.121  61.433  1.00  0.00     0.070 A 
HETATM    8  C   UNL     1       8.203  32.175  62.142  1.00  0.00     0.037 A 
HETATM    9  C   UNL     1       9.342  31.537  61.643  1.00  0.00     0.004 A 
HETATM   10  C   UNL     1       9.290  30.856  60.426  1.00  0.00     0.017 A 
BRANCH   7  11
HETATM   11  O   UNL     1       5.826  32.696  61.820  1.00  0.00    -0.346 OA
BRANCH  11  12
HETATM   12  C   UNL     1       5.274  32.254  63.066  1.00  0.00     0.219 C 
BRANCH  12  13
HETATM   13  C   UNL     1       4.953  33.418  63.934  1.00  0.00     0.024 A 
HETATM   14  C   UNL     1       5.751  34.024  64.942  1.00  0.00     0.069 A 
HETATM   15  C   UNL     1       7.116  33.658  65.386  1.00  0.00     0.073 C 
HETATM   16  N   UNL     1       5.116  35.050  65.519  1.00  0.00    -0.133 NA
HETATM   17  O   UNL     1       3.887  35.132  64.897  1.00  0.00    -0.217 OA
HETATM   18  C   UNL     1       3.789  34.157  63.956  1.00  0.00     0.085 A 
HETATM   19  C   UNL     1       2.528  34.103  63.192  1.00  0.00     0.079 C 
ENDBRANCH  12  13
ENDBRANCH  11  12
ENDBRANCH   7  11
ENDBRANCH   1   5
BRANCH   2  20
HETATM   20  C   UNL     1       6.615  28.572  57.027  1.00  0.00     0.161 C 
BRANCH  20  21
HETATM   21  C   UNL     1       7.059  27.125  56.989  1.00  0.00    -0.041 A 
HETATM   22  C   UNL     1       8.367  26.712  57.269  1.00  0.00     0.009 A 
HETATM   23  C   UNL     1       8.724  25.362  57.190  1.00  0.00     0.009 A 
HETATM   24  C   UNL     1       7.777  24.392  56.832  1.00  0.00    -0.033 A 
HETATM   25  C   UNL     1       6.461  24.798  56.581  1.00  0.00     0.009 A 
HETATM   26  C   UNL     1       6.107  26.147  56.663  1.00  0.00     0.009 A 
BRANCH  24  27
HETATM   27  C   UNL     1       8.170  22.945  56.716  1.00  0.00     0.273 C 
BRANCH  27  28
HETATM   28  N   UNL     1       7.509  22.246  55.558  1.00  0.00    -0.067 N 
HETATM   29  H   UNL     1       6.518  22.519  55.585  1.00  0.00     0.280 HD
HETATM   30  C   UNL     1       7.572  20.734  55.646  1.00  0.00     0.235 C 
HETATM   31  C   UNL     1       8.405  20.318  54.450  1.00  0.00     0.029 C 
HETATM   32  C   UNL     1       8.046  21.352  53.405  1.00  0.00     0.029 C 
HETATM   33  C   UNL     1       8.048  22.645  54.197  1.00  0.00     0.235 C 
ENDBRANCH  27  28
ENDBRANCH  24  27
ENDBRANCH  20  21
ENDBRANCH   2  20
TORSDOF 8
ENDMDL
MODEL 5
REMARK VINA RESULT:      -9.6      1.286      1.684
REMARK  8 active torsions:
REMARK  status: ('A' for Active; 'I' for Inactive)
REMARK    1  A    between atoms: C_7  and  C_8 
REMARK    2  A    between atoms: C_8  and  O_9 
REMARK    3  A    between atoms: O_9  and  C_10 
REMARK    4  A    between atoms: C_12  and  C_13 
REMARK       I    between atoms: C_13  and  N_14 
REMARK    5  A    between atoms: N_14  and  C_15 
REMARK    6  A    between atoms: C_15  and  C_16 
REMARK    7  A    between atoms: C_19  and  C_20 
REMARK    8  A    between atoms: C_20  and  N_21 
ROOT
HETATM    1  C   UNL     1       7.156  28.573  56.407  1.00  0.00     0.252 C 
HETATM    2  N   UNL     1       7.091  28.447  55.034  1.00  0.00    -0.353 N 
HETATM    3  O   UNL     1       6.329  28.087  57.168  1.00  0.00    -0.268 OA
HETATM    4  H   UNL     1       7.719  28.974  54.445  1.00  0.00     0.163 HD
ENDROOT
BRANCH   1   5
HETATM    5  C   UNL     1       8.289  29.375  56.944  1.00  0.00     0.034 A 
HETATM    6  C   UNL     1       8.029  30.290  57.970  1.00  0.00     0.053 A 
HETATM    7  C   UNL     1       9.066  31.037  58.536  1.00  0.00     0.070 A 
HETATM    8  C   UNL     1      10.367  30.881  58.057  1.00  0.00     0.037 A 
HETATM    9  C   UNL     1      10.634  29.960  57.040  1.00  0.00     0.004 A 
HETATM   10  C   UNL     1       9.600  29.202  56.488  1.00  0.00     0.017 A 
BRANCH   7  11
HETATM   11  O   UNL     1       8.683  31.895  59.527  1.00  0.00    -0.346 OA
BRANCH  11  12
HETATM   12  C   UNL     1       8.046  31.314  60.671  1.00  0.00     0.219 C 
BRANCH  12  13
HETATM   13  C   UNL     1       7.028  32.244  61.227  1.00  0.00     0.024 A 
HETATM   14  C   UNL     1       6.989  32.860  62.507  1.00  0.00     0.069 A 
HETATM   15  C   UNL     1       7.960  32.741  63.621  1.00  0.00     0.073 C 
HETATM   16  N   UNL     1       5.905  33.630  62.648  1.00  0.00    -0.133 NA
HETATM   17  O   UNL     1       5.212  33.529  61.459  1.00  0.00    -0.217 OA
HETATM   18  C   UNL     1       5.879  32.700  60.616  1.00  0.00     0.085 A 
HETATM   19  C   UNL     1       5.270  32.482  59.289  1.00  0.00     0.079 C 
ENDBRANCH  12  13
ENDBRANCH  11  12
ENDBRANCH   7  11
ENDBRANCH   1   5
BRANCH   2  20
HETATM   20  C   UNL     1       6.091  27.618  54.400  1.00  0.00     0.161 C 
BRANCH  20  21
HETATM   21  C   UNL     1       6.560  26.235  54.003  1.00  0.00    -0.041 A 
HETATM   22  C   UNL     1       6.085  25.059  54.597  1.00  0.00     0.009 A 
HETATM   23  C   UNL     1       6.577  23.810  54.206  1.00  0.00     0.009 A 
HETATM   24  C   UNL     1       7.557  23.708  53.207  1.00  0.00    -0.033 A 
HETATM   25  C   UNL     1       8.012  24.879  52.590  1.00  0.00     0.009 A 
HETATM   26  C   UNL     1       7.516  26.125  52.981  1.00  0.00     0.009 A 
BRANCH  24  27
HETATM   27  C   UNL     1       8.109  22.367  52.811  1.00  0.00     0.273 C 
BRANCH  27  28
HETATM   28  N   UNL     1       8.802  21.656  53.944  1.00  0.00    -0.067 N 
HETATM   29  H   UNL     1       9.727  21.385  53.589  1.00  0.00     0.280 HD
HETATM   30  C   UNL     1       8.093  20.393  54.391  1.00  0.00     0.235 C 
HETATM   31  C   UNL     1       7.674  20.678  55.820  1.00  0.00     0.029 C 
HETATM   32  C   UNL     1       8.789  21.564  56.334  1.00  0.00     0.029 C 
HETATM   33  C   UNL     1       9.025  22.513  55.175  1.00  0.00     0.235 C 
ENDBRANCH  27  28
ENDBRANCH  24  27
ENDBRANCH  20  21
ENDBRANCH   2  20
TORSDOF 8
ENDMDL
MODEL 6
REMARK VINA RESULT:      -9.5      2.285     10.767
REMARK  8 active torsions:
REMARK  status: ('A' for Active; 'I' for Inactive)
REMARK    1  A    between atoms: C_7  and  C_8 
REMARK    2  A    between atoms: C_8  and  O_9 
REMARK    3  A    between atoms: O_9  and  C_10 
REMARK    4  A    between atoms: C_12  and  C_13 
REMARK       I    between atoms: C_13  and  N_14 
REMARK    5  A    between atoms: N_14  and  C_15 
REMARK    6  A    between atoms: C_15  and  C_16 
REMARK    7  A    between atoms: C_19  and  C_20 
REMARK    8  A    between atoms: C_20  and  N_21 
ROOT
HETATM    1  C   UNL     1       7.879  28.337  56.442  1.00  0.00     0.252 C 
HETATM    2  N   UNL     1       8.098  28.709  57.754  1.00  0.00    -0.353 N 
HETATM    3  O   UNL     1       8.354  28.936  55.485  1.00  0.00    -0.268 OA
HETATM    4  H   UNL     1       7.581  28.266  58.500  1.00  0.00     0.163 HD
ENDROOT
BRANCH   1   5
HETATM    5  C   UNL     1       6.991  27.162  56.227  1.00  0.00     0.034 A 
HETATM    6  C   UNL     1       7.303  26.273  55.193  1.00  0.00     0.053 A 
HETATM    7  C   UNL     1       6.525  25.133  54.977  1.00  0.00     0.070 A 
HETATM    8  C   UNL     1       5.415  24.894  55.788  1.00  0.00     0.037 A 
HETATM    9  C   UNL     1       5.105  25.773  56.830  1.00  0.00     0.004 A 
HETATM   10  C   UNL     1       5.895  26.901  57.056  1.00  0.00     0.017 A 
BRANCH   7  11
HETATM   11  O   UNL     1       6.931  24.346  53.937  1.00  0.00    -0.346 OA
BRANCH  11  12
HETATM   12  C   UNL     1       8.242  23.779  54.034  1.00  0.00     0.219 C 
BRANCH  12  13
HETATM   13  C   UNL     1       8.214  22.541  54.858  1.00  0.00     0.024 A 
HETATM   14  C   UNL     1       8.038  21.195  54.437  1.00  0.00     0.069 A 
HETATM   15  C   UNL     1       7.844  20.673  53.064  1.00  0.00     0.073 C 
HETATM   16  N   UNL     1       8.061  20.351  55.474  1.00  0.00    -0.133 NA
HETATM   17  O   UNL     1       8.251  21.133  56.595  1.00  0.00    -0.217 OA
HETATM   18  C   UNL     1       8.338  22.437  56.227  1.00  0.00     0.085 A 
HETATM   19  C   UNL     1       8.544  23.415  57.314  1.00  0.00     0.079 C 
ENDBRANCH  12  13
ENDBRANCH  11  12
ENDBRANCH   7  11
ENDBRANCH   1   5
BRANCH   2  20
HETATM   20  C   UNL     1       9.012  29.774  58.093  1.00  0.00     0.161 C 
BRANCH  20  21
HETATM   21  C   UNL     1       8.499  30.759  59.122  1.00  0.00    -0.041 A 
HETATM   22  C   UNL     1       9.216  31.120  60.269  1.00  0.00     0.009 A 
HETATM   23  C   UNL     1       8.677  32.015  61.199  1.00  0.00     0.009 A 
HETATM   24  C   UNL     1       7.406  32.573  61.000  1.00  0.00    -0.033 A 
HETATM   25  C   UNL     1       6.699  32.239  59.838  1.00  0.00     0.009 A 
HETATM   26  C   UNL     1       7.242  31.346  58.911  1.00  0.00     0.009 A 
BRANCH  24  27
HETATM   27  C   UNL     1       6.814  33.510  62.016  1.00  0.00     0.273 C 
BRANCH  27  28
HETATM   28  N   UNL     1       6.764  32.921  63.401  1.00  0.00    -0.067 N 
HETATM   29  H   UNL     1       7.068  31.944  63.309  1.00  0.00     0.280 HD
HETATM   30  C   UNL     1       5.375  32.916  64.008  1.00  0.00     0.235 C 
HETATM   31  C   UNL     1       5.482  33.830  65.212  1.00  0.00     0.029 C 
HETATM   32  C   UNL     1       6.900  33.603  65.690  1.00  0.00     0.029 C 
HETATM   33  C   UNL     1       7.693  33.589  64.397  1.00  0.00     0.235 C 
ENDBRANCH  27  28
ENDBRANCH  24  27
ENDBRANCH  20  21
ENDBRANCH   2  20
TORSDOF 8
ENDMDL
MODEL 7
REMARK VINA RESULT:      -9.3      2.618     10.755
REMARK  8 active torsions:
REMARK  status: ('A' for Active; 'I' for Inactive)
REMARK    1  A    between atoms: C_7  and  C_8 
REMARK    2  A    between atoms: C_8  and  O_9 
REMARK    3  A    between atoms: O_9  and  C_10 
REMARK    4  A    between atoms: C_12  and  C_13 
REMARK       I    between atoms: C_13  and  N_14 
REMARK    5  A    between atoms: N_14  and  C_15 
REMARK    6  A    between atoms: C_15  and  C_16 
REMARK    7  A    between atoms: C_19  and  C_20 
REMARK    8  A    between atoms: C_20  and  N_21 
ROOT
HETATM    1  C   UNL     1       9.667  31.074  58.948  1.00  0.00     0.252 C 
HETATM    2  N   UNL     1       9.115  30.591  60.118  1.00  0.00    -0.353 N 
HETATM    3  O   UNL     1      10.366  32.078  58.898  1.00  0.00    -0.268 OA
HETATM    4  H   UNL     1       8.441  29.840  60.089  1.00  0.00     0.163 HD
ENDROOT
BRANCH   1   5
HETATM    5  C   UNL     1       9.343  30.322  57.704  1.00  0.00     0.034 A 
HETATM    6  C   UNL     1       8.042  29.831  57.543  1.00  0.00     0.053 A 
HETATM    7  C   UNL     1       7.678  29.155  56.376  1.00  0.00     0.070 A 
HETATM    8  C   UNL     1       8.627  28.951  55.374  1.00  0.00     0.037 A 
HETATM    9  C   UNL     1       9.924  29.449  55.525  1.00  0.00     0.004 A 
HETATM   10  C   UNL     1      10.282  30.140  56.683  1.00  0.00     0.017 A 
BRANCH   7  11
HETATM   11  O   UNL     1       6.382  28.725  56.341  1.00  0.00    -0.346 OA
BRANCH  11  12
HETATM   12  C   UNL     1       6.106  27.464  56.959  1.00  0.00     0.219 C 
BRANCH  12  13
HETATM   13  C   UNL     1       6.570  26.347  56.094  1.00  0.00     0.024 A 
HETATM   14  C   UNL     1       6.137  25.994  54.787  1.00  0.00     0.069 A 
HETATM   15  C   UNL     1       5.111  26.651  53.944  1.00  0.00     0.073 C 
HETATM   16  N   UNL     1       6.785  24.916  54.331  1.00  0.00    -0.133 NA
HETATM   17  O   UNL     1       7.655  24.545  55.335  1.00  0.00    -0.217 OA
HETATM   18  C   UNL     1       7.524  25.395  56.386  1.00  0.00     0.085 A 
HETATM   19  C   UNL     1       8.390  25.138  57.553  1.00  0.00     0.079 C 
ENDBRANCH  12  13
ENDBRANCH  11  12
ENDBRANCH   7  11
ENDBRANCH   1   5
BRANCH   2  20
HETATM   20  C   UNL     1       9.430  31.180  61.398  1.00  0.00     0.161 C 
BRANCH  20  21
HETATM   21  C   UNL     1       8.354  32.074  61.977  1.00  0.00    -0.041 A 
HETATM   22  C   UNL     1       7.340  32.657  61.209  1.00  0.00     0.009 A 
HETATM   23  C   UNL     1       6.389  33.498  61.797  1.00  0.00     0.009 A 
HETATM   24  C   UNL     1       6.430  33.772  63.172  1.00  0.00    -0.033 A 
HETATM   25  C   UNL     1       7.425  33.166  63.949  1.00  0.00     0.009 A 
HETATM   26  C   UNL     1       8.371  32.325  63.358  1.00  0.00     0.009 A 
BRANCH  24  27
HETATM   27  C   UNL     1       5.428  34.701  63.797  1.00  0.00     0.273 C 
BRANCH  27  28
HETATM   28  N   UNL     1       4.649  34.062  64.916  1.00  0.00    -0.067 N 
HETATM   29  H   UNL     1       4.554  33.069  64.670  1.00  0.00     0.280 HD
HETATM   30  C   UNL     1       3.254  34.629  65.085  1.00  0.00     0.235 C 
HETATM   31  C   UNL     1       3.265  35.264  66.462  1.00  0.00     0.029 C 
HETATM   32  C   UNL     1       4.199  34.367  67.246  1.00  0.00     0.029 C 
HETATM   33  C   UNL     1       5.333  34.126  66.269  1.00  0.00     0.235 C 
ENDBRANCH  27  28
ENDBRANCH  24  27
ENDBRANCH  20  21
ENDBRANCH   2  20
TORSDOF 8
ENDMDL
MODEL 8
REMARK VINA RESULT:      -9.3      2.043      2.811
REMARK  8 active torsions:
REMARK  status: ('A' for Active; 'I' for Inactive)
REMARK    1  A    between atoms: C_7  and  C_8 
REMARK    2  A    between atoms: C_8  and  O_9 
REMARK    3  A    between atoms: O_9  and  C_10 
REMARK    4  A    between atoms: C_12  and  C_13 
REMARK       I    between atoms: C_13  and  N_14 
REMARK    5  A    between atoms: N_14  and  C_15 
REMARK    6  A    between atoms: C_15  and  C_16 
REMARK    7  A    between atoms: C_19  and  C_20 
REMARK    8  A    between atoms: C_20  and  N_21 
ROOT
HETATM    1  C   UNL     1       6.864  29.810  57.654  1.00  0.00     0.252 C 
HETATM    2  N   UNL     1       7.477  28.964  56.751  1.00  0.00    -0.353 N 
HETATM    3  O   UNL     1       5.649  29.884  57.789  1.00  0.00    -0.268 OA
HETATM    4  H   UNL     1       8.471  29.033  56.584  1.00  0.00     0.163 HD
ENDROOT
BRANCH   1   5
HETATM    5  C   UNL     1       7.764  30.677  58.463  1.00  0.00     0.034 A 
HETATM    6  C   UNL     1       7.208  31.415  59.514  1.00  0.00     0.053 A 
HETATM    7  C   UNL     1       8.017  32.212  60.328  1.00  0.00     0.070 A 
HETATM    8  C   UNL     1       9.387  32.287  60.075  1.00  0.00     0.037 A 
HETATM    9  C   UNL     1       9.949  31.544  59.033  1.00  0.00     0.004 A 
HETATM   10  C   UNL     1       9.143  30.734  58.232  1.00  0.00     0.017 A 
BRANCH   7  11
HETATM   11  O   UNL     1       7.355  32.882  61.318  1.00  0.00    -0.346 OA
BRANCH  11  12
HETATM   12  C   UNL     1       7.166  32.182  62.553  1.00  0.00     0.219 C 
BRANCH  12  13
HETATM   13  C   UNL     1       5.954  32.683  63.254  1.00  0.00     0.024 A 
HETATM   14  C   UNL     1       4.602  32.670  62.815  1.00  0.00     0.069 A 
HETATM   15  C   UNL     1       4.048  32.147  61.544  1.00  0.00     0.073 C 
HETATM   16  N   UNL     1       3.788  33.220  63.722  1.00  0.00    -0.133 NA
HETATM   17  O   UNL     1       4.595  33.605  64.772  1.00  0.00    -0.217 OA
HETATM   18  C   UNL     1       5.886  33.288  64.490  1.00  0.00     0.085 A 
HETATM   19  C   UNL     1       6.887  33.634  65.518  1.00  0.00     0.079 C 
ENDBRANCH  12  13
ENDBRANCH  11  12
ENDBRANCH   7  11
ENDBRANCH   1   5
BRANCH   2  20
HETATM   20  C   UNL     1       6.718  28.011  55.976  1.00  0.00     0.161 C 
BRANCH  20  21
HETATM   21  C   UNL     1       7.088  26.560  56.198  1.00  0.00    -0.041 A 
HETATM   22  C   UNL     1       6.348  25.488  55.686  1.00  0.00     0.009 A 
HETATM   23  C   UNL     1       6.725  24.167  55.949  1.00  0.00     0.009 A 
HETATM   24  C   UNL     1       7.856  23.888  56.730  1.00  0.00    -0.033 A 
HETATM   25  C   UNL     1       8.616  24.958  57.219  1.00  0.00     0.009 A 
HETATM   26  C   UNL     1       8.237  26.276  56.952  1.00  0.00     0.009 A 
BRANCH  24  27
HETATM   27  C   UNL     1       8.241  22.468  57.040  1.00  0.00     0.273 C 
BRANCH  27  28
HETATM   28  N   UNL     1       8.806  21.738  55.850  1.00  0.00    -0.067 N 
HETATM   29  H   UNL     1       9.580  21.163  56.207  1.00  0.00     0.280 HD
HETATM   30  C   UNL     1       9.370  22.658  54.785  1.00  0.00     0.235 C 
HETATM   31  C   UNL     1       8.495  22.417  53.571  1.00  0.00     0.029 C 
HETATM   32  C   UNL     1       8.137  20.951  53.692  1.00  0.00     0.029 C 
HETATM   33  C   UNL     1       7.826  20.801  55.169  1.00  0.00     0.235 C 
ENDBRANCH  27  28
ENDBRANCH  24  27
ENDBRANCH  20  21
ENDBRANCH   2  20
TORSDOF 8
ENDMDL
MODEL 9
REMARK VINA RESULT:      -9.2      2.360      4.334
REMARK  8 active torsions:
REMARK  status: ('A' for Active; 'I' for Inactive)
REMARK    1  A    between atoms: C_7  and  C_8 
REMARK    2  A    between atoms: C_8  and  O_9 
REMARK    3  A    between atoms: O_9  and  C_10 
REMARK    4  A    between atoms: C_12  and  C_13 
REMARK       I    between atoms: C_13  and  N_14 
REMARK    5  A    between atoms: N_14  and  C_15 
REMARK    6  A    between atoms: C_15  and  C_16 
REMARK    7  A    between atoms: C_19  and  C_20 
REMARK    8  A    between atoms: C_20  and  N_21 
ROOT
HETATM    1  C   UNL     1       9.306  31.338  59.035  1.00  0.00     0.252 C 
HETATM    2  N   UNL     1       8.925  30.077  58.620  1.00  0.00    -0.353 N 
HETATM    3  O   UNL     1      10.088  32.045  58.411  1.00  0.00    -0.268 OA
HETATM    4  H   UNL     1       8.384  29.484  59.232  1.00  0.00     0.163 HD
ENDROOT
BRANCH   1   5
HETATM    5  C   UNL     1       8.735  31.810  60.326  1.00  0.00     0.034 A 
HETATM    6  C   UNL     1       7.569  32.583  60.296  1.00  0.00     0.053 A 
HETATM    7  C   UNL     1       6.972  33.015  61.482  1.00  0.00     0.070 A 
HETATM    8  C   UNL     1       7.557  32.689  62.706  1.00  0.00     0.037 A 
HETATM    9  C   UNL     1       8.715  31.907  62.743  1.00  0.00     0.004 A 
HETATM   10  C   UNL     1       9.301  31.460  61.557  1.00  0.00     0.017 A 
BRANCH   7  11
HETATM   11  O   UNL     1       5.841  33.763  61.318  1.00  0.00    -0.346 OA
BRANCH  11  12
HETATM   12  C   UNL     1       5.618  34.809  62.270  1.00  0.00     0.219 C 
BRANCH  12  13
HETATM   13  C   UNL     1       4.534  34.430  63.216  1.00  0.00     0.024 A 
HETATM   14  C   UNL     1       3.149  34.248  62.955  1.00  0.00     0.069 A 
HETATM   15  C   UNL     1       2.424  34.383  61.670  1.00  0.00     0.073 C 
HETATM   16  N   UNL     1       2.481  33.915  64.066  1.00  0.00    -0.133 NA
HETATM   17  O   UNL     1       3.421  33.875  65.074  1.00  0.00    -0.217 OA
HETATM   18  C   UNL     1       4.643  34.186  64.568  1.00  0.00     0.085 A 
HETATM   19  C   UNL     1       5.769  34.189  65.522  1.00  0.00     0.079 C 
ENDBRANCH  12  13
ENDBRANCH  11  12
ENDBRANCH   7  11
ENDBRANCH   1   5
BRANCH   2  20
HETATM   20  C   UNL     1       9.340  29.547  57.342  1.00  0.00     0.161 C 
BRANCH  20  21
HETATM   21  C   UNL     1       8.300  28.715  56.623  1.00  0.00    -0.041 A 
HETATM   22  C   UNL     1       7.263  28.041  57.278  1.00  0.00     0.009 A 
HETATM   23  C   UNL     1       6.348  27.263  56.561  1.00  0.00     0.009 A 
HETATM   24  C   UNL     1       6.449  27.145  55.167  1.00  0.00    -0.033 A 
HETATM   25  C   UNL     1       7.466  27.842  54.505  1.00  0.00     0.009 A 
HETATM   26  C   UNL     1       8.377  28.619  55.224  1.00  0.00     0.009 A 
BRANCH  24  27
HETATM   27  C   UNL     1       5.484  26.283  54.401  1.00  0.00     0.273 C 
BRANCH  27  28
HETATM   28  N   UNL     1       5.993  24.883  54.178  1.00  0.00    -0.067 N 
HETATM   29  H   UNL     1       5.163  24.294  54.042  1.00  0.00     0.280 HD
HETATM   30  C   UNL     1       6.767  24.324  55.355  1.00  0.00     0.235 C 
HETATM   31  C   UNL     1       8.171  24.115  54.824  1.00  0.00     0.029 C 
HETATM   32  C   UNL     1       7.938  23.744  53.375  1.00  0.00     0.029 C 
HETATM   33  C   UNL     1       6.863  24.725  52.945  1.00  0.00     0.235 C 
ENDBRANCH  27  28
ENDBRANCH  24  27
ENDBRANCH  20  21
ENDBRANCH   2  20
TORSDOF 8
ENDMDL
MODEL 10
REMARK VINA RESULT:      -9.0      2.328      4.488
REMARK  8 active torsions:
REMARK  status: ('A' for Active; 'I' for Inactive)
REMARK    1  A    between atoms: C_7  and  C_8 
REMARK    2  A    between atoms: C_8  and  O_9 
REMARK    3  A    between atoms: O_9  and  C_10 
REMARK    4  A    between atoms: C_12  and  C_13 
REMARK       I    between atoms: C_13  and  N_14 
REMARK    5  A    between atoms: N_14  and  C_15 
REMARK    6  A    between atoms: C_15  and  C_16 
REMARK    7  A    between atoms: C_19  and  C_20 
REMARK    8  A    between atoms: C_20  and  N_21 
ROOT
HETATM    1  C   UNL     1       8.809  31.650  59.410  1.00  0.00     0.252 C 
HETATM    2  N   UNL     1       8.264  30.594  58.708  1.00  0.00    -0.353 N 
HETATM    3  O   UNL     1       9.784  32.283  59.025  1.00  0.00    -0.268 OA
HETATM    4  H   UNL     1       7.545  30.022  59.127  1.00  0.00     0.163 HD
ENDROOT
BRANCH   1   5
HETATM    5  C   UNL     1       8.166  31.981  60.711  1.00  0.00     0.034 A 
HETATM    6  C   UNL     1       6.773  32.109  60.751  1.00  0.00     0.053 A 
HETATM    7  C   UNL     1       6.118  32.378  61.955  1.00  0.00     0.070 A 
HETATM    8  C   UNL     1       6.864  32.542  63.123  1.00  0.00     0.037 A 
HETATM    9  C   UNL     1       8.254  32.405  63.091  1.00  0.00     0.004 A 
HETATM   10  C   UNL     1       8.906  32.117  61.890  1.00  0.00     0.017 A 
BRANCH   7  11
HETATM   11  O   UNL     1       4.759  32.480  61.861  1.00  0.00    -0.346 OA
BRANCH  11  12
HETATM   12  C   UNL     1       4.143  33.550  62.587  1.00  0.00     0.219 C 
BRANCH  12  13
HETATM   13  C   UNL     1       4.331  34.840  61.872  1.00  0.00     0.024 A 
HETATM   14  C   UNL     1       4.991  36.017  62.318  1.00  0.00     0.069 A 
HETATM   15  C   UNL     1       5.671  36.263  63.612  1.00  0.00     0.073 C 
HETATM   16  N   UNL     1       4.948  36.983  61.394  1.00  0.00    -0.133 NA
HETATM   17  O   UNL     1       4.255  36.453  60.325  1.00  0.00    -0.217 OA
HETATM   18  C   UNL     1       3.884  35.178  60.613  1.00  0.00     0.085 A 
HETATM   19  C   UNL     1       3.129  34.461  59.567  1.00  0.00     0.079 C 
ENDBRANCH  12  13
ENDBRANCH  11  12
ENDBRANCH   7  11
ENDBRANCH   1   5
BRANCH   2  20
HETATM   20  C   UNL     1       8.743  30.237  57.393  1.00  0.00     0.161 C 
BRANCH  20  21
HETATM   21  C   UNL     1       8.240  28.910  56.863  1.00  0.00    -0.041 A 
HETATM   22  C   UNL     1       7.987  27.801  57.678  1.00  0.00     0.009 A 
HETATM   23  C   UNL     1       7.550  26.592  57.127  1.00  0.00     0.009 A 
HETATM   24  C   UNL     1       7.354  26.467  55.744  1.00  0.00    -0.033 A 
HETATM   25  C   UNL     1       7.576  27.584  54.929  1.00  0.00     0.009 A 
HETATM   26  C   UNL     1       8.011  28.790  55.484  1.00  0.00     0.009 A 
BRANCH  24  27
HETATM   27  C   UNL     1       6.916  25.158  55.148  1.00  0.00     0.273 C 
BRANCH  27  28
HETATM   28  N   UNL     1       8.036  24.414  54.470  1.00  0.00    -0.067 N 
HETATM   29  H   UNL     1       8.853  25.037  54.498  1.00  0.00     0.280 HD
HETATM   30  C   UNL     1       7.755  24.090  53.016  1.00  0.00     0.235 C 
HETATM   31  C   UNL     1       7.723  22.576  52.962  1.00  0.00     0.029 C 
HETATM   32  C   UNL     1       8.738  22.174  54.011  1.00  0.00     0.029 C 
HETATM   33  C   UNL     1       8.432  23.121  55.156  1.00  0.00     0.235 C 
ENDBRANCH  27  28
ENDBRANCH  24  27
ENDBRANCH  20  21
ENDBRANCH   2  20
TORSDOF 8
ENDMDL
