MODEL 1
REMARK VINA RESULT:     -10.1      0.000      0.000
REMARK  8 active torsions:
REMARK  status: ('A' for Active; 'I' for Inactive)
REMARK    1  A    between atoms: C_5  and  S_6 
REMARK    2  A    between atoms: S_6  and  C_7 
REMARK    3  A    between atoms: C_7  and  C_8 
REMARK       I    between atoms: C_8  and  N_9 
REMARK    4  A    between atoms: N_9  and  N_10 
REMARK       I    between atoms: N_10  and  C_11 
REMARK    5  A    between atoms: C_11  and  C_12 
REMARK    6  A    between atoms: C_15  and  O_16 
REMARK    7  A    between atoms: C_23  and  C_24 
REMARK    8  A    between atoms: C_24  and  C_25 
ROOT
HETATM    1  C   UNL     1       7.109  28.554  56.980  1.00  0.00     0.187 C 
ENDROOT
BRANCH   1   2
HETATM    2  S   UNL     1       5.549  27.659  56.774  1.00  0.00    -0.083 SA
BRANCH   2   3
HETATM    3  C   UNL     1       5.908  26.648  55.423  1.00  0.00     0.167 A 
HETATM    4  N   UNL     1       4.931  26.181  54.595  1.00  0.00    -0.337 N 
HETATM    5  C   UNL     1       5.525  25.367  53.663  1.00  0.00     0.032 A 
HETATM    6  H   UNL     1       3.952  26.436  54.646  1.00  0.00     0.168 HD
HETATM    7  C   UNL     1       4.765  24.687  52.594  1.00  0.00     0.070 C 
HETATM    8  C   UNL     1       6.871  25.372  53.999  1.00  0.00     0.063 A 
HETATM    9  N   UNL     1       7.091  26.202  55.084  1.00  0.00    -0.227 NA
BRANCH   8  10
HETATM   10  C   UNL     1       8.009  24.665  53.344  1.00  0.00     0.100 C 
BRANCH  10  11
HETATM   11  C   UNL     1       7.938  23.229  53.803  1.00  0.00    -0.052 A 
HETATM   12  C   UNL     1       7.937  22.175  52.877  1.00  0.00     0.007 A 
HETATM   13  C   UNL     1       7.871  20.849  53.311  1.00  0.00     0.001 A 
HETATM   14  C   UNL     1       7.809  20.562  54.674  1.00  0.00     0.000 A 
HETATM   15  C   UNL     1       7.807  21.599  55.604  1.00  0.00     0.001 A 
HETATM   16  C   UNL     1       7.870  22.924  55.172  1.00  0.00     0.007 A 
ENDBRANCH  10  11
ENDBRANCH   8  10
ENDBRANCH   2   3
ENDBRANCH   1   2
BRANCH   1  17
HETATM   17  C   UNL     1       6.880  29.818  57.784  1.00  0.00     0.245 C 
HETATM   18  N   UNL     1       7.592  29.894  58.966  1.00  0.00    -0.267 N 
HETATM   19  H   UNL     1       7.907  29.045  59.442  1.00  0.00     0.190 HD
HETATM   20  O   UNL     1       6.110  30.715  57.429  1.00  0.00    -0.271 OA
BRANCH  18  21
HETATM   21  N   UNL     1       7.268  30.962  59.826  1.00  0.00    -0.263 N 
HETATM   22  C   UNL     1       8.076  31.150  60.933  1.00  0.00     0.270 C 
HETATM   23  O   UNL     1       9.128  30.537  61.090  1.00  0.00    -0.266 OA
HETATM   24  H   UNL     1       6.280  31.210  59.850  1.00  0.00     0.190 HD
BRANCH  22  25
HETATM   25  C   UNL     1       7.578  32.111  61.956  1.00  0.00     0.033 A 
HETATM   26  C   UNL     1       6.498  32.936  61.628  1.00  0.00     0.020 A 
HETATM   27  C   UNL     1       6.010  33.855  62.561  1.00  0.00     0.038 A 
HETATM   28  C   UNL     1       6.586  33.957  63.830  1.00  0.00     0.068 A 
HETATM   29  C   UNL     1       7.654  33.125  64.164  1.00  0.00     0.038 A 
HETATM   30  C   UNL     1       8.147  32.201  63.234  1.00  0.00     0.020 A 
BRANCH  28  31
HETATM   31  O   UNL     1       6.015  34.896  64.643  1.00  0.00    -0.356 OA
HETATM   32  C   UNL     1       5.351  34.424  65.810  1.00  0.00     0.210 C 
ENDBRANCH  28  31
ENDBRANCH  22  25
ENDBRANCH  18  21
ENDBRANCH   1  17
TORSDOF 8
ENDMDL
MODEL 2
REMARK VINA RESULT:     -10.0      1.550      1.781
REMARK  8 active torsions:
REMARK  status: ('A' for Active; 'I' for Inactive)
REMARK    1  A    between atoms: C_5  and  S_6 
REMARK    2  A    between atoms: S_6  and  C_7 
REMARK    3  A    between atoms: C_7  and  C_8 
REMARK       I    between atoms: C_8  and  N_9 
REMARK    4  A    between atoms: N_9  and  N_10 
REMARK       I    between atoms: N_10  and  C_11 
REMARK    5  A    between atoms: C_11  and  C_12 
REMARK    6  A    between atoms: C_15  and  O_16 
REMARK    7  A    between atoms: C_23  and  C_24 
REMARK    8  A    between atoms: C_24  and  C_25 
ROOT
HETATM    1  C   UNL     1       8.572  28.825  57.692  1.00  0.00     0.187 C 
ENDROOT
BRANCH   1   2
HETATM    2  S   UNL     1       8.689  29.383  55.973  1.00  0.00    -0.083 SA
BRANCH   2   3
HETATM    3  C   UNL     1       7.763  28.177  55.156  1.00  0.00     0.167 A 
HETATM    4  N   UNL     1       7.344  28.342  53.870  1.00  0.00    -0.337 N 
HETATM    5  C   UNL     1       6.591  27.245  53.532  1.00  0.00     0.032 A 
HETATM    6  H   UNL     1       7.593  29.119  53.271  1.00  0.00     0.168 HD
HETATM    7  C   UNL     1       5.974  27.079  52.199  1.00  0.00     0.070 C 
HETATM    8  C   UNL     1       6.579  26.460  54.675  1.00  0.00     0.063 A 
HETATM    9  N   UNL     1       7.343  27.048  55.668  1.00  0.00    -0.227 NA
BRANCH   8  10
HETATM   10  C   UNL     1       5.917  25.144  54.908  1.00  0.00     0.100 C 
BRANCH  10  11
HETATM   11  C   UNL     1       6.921  24.087  54.515  1.00  0.00    -0.052 A 
HETATM   12  C   UNL     1       7.006  23.629  53.192  1.00  0.00     0.007 A 
HETATM   13  C   UNL     1       7.937  22.652  52.838  1.00  0.00     0.001 A 
HETATM   14  C   UNL     1       8.797  22.123  53.801  1.00  0.00     0.000 A 
HETATM   15  C   UNL     1       8.722  22.567  55.118  1.00  0.00     0.001 A 
HETATM   16  C   UNL     1       7.790  23.542  55.475  1.00  0.00     0.007 A 
ENDBRANCH  10  11
ENDBRANCH   8  10
ENDBRANCH   2   3
ENDBRANCH   1   2
BRANCH   1  17
HETATM   17  C   UNL     1       7.863  29.870  58.529  1.00  0.00     0.245 C 
HETATM   18  N   UNL     1       8.335  30.001  59.821  1.00  0.00    -0.267 N 
HETATM   19  H   UNL     1       8.811  29.224  60.284  1.00  0.00     0.190 HD
HETATM   20  O   UNL     1       6.925  30.553  58.106  1.00  0.00    -0.271 OA
BRANCH  18  21
HETATM   21  N   UNL     1       7.586  30.826  60.683  1.00  0.00    -0.263 N 
HETATM   22  C   UNL     1       8.262  31.425  61.730  1.00  0.00     0.270 C 
HETATM   23  O   UNL     1       9.484  31.391  61.828  1.00  0.00    -0.266 OA
HETATM   24  H   UNL     1       6.601  30.578  60.767  1.00  0.00     0.190 HD
BRANCH  22  25
HETATM   25  C   UNL     1       7.418  32.081  62.768  1.00  0.00     0.033 A 
HETATM   26  C   UNL     1       6.032  31.906  62.712  1.00  0.00     0.020 A 
HETATM   27  C   UNL     1       5.210  32.514  63.664  1.00  0.00     0.038 A 
HETATM   28  C   UNL     1       5.757  33.295  64.686  1.00  0.00     0.068 A 
HETATM   29  C   UNL     1       7.141  33.458  64.753  1.00  0.00     0.038 A 
HETATM   30  C   UNL     1       7.971  32.851  63.801  1.00  0.00     0.020 A 
BRANCH  28  31
HETATM   31  O   UNL     1       4.843  33.832  65.547  1.00  0.00    -0.356 OA
HETATM   32  C   UNL     1       5.323  34.258  66.817  1.00  0.00     0.210 C 
ENDBRANCH  28  31
ENDBRANCH  22  25
ENDBRANCH  18  21
ENDBRANCH   1  17
TORSDOF 8
ENDMDL
MODEL 3
REMARK VINA RESULT:      -9.4      3.141     10.593
REMARK  8 active torsions:
REMARK  status: ('A' for Active; 'I' for Inactive)
REMARK    1  A    between atoms: C_5  and  S_6 
REMARK    2  A    between atoms: S_6  and  C_7 
REMARK    3  A    between atoms: C_7  and  C_8 
REMARK       I    between atoms: C_8  and  N_9 
REMARK    4  A    between atoms: N_9  and  N_10 
REMARK       I    between atoms: N_10  and  C_11 
REMARK    5  A    between atoms: C_11  and  C_12 
REMARK    6  A    between atoms: C_15  and  O_16 
REMARK    7  A    between atoms: C_23  and  C_24 
REMARK    8  A    between atoms: C_24  and  C_25 
ROOT
HETATM    1  C   UNL     1       4.748  29.787  55.458  1.00  0.00     0.187 C 
ENDROOT
BRANCH   1   2
HETATM    2  S   UNL     1       4.880  29.633  57.258  1.00  0.00    -0.083 SA
BRANCH   2   3
HETATM    3  C   UNL     1       6.553  29.973  57.510  1.00  0.00     0.167 A 
HETATM    4  N   UNL     1       7.533  29.179  56.994  1.00  0.00    -0.337 N 
HETATM    5  C   UNL     1       8.741  29.677  57.415  1.00  0.00     0.032 A 
HETATM    6  H   UNL     1       7.381  28.393  56.373  1.00  0.00     0.168 HD
HETATM    7  C   UNL     1      10.033  29.066  57.039  1.00  0.00     0.070 C 
HETATM    8  C   UNL     1       8.415  30.769  58.205  1.00  0.00     0.063 A 
HETATM    9  N   UNL     1       7.043  30.953  58.226  1.00  0.00    -0.227 NA
BRANCH   8  10
HETATM   10  C   UNL     1       9.315  31.705  58.938  1.00  0.00     0.100 C 
BRANCH  10  11
HETATM   11  C   UNL     1       8.866  31.688  60.379  1.00  0.00    -0.052 A 
HETATM   12  C   UNL     1       8.119  32.747  60.914  1.00  0.00     0.007 A 
HETATM   13  C   UNL     1       7.707  32.722  62.248  1.00  0.00     0.001 A 
HETATM   14  C   UNL     1       8.034  31.637  63.061  1.00  0.00     0.000 A 
HETATM   15  C   UNL     1       8.778  30.580  62.543  1.00  0.00     0.001 A 
HETATM   16  C   UNL     1       9.192  30.604  61.211  1.00  0.00     0.007 A 
ENDBRANCH  10  11
ENDBRANCH   8  10
ENDBRANCH   2   3
ENDBRANCH   1   2
BRANCH   1  17
HETATM   17  C   UNL     1       4.998  28.444  54.803  1.00  0.00     0.245 C 
HETATM   18  N   UNL     1       4.803  27.350  55.625  1.00  0.00    -0.267 N 
HETATM   19  H   UNL     1       4.887  27.438  56.640  1.00  0.00     0.190 HD
HETATM   20  O   UNL     1       5.359  28.320  53.629  1.00  0.00    -0.271 OA
BRANCH  18  21
HETATM   21  N   UNL     1       5.201  26.100  55.111  1.00  0.00    -0.263 N 
HETATM   22  C   UNL     1       6.431  25.612  55.515  1.00  0.00     0.270 C 
HETATM   23  O   UNL     1       7.086  26.142  56.407  1.00  0.00    -0.266 OA
HETATM   24  H   UNL     1       4.824  25.873  54.192  1.00  0.00     0.190 HD
BRANCH  22  25
HETATM   25  C   UNL     1       6.944  24.426  54.775  1.00  0.00     0.033 A 
HETATM   26  C   UNL     1       7.222  23.259  55.493  1.00  0.00     0.020 A 
HETATM   27  C   UNL     1       7.712  22.130  54.832  1.00  0.00     0.038 A 
HETATM   28  C   UNL     1       7.924  22.146  53.451  1.00  0.00     0.068 A 
HETATM   29  C   UNL     1       7.633  23.305  52.731  1.00  0.00     0.038 A 
HETATM   30  C   UNL     1       7.140  24.441  53.387  1.00  0.00     0.020 A 
BRANCH  28  31
HETATM   31  O   UNL     1       8.408  20.978  52.932  1.00  0.00    -0.356 OA
HETATM   32  C   UNL     1       8.840  19.989  53.859  1.00  0.00     0.210 C 
ENDBRANCH  28  31
ENDBRANCH  22  25
ENDBRANCH  18  21
ENDBRANCH   1  17
TORSDOF 8
ENDMDL
MODEL 4
REMARK VINA RESULT:      -9.0      1.667      1.923
REMARK  8 active torsions:
REMARK  status: ('A' for Active; 'I' for Inactive)
REMARK    1  A    between atoms: C_5  and  S_6 
REMARK    2  A    between atoms: S_6  and  C_7 
REMARK    3  A    between atoms: C_7  and  C_8 
REMARK       I    between atoms: C_8  and  N_9 
REMARK    4  A    between atoms: N_9  and  N_10 
REMARK       I    between atoms: N_10  and  C_11 
REMARK    5  A    between atoms: C_11  and  C_12 
REMARK    6  A    between atoms: C_15  and  O_16 
REMARK    7  A    between atoms: C_23  and  C_24 
REMARK    8  A    between atoms: C_24  and  C_25 
ROOT
HETATM    1  C   UNL     1       4.381  28.676  56.182  1.00  0.00     0.187 C 
ENDROOT
BRANCH   1   2
HETATM    2  S   UNL     1       5.928  27.854  56.642  1.00  0.00    -0.083 SA
BRANCH   2   3
HETATM    3  C   UNL     1       6.141  26.759  55.325  1.00  0.00     0.167 A 
HETATM    4  N   UNL     1       5.084  26.285  54.608  1.00  0.00    -0.337 N 
HETATM    5  C   UNL     1       5.572  25.401  53.678  1.00  0.00     0.032 A 
HETATM    6  H   UNL     1       4.121  26.577  54.724  1.00  0.00     0.168 HD
HETATM    7  C   UNL     1       4.704  24.692  52.715  1.00  0.00     0.070 C 
HETATM    8  C   UNL     1       6.941  25.374  53.902  1.00  0.00     0.063 A 
HETATM    9  N   UNL     1       7.277  26.253  54.917  1.00  0.00    -0.227 NA
BRANCH   8  10
HETATM   10  C   UNL     1       7.997  24.592  53.198  1.00  0.00     0.100 C 
BRANCH  10  11
HETATM   11  C   UNL     1       7.928  23.189  53.751  1.00  0.00    -0.052 A 
HETATM   12  C   UNL     1       7.917  22.077  52.898  1.00  0.00     0.007 A 
HETATM   13  C   UNL     1       7.853  20.783  53.418  1.00  0.00     0.001 A 
HETATM   14  C   UNL     1       7.801  20.586  54.798  1.00  0.00     0.000 A 
HETATM   15  C   UNL     1       7.808  21.682  55.657  1.00  0.00     0.001 A 
HETATM   16  C   UNL     1       7.870  22.976  55.139  1.00  0.00     0.007 A 
ENDBRANCH  10  11
ENDBRANCH   8  10
ENDBRANCH   2   3
ENDBRANCH   1   2
BRANCH   1  17
HETATM   17  C   UNL     1       4.175  29.909  57.038  1.00  0.00     0.245 C 
HETATM   18  N   UNL     1       5.166  30.143  57.971  1.00  0.00    -0.267 N 
HETATM   19  H   UNL     1       5.743  29.375  58.325  1.00  0.00     0.190 HD
HETATM   20  O   UNL     1       3.195  30.652  56.930  1.00  0.00    -0.271 OA
BRANCH  18  21
HETATM   21  N   UNL     1       4.920  31.169  58.905  1.00  0.00    -0.263 N 
HETATM   22  C   UNL     1       5.959  32.042  59.174  1.00  0.00     0.270 C 
HETATM   23  O   UNL     1       6.998  32.047  58.521  1.00  0.00    -0.266 OA
HETATM   24  H   UNL     1       4.226  30.945  59.617  1.00  0.00     0.190 HD
BRANCH  22  25
HETATM   25  C   UNL     1       5.769  32.954  60.336  1.00  0.00     0.033 A 
HETATM   26  C   UNL     1       4.612  33.739  60.387  1.00  0.00     0.020 A 
HETATM   27  C   UNL     1       4.405  34.611  61.459  1.00  0.00     0.038 A 
HETATM   28  C   UNL     1       5.340  34.707  62.493  1.00  0.00     0.068 A 
HETATM   29  C   UNL     1       6.487  33.914  62.451  1.00  0.00     0.038 A 
HETATM   30  C   UNL     1       6.701  33.037  61.379  1.00  0.00     0.020 A 
BRANCH  28  31
HETATM   31  O   UNL     1       5.016  35.599  63.476  1.00  0.00    -0.356 OA
HETATM   32  C   UNL     1       3.805  36.327  63.316  1.00  0.00     0.210 C 
ENDBRANCH  28  31
ENDBRANCH  22  25
ENDBRANCH  18  21
ENDBRANCH   1  17
TORSDOF 8
ENDMDL
MODEL 5
REMARK VINA RESULT:      -8.9      1.429      2.315
REMARK  8 active torsions:
REMARK  status: ('A' for Active; 'I' for Inactive)
REMARK    1  A    between atoms: C_5  and  S_6 
REMARK    2  A    between atoms: S_6  and  C_7 
REMARK    3  A    between atoms: C_7  and  C_8 
REMARK       I    between atoms: C_8  and  N_9 
REMARK    4  A    between atoms: N_9  and  N_10 
REMARK       I    between atoms: N_10  and  C_11 
REMARK    5  A    between atoms: C_11  and  C_12 
REMARK    6  A    between atoms: C_15  and  O_16 
REMARK    7  A    between atoms: C_23  and  C_24 
REMARK    8  A    between atoms: C_24  and  C_25 
ROOT
HETATM    1  C   UNL     1       7.530  28.849  56.833  1.00  0.00     0.187 C 
ENDROOT
BRANCH   1   2
HETATM    2  S   UNL     1       5.837  28.581  56.248  1.00  0.00    -0.083 SA
BRANCH   2   3
HETATM    3  C   UNL     1       6.071  27.340  55.073  1.00  0.00     0.167 A 
HETATM    4  N   UNL     1       5.022  26.696  54.488  1.00  0.00    -0.337 N 
HETATM    5  C   UNL     1       5.533  25.736  53.652  1.00  0.00     0.032 A 
HETATM    6  H   UNL     1       4.046  26.929  54.625  1.00  0.00     0.168 HD
HETATM    7  C   UNL     1       4.678  24.842  52.843  1.00  0.00     0.070 C 
HETATM    8  C   UNL     1       6.909  25.842  53.793  1.00  0.00     0.063 A 
HETATM    9  N   UNL     1       7.223  26.870  54.664  1.00  0.00    -0.227 NA
BRANCH   8  10
HETATM   10  C   UNL     1       7.988  25.054  53.132  1.00  0.00     0.100 C 
BRANCH  10  11
HETATM   11  C   UNL     1       7.944  23.674  53.744  1.00  0.00    -0.052 A 
HETATM   12  C   UNL     1       7.967  23.502  55.136  1.00  0.00     0.007 A 
HETATM   13  C   UNL     1       7.926  22.222  55.693  1.00  0.00     0.001 A 
HETATM   14  C   UNL     1       7.858  21.101  54.866  1.00  0.00     0.000 A 
HETATM   15  C   UNL     1       7.836  21.258  53.483  1.00  0.00     0.001 A 
HETATM   16  C   UNL     1       7.879  22.536  52.924  1.00  0.00     0.007 A 
ENDBRANCH  10  11
ENDBRANCH   8  10
ENDBRANCH   2   3
ENDBRANCH   1   2
BRANCH   1  17
HETATM   17  C   UNL     1       7.512  29.635  58.128  1.00  0.00     0.245 C 
HETATM   18  N   UNL     1       6.368  30.379  58.343  1.00  0.00    -0.267 N 
HETATM   19  H   UNL     1       5.792  30.691  57.557  1.00  0.00     0.190 HD
HETATM   20  O   UNL     1       8.447  29.631  58.935  1.00  0.00    -0.271 OA
BRANCH  18  21
HETATM   21  N   UNL     1       6.390  31.263  59.440  1.00  0.00    -0.263 N 
HETATM   22  C   UNL     1       5.263  32.036  59.653  1.00  0.00     0.270 C 
HETATM   23  O   UNL     1       4.218  31.858  59.033  1.00  0.00    -0.266 OA
HETATM   24  H   UNL     1       7.315  31.603  59.699  1.00  0.00     0.190 HD
BRANCH  22  25
HETATM   25  C   UNL     1       5.396  33.134  60.649  1.00  0.00     0.033 A 
HETATM   26  C   UNL     1       6.334  32.995  61.677  1.00  0.00     0.020 A 
HETATM   27  C   UNL     1       6.480  34.002  62.634  1.00  0.00     0.038 A 
HETATM   28  C   UNL     1       5.701  35.161  62.575  1.00  0.00     0.068 A 
HETATM   29  C   UNL     1       4.775  35.309  61.543  1.00  0.00     0.038 A 
HETATM   30  C   UNL     1       4.624  34.302  60.579  1.00  0.00     0.020 A 
BRANCH  28  31
HETATM   31  O   UNL     1       5.943  36.063  63.572  1.00  0.00    -0.356 OA
HETATM   32  C   UNL     1       5.844  37.442  63.234  1.00  0.00     0.210 C 
ENDBRANCH  28  31
ENDBRANCH  22  25
ENDBRANCH  18  21
ENDBRANCH   1  17
TORSDOF 8
ENDMDL
MODEL 6
REMARK VINA RESULT:      -8.9      1.536      2.102
REMARK  8 active torsions:
REMARK  status: ('A' for Active; 'I' for Inactive)
REMARK    1  A    between atoms: C_5  and  S_6 
REMARK    2  A    between atoms: S_6  and  C_7 
REMARK    3  A    between atoms: C_7  and  C_8 
REMARK       I    between atoms: C_8  and  N_9 
REMARK    4  A    between atoms: N_9  and  N_10 
REMARK       I    between atoms: N_10  and  C_11 
REMARK    5  A    between atoms: C_11  and  C_12 
REMARK    6  A    between atoms: C_15  and  O_16 
REMARK    7  A    between atoms: C_23  and  C_24 
REMARK    8  A    between atoms: C_24  and  C_25 
ROOT
HETATM    1  C   UNL     1       5.679  30.365  56.024  1.00  0.00     0.187 C 
ENDROOT
BRANCH   1   2
HETATM    2  S   UNL     1       7.228  29.428  55.992  1.00  0.00    -0.083 SA
BRANCH   2   3
HETATM    3  C   UNL     1       6.803  28.093  54.985  1.00  0.00     0.167 A 
HETATM    4  N   UNL     1       6.832  28.181  53.626  1.00  0.00    -0.337 N 
HETATM    5  C   UNL     1       6.388  26.984  53.119  1.00  0.00     0.032 A 
HETATM    6  H   UNL     1       7.168  28.979  53.099  1.00  0.00     0.168 HD
HETATM    7  C   UNL     1       6.292  26.716  51.669  1.00  0.00     0.070 C 
HETATM    8  C   UNL     1       6.088  26.219  54.236  1.00  0.00     0.063 A 
HETATM    9  N   UNL     1       6.382  26.922  55.391  1.00  0.00    -0.227 NA
BRANCH   8  10
HETATM   10  C   UNL     1       5.562  24.826  54.311  1.00  0.00     0.100 C 
BRANCH  10  11
HETATM   11  C   UNL     1       6.767  23.916  54.307  1.00  0.00    -0.052 A 
HETATM   12  C   UNL     1       7.457  23.629  55.493  1.00  0.00     0.007 A 
HETATM   13  C   UNL     1       8.570  22.786  55.481  1.00  0.00     0.001 A 
HETATM   14  C   UNL     1       9.004  22.219  54.282  1.00  0.00     0.000 A 
HETATM   15  C   UNL     1       8.329  22.497  53.097  1.00  0.00     0.001 A 
HETATM   16  C   UNL     1       7.218  23.341  53.107  1.00  0.00     0.007 A 
ENDBRANCH  10  11
ENDBRANCH   8  10
ENDBRANCH   2   3
ENDBRANCH   1   2
BRANCH   1  17
HETATM   17  C   UNL     1       5.593  31.181  57.298  1.00  0.00     0.245 C 
HETATM   18  N   UNL     1       6.327  30.685  58.358  1.00  0.00    -0.267 N 
HETATM   19  H   UNL     1       6.561  29.691  58.412  1.00  0.00     0.190 HD
HETATM   20  O   UNL     1       4.913  32.206  57.400  1.00  0.00    -0.271 OA
BRANCH  18  21
HETATM   21  N   UNL     1       6.128  31.308  59.606  1.00  0.00    -0.263 N 
HETATM   22  C   UNL     1       7.201  31.989  60.151  1.00  0.00     0.270 C 
HETATM   23  O   UNL     1       8.234  32.198  59.523  1.00  0.00    -0.266 OA
HETATM   24  H   UNL     1       5.431  30.864  60.202  1.00  0.00     0.190 HD
BRANCH  22  25
HETATM   25  C   UNL     1       7.055  32.421  61.569  1.00  0.00     0.033 A 
HETATM   26  C   UNL     1       8.183  32.399  62.394  1.00  0.00     0.020 A 
HETATM   27  C   UNL     1       8.081  32.790  63.732  1.00  0.00     0.038 A 
HETATM   28  C   UNL     1       6.859  33.213  64.260  1.00  0.00     0.068 A 
HETATM   29  C   UNL     1       5.735  33.251  63.435  1.00  0.00     0.038 A 
HETATM   30  C   UNL     1       5.831  32.861  62.092  1.00  0.00     0.020 A 
BRANCH  28  31
HETATM   31  O   UNL     1       6.897  33.565  65.580  1.00  0.00    -0.356 OA
HETATM   32  C   UNL     1       5.744  34.206  66.112  1.00  0.00     0.210 C 
ENDBRANCH  28  31
ENDBRANCH  22  25
ENDBRANCH  18  21
ENDBRANCH   1  17
TORSDOF 8
ENDMDL
MODEL 7
REMARK VINA RESULT:      -8.6      3.221     10.689
REMARK  8 active torsions:
REMARK  status: ('A' for Active; 'I' for Inactive)
REMARK    1  A    between atoms: C_5  and  S_6 
REMARK    2  A    between atoms: S_6  and  C_7 
REMARK    3  A    between atoms: C_7  and  C_8 
REMARK       I    between atoms: C_8  and  N_9 
REMARK    4  A    between atoms: N_9  and  N_10 
REMARK       I    between atoms: N_10  and  C_11 
REMARK    5  A    between atoms: C_11  and  C_12 
REMARK    6  A    between atoms: C_15  and  O_16 
REMARK    7  A    between atoms: C_23  and  C_24 
REMARK    8  A    between atoms: C_24  and  C_25 
ROOT
HETATM    1  C   UNL     1       3.806  29.725  56.272  1.00  0.00     0.187 C 
ENDROOT
BRANCH   1   2
HETATM    2  S   UNL     1       5.185  30.900  56.261  1.00  0.00    -0.083 SA
BRANCH   2   3
HETATM    3  C   UNL     1       5.130  31.509  57.874  1.00  0.00     0.167 A 
HETATM    4  N   UNL     1       4.037  31.338  58.671  1.00  0.00    -0.337 N 
HETATM    5  C   UNL     1       4.280  31.981  59.859  1.00  0.00     0.032 A 
HETATM    6  H   UNL     1       3.219  30.792  58.429  1.00  0.00     0.168 HD
HETATM    7  C   UNL     1       3.307  32.000  60.971  1.00  0.00     0.070 C 
HETATM    8  C   UNL     1       5.541  32.539  59.706  1.00  0.00     0.063 A 
HETATM    9  N   UNL     1       6.064  32.207  58.469  1.00  0.00    -0.227 NA
BRANCH   8  10
HETATM   10  C   UNL     1       6.332  33.357  60.669  1.00  0.00     0.100 C 
BRANCH  10  11
HETATM   11  C   UNL     1       7.477  32.486  61.126  1.00  0.00    -0.052 A 
HETATM   12  C   UNL     1       7.314  31.574  62.179  1.00  0.00     0.007 A 
HETATM   13  C   UNL     1       8.378  30.772  62.595  1.00  0.00     0.001 A 
HETATM   14  C   UNL     1       9.617  30.870  61.961  1.00  0.00     0.000 A 
HETATM   15  C   UNL     1       9.794  31.772  60.916  1.00  0.00     0.001 A 
HETATM   16  C   UNL     1       8.732  32.576  60.500  1.00  0.00     0.007 A 
ENDBRANCH  10  11
ENDBRANCH   8  10
ENDBRANCH   2   3
ENDBRANCH   1   2
BRANCH   1  17
HETATM   17  C   UNL     1       4.215  28.438  55.585  1.00  0.00     0.245 C 
HETATM   18  N   UNL     1       4.412  27.363  56.431  1.00  0.00    -0.267 N 
HETATM   19  H   UNL     1       4.657  27.510  57.413  1.00  0.00     0.190 HD
HETATM   20  O   UNL     1       4.376  28.344  54.365  1.00  0.00    -0.271 OA
BRANCH  18  21
HETATM   21  N   UNL     1       4.969  26.205  55.854  1.00  0.00    -0.263 N 
HETATM   22  C   UNL     1       6.226  25.824  56.289  1.00  0.00     0.270 C 
HETATM   23  O   UNL     1       6.777  26.354  57.248  1.00  0.00    -0.266 OA
HETATM   24  H   UNL     1       4.661  26.007  54.904  1.00  0.00     0.190 HD
BRANCH  22  25
HETATM   25  C   UNL     1       6.900  24.757  55.498  1.00  0.00     0.033 A 
HETATM   26  C   UNL     1       7.957  24.056  56.086  1.00  0.00     0.020 A 
HETATM   27  C   UNL     1       8.618  23.055  55.370  1.00  0.00     0.038 A 
HETATM   28  C   UNL     1       8.231  22.735  54.066  1.00  0.00     0.068 A 
HETATM   29  C   UNL     1       7.167  23.423  53.483  1.00  0.00     0.038 A 
HETATM   30  C   UNL     1       6.499  24.428  54.196  1.00  0.00     0.020 A 
BRANCH  28  31
HETATM   31  O   UNL     1       8.961  21.740  53.480  1.00  0.00    -0.356 OA
HETATM   32  C   UNL     1       8.248  20.596  53.025  1.00  0.00     0.210 C 
ENDBRANCH  28  31
ENDBRANCH  22  25
ENDBRANCH  18  21
ENDBRANCH   1  17
TORSDOF 8
ENDMDL
MODEL 8
REMARK VINA RESULT:      -8.5      2.784     12.258
REMARK  8 active torsions:
REMARK  status: ('A' for Active; 'I' for Inactive)
REMARK    1  A    between atoms: C_5  and  S_6 
REMARK    2  A    between atoms: S_6  and  C_7 
REMARK    3  A    between atoms: C_7  and  C_8 
REMARK       I    between atoms: C_8  and  N_9 
REMARK    4  A    between atoms: N_9  and  N_10 
REMARK       I    between atoms: N_10  and  C_11 
REMARK    5  A    between atoms: C_11  and  C_12 
REMARK    6  A    between atoms: C_15  and  O_16 
REMARK    7  A    between atoms: C_23  and  C_24 
REMARK    8  A    between atoms: C_24  and  C_25 
ROOT
HETATM    1  C   UNL     1       6.869  30.449  58.198  1.00  0.00     0.187 C 
ENDROOT
BRANCH   1   2
HETATM    2  S   UNL     1       8.251  31.368  58.925  1.00  0.00    -0.083 SA
BRANCH   2   3
HETATM    3  C   UNL     1       7.537  31.973  60.374  1.00  0.00     0.167 A 
HETATM    4  N   UNL     1       8.254  32.109  61.525  1.00  0.00    -0.337 N 
HETATM    5  C   UNL     1       7.398  32.554  62.502  1.00  0.00     0.032 A 
HETATM    6  H   UNL     1       9.250  31.949  61.614  1.00  0.00     0.168 HD
HETATM    7  C   UNL     1       7.835  32.821  63.888  1.00  0.00     0.070 C 
HETATM    8  C   UNL     1       6.165  32.649  61.873  1.00  0.00     0.063 A 
HETATM    9  N   UNL     1       6.283  32.308  60.537  1.00  0.00    -0.227 NA
BRANCH   8  10
HETATM   10  C   UNL     1       4.852  33.078  62.433  1.00  0.00     0.100 C 
BRANCH  10  11
HETATM   11  C   UNL     1       5.029  34.508  62.885  1.00  0.00    -0.052 A 
HETATM   12  C   UNL     1       5.487  35.493  61.998  1.00  0.00     0.007 A 
HETATM   13  C   UNL     1       5.648  36.813  62.424  1.00  0.00     0.001 A 
HETATM   14  C   UNL     1       5.351  37.163  63.742  1.00  0.00     0.000 A 
HETATM   15  C   UNL     1       4.898  36.194  64.633  1.00  0.00     0.001 A 
HETATM   16  C   UNL     1       4.738  34.874  64.209  1.00  0.00     0.007 A 
ENDBRANCH  10  11
ENDBRANCH   8  10
ENDBRANCH   2   3
ENDBRANCH   1   2
BRANCH   1  17
HETATM   17  C   UNL     1       7.356  29.118  57.662  1.00  0.00     0.245 C 
HETATM   18  N   UNL     1       6.641  28.626  56.588  1.00  0.00    -0.267 N 
HETATM   19  H   UNL     1       5.668  28.904  56.436  1.00  0.00     0.190 HD
HETATM   20  O   UNL     1       8.311  28.503  58.146  1.00  0.00    -0.271 OA
BRANCH  18  21
HETATM   21  N   UNL     1       6.944  27.312  56.180  1.00  0.00    -0.263 N 
HETATM   22  C   UNL     1       7.474  27.149  54.913  1.00  0.00     0.270 C 
HETATM   23  O   UNL     1       7.828  28.099  54.222  1.00  0.00    -0.266 OA
HETATM   24  H   UNL     1       6.369  26.586  56.606  1.00  0.00     0.190 HD
BRANCH  22  25
HETATM   25  C   UNL     1       7.551  25.751  54.407  1.00  0.00     0.033 A 
HETATM   26  C   UNL     1       7.757  25.545  53.039  1.00  0.00     0.020 A 
HETATM   27  C   UNL     1       7.826  24.246  52.528  1.00  0.00     0.038 A 
HETATM   28  C   UNL     1       7.699  23.140  53.371  1.00  0.00     0.068 A 
HETATM   29  C   UNL     1       7.508  23.342  54.739  1.00  0.00     0.038 A 
HETATM   30  C   UNL     1       7.438  24.642  55.257  1.00  0.00     0.020 A 
BRANCH  28  31
HETATM   31  O   UNL     1       7.783  21.929  52.744  1.00  0.00    -0.356 OA
HETATM   32  C   UNL     1       7.836  20.773  53.572  1.00  0.00     0.210 C 
ENDBRANCH  28  31
ENDBRANCH  22  25
ENDBRANCH  18  21
ENDBRANCH   1  17
TORSDOF 8
ENDMDL
MODEL 9
REMARK VINA RESULT:      -8.5      1.755      2.764
REMARK  8 active torsions:
REMARK  status: ('A' for Active; 'I' for Inactive)
REMARK    1  A    between atoms: C_5  and  S_6 
REMARK    2  A    between atoms: S_6  and  C_7 
REMARK    3  A    between atoms: C_7  and  C_8 
REMARK       I    between atoms: C_8  and  N_9 
REMARK    4  A    between atoms: N_9  and  N_10 
REMARK       I    between atoms: N_10  and  C_11 
REMARK    5  A    between atoms: C_11  and  C_12 
REMARK    6  A    between atoms: C_15  and  O_16 
REMARK    7  A    between atoms: C_23  and  C_24 
REMARK    8  A    between atoms: C_24  and  C_25 
ROOT
HETATM    1  C   UNL     1       5.061  30.957  56.313  1.00  0.00     0.187 C 
ENDROOT
BRANCH   1   2
HETATM    2  S   UNL     1       3.964  29.518  56.384  1.00  0.00    -0.083 SA
BRANCH   2   3
HETATM    3  C   UNL     1       5.095  28.234  56.609  1.00  0.00     0.167 A 
HETATM    4  N   UNL     1       6.424  28.472  56.797  1.00  0.00    -0.337 N 
HETATM    5  C   UNL     1       7.058  27.258  56.885  1.00  0.00     0.032 A 
HETATM    6  H   UNL     1       6.844  29.388  56.896  1.00  0.00     0.168 HD
HETATM    7  C   UNL     1       8.515  27.130  57.097  1.00  0.00     0.070 C 
HETATM    8  C   UNL     1       6.048  26.321  56.723  1.00  0.00     0.063 A 
HETATM    9  N   UNL     1       4.826  26.954  56.581  1.00  0.00    -0.227 NA
BRANCH   8  10
HETATM   10  C   UNL     1       6.135  24.832  56.723  1.00  0.00     0.100 C 
BRANCH  10  11
HETATM   11  C   UNL     1       6.642  24.435  55.358  1.00  0.00    -0.052 A 
HETATM   12  C   UNL     1       7.801  23.659  55.217  1.00  0.00     0.007 A 
HETATM   13  C   UNL     1       8.263  23.296  53.950  1.00  0.00     0.001 A 
HETATM   14  C   UNL     1       7.570  23.703  52.810  1.00  0.00     0.000 A 
HETATM   15  C   UNL     1       6.418  24.476  52.936  1.00  0.00     0.001 A 
HETATM   16  C   UNL     1       5.957  24.841  54.201  1.00  0.00     0.007 A 
ENDBRANCH  10  11
ENDBRANCH   8  10
ENDBRANCH   2   3
ENDBRANCH   1   2
BRANCH   1  17
HETATM   17  C   UNL     1       5.004  31.718  57.622  1.00  0.00     0.245 C 
HETATM   18  N   UNL     1       6.235  32.054  58.154  1.00  0.00    -0.267 N 
HETATM   19  H   UNL     1       7.070  31.510  57.924  1.00  0.00     0.190 HD
HETATM   20  O   UNL     1       3.948  32.012  58.189  1.00  0.00    -0.271 OA
BRANCH  18  21
HETATM   21  N   UNL     1       6.229  32.596  59.455  1.00  0.00    -0.263 N 
HETATM   22  C   UNL     1       6.970  31.935  60.418  1.00  0.00     0.270 C 
HETATM   23  O   UNL     1       7.738  31.019  60.142  1.00  0.00    -0.266 OA
HETATM   24  H   UNL     1       5.384  33.108  59.703  1.00  0.00     0.190 HD
BRANCH  22  25
HETATM   25  C   UNL     1       6.753  32.368  61.827  1.00  0.00     0.033 A 
HETATM   26  C   UNL     1       5.441  32.522  62.284  1.00  0.00     0.020 A 
HETATM   27  C   UNL     1       5.200  32.935  63.597  1.00  0.00     0.038 A 
HETATM   28  C   UNL     1       6.260  33.190  64.471  1.00  0.00     0.068 A 
HETATM   29  C   UNL     1       7.570  33.023  64.021  1.00  0.00     0.038 A 
HETATM   30  C   UNL     1       7.818  32.609  62.706  1.00  0.00     0.020 A 
BRANCH  28  31
HETATM   31  O   UNL     1       5.886  33.588  65.723  1.00  0.00    -0.356 OA
HETATM   32  C   UNL     1       4.536  34.004  65.894  1.00  0.00     0.210 C 
ENDBRANCH  28  31
ENDBRANCH  22  25
ENDBRANCH  18  21
ENDBRANCH   1  17
TORSDOF 8
ENDMDL
MODEL 10
REMARK VINA RESULT:      -8.3      2.685     12.115
REMARK  8 active torsions:
REMARK  status: ('A' for Active; 'I' for Inactive)
REMARK    1  A    between atoms: C_5  and  S_6 
REMARK    2  A    between atoms: S_6  and  C_7 
REMARK    3  A    between atoms: C_7  and  C_8 
REMARK       I    between atoms: C_8  and  N_9 
REMARK    4  A    between atoms: N_9  and  N_10 
REMARK       I    between atoms: N_10  and  C_11 
REMARK    5  A    between atoms: C_11  and  C_12 
REMARK    6  A    between atoms: C_15  and  O_16 
REMARK    7  A    between atoms: C_23  and  C_24 
REMARK    8  A    between atoms: C_24  and  C_25 
ROOT
HETATM    1  C   UNL     1       7.081  30.651  58.487  1.00  0.00     0.187 C 
ENDROOT
BRANCH   1   2
HETATM    2  S   UNL     1       7.967  31.026  60.022  1.00  0.00    -0.083 SA
BRANCH   2   3
HETATM    3  C   UNL     1       6.862  32.094  60.805  1.00  0.00     0.167 A 
HETATM    4  N   UNL     1       5.517  31.877  60.786  1.00  0.00    -0.337 N 
HETATM    5  C   UNL     1       4.914  32.923  61.440  1.00  0.00     0.032 A 
HETATM    6  H   UNL     1       5.063  31.061  60.394  1.00  0.00     0.168 HD
HETATM    7  C   UNL     1       3.450  33.018  61.619  1.00  0.00     0.070 C 
HETATM    8  C   UNL     1       5.961  33.752  61.816  1.00  0.00     0.063 A 
HETATM    9  N   UNL     1       7.170  33.200  61.434  1.00  0.00    -0.227 NA
BRANCH   8  10
HETATM   10  C   UNL     1       5.919  35.045  62.558  1.00  0.00     0.100 C 
BRANCH  10  11
HETATM   11  C   UNL     1       5.771  34.693  64.018  1.00  0.00    -0.052 A 
HETATM   12  C   UNL     1       4.539  34.839  64.674  1.00  0.00     0.007 A 
HETATM   13  C   UNL     1       4.411  34.510  66.025  1.00  0.00     0.001 A 
HETATM   14  C   UNL     1       5.512  34.031  66.735  1.00  0.00     0.000 A 
HETATM   15  C   UNL     1       6.741  33.884  66.097  1.00  0.00     0.001 A 
HETATM   16  C   UNL     1       6.871  34.213  64.748  1.00  0.00     0.007 A 
ENDBRANCH  10  11
ENDBRANCH   8  10
ENDBRANCH   2   3
ENDBRANCH   1   2
BRANCH   1  17
HETATM   17  C   UNL     1       7.511  29.298  57.957  1.00  0.00     0.245 C 
HETATM   18  N   UNL     1       6.631  28.716  57.065  1.00  0.00    -0.267 N 
HETATM   19  H   UNL     1       5.638  28.960  57.076  1.00  0.00     0.190 HD
HETATM   20  O   UNL     1       8.559  28.741  58.295  1.00  0.00    -0.271 OA
BRANCH  18  21
HETATM   21  N   UNL     1       6.903  27.385  56.693  1.00  0.00    -0.263 N 
HETATM   22  C   UNL     1       7.286  27.159  55.383  1.00  0.00     0.270 C 
HETATM   23  O   UNL     1       7.546  28.075  54.609  1.00  0.00    -0.266 OA
HETATM   24  H   UNL     1       6.390  26.678  57.218  1.00  0.00     0.190 HD
BRANCH  22  25
HETATM   25  C   UNL     1       7.323  25.737  54.944  1.00  0.00     0.033 A 
HETATM   26  C   UNL     1       7.834  24.778  55.824  1.00  0.00     0.020 A 
HETATM   27  C   UNL     1       7.891  23.435  55.442  1.00  0.00     0.038 A 
HETATM   28  C   UNL     1       7.435  23.031  54.184  1.00  0.00     0.068 A 
HETATM   29  C   UNL     1       6.912  23.984  53.310  1.00  0.00     0.038 A 
HETATM   30  C   UNL     1       6.851  25.332  53.688  1.00  0.00     0.020 A 
BRANCH  28  31
HETATM   31  O   UNL     1       7.550  21.692  53.937  1.00  0.00    -0.356 OA
HETATM   32  C   UNL     1       8.831  21.216  53.540  1.00  0.00     0.210 C 
ENDBRANCH  28  31
ENDBRANCH  22  25
ENDBRANCH  18  21
ENDBRANCH   1  17
TORSDOF 8
ENDMDL
