MODEL 1
REMARK VINA RESULT:      -9.8      0.000      0.000
REMARK  5 active torsions:
REMARK  status: ('A' for Active; 'I' for Inactive)
REMARK    1  A    between atoms: C_9  and  C_10 
REMARK       I    between atoms: C_10  and  N_11 
REMARK    2  A    between atoms: N_11  and  C_12 
REMARK    3  A    between atoms: C_15  and  C_16 
REMARK    4  A    between atoms: C_16  and  C_17 
REMARK       I    between atoms: C_17  and  N_18 
REMARK    5  A    between atoms: N_18  and  C_19 
ROOT
HETATM    1  C   UNL     1       6.511  25.508  55.661  1.00  0.00     0.277 C 
HETATM    2  N   UNL     1       7.254  26.671  55.750  1.00  0.00    -0.322 N 
HETATM    3  O   UNL     1       5.579  25.183  56.388  1.00  0.00    -0.266 OA
HETATM    4  H   UNL     1       7.996  26.719  55.054  1.00  0.00     0.169 HD
ENDROOT
BRANCH   2   5
HETATM    5  C   UNL     1       6.989  27.822  56.509  1.00  0.00     0.035 A 
HETATM    6  C   UNL     1       5.927  28.692  56.264  1.00  0.00     0.030 A 
HETATM    7  C   UNL     1       5.819  29.897  56.971  1.00  0.00     0.010 A 
HETATM    8  C   UNL     1       6.773  30.248  57.934  1.00  0.00    -0.049 A 
HETATM    9  C   UNL     1       7.799  29.341  58.226  1.00  0.00     0.010 A 
HETATM   10  C   UNL     1       7.903  28.138  57.521  1.00  0.00     0.030 A 
BRANCH   8  11
HETATM   11  C   UNL     1       6.747  31.608  58.590  1.00  0.00     0.141 C 
BRANCH  11  12
HETATM   12  C   UNL     1       7.854  31.941  59.571  1.00  0.00     0.222 C 
HETATM   13  N   UNL     1       7.636  31.604  60.888  1.00  0.00    -0.357 N 
HETATM   14  H   UNL     1       6.723  31.252  61.148  1.00  0.00     0.162 HD
HETATM   15  O   UNL     1       8.920  32.405  59.167  1.00  0.00    -0.273 OA
BRANCH  13  16
HETATM   16  C   UNL     1       8.638  31.725  61.941  1.00  0.00     0.076 C 
HETATM   17  C   UNL     1       8.029  32.231  63.247  1.00  0.00     0.032 C 
HETATM   18  C   UNL     1       9.433  30.440  62.154  1.00  0.00     0.032 C 
ENDBRANCH  13  16
ENDBRANCH  11  12
ENDBRANCH   8  11
ENDBRANCH   2   5
BRANCH   1  19
HETATM   19  C   UNL     1       6.944  24.681  54.515  1.00  0.00     0.157 A 
HETATM   20  C   UNL     1       7.372  23.321  54.536  1.00  0.00     0.029 A 
HETATM   21  C   UNL     1       7.578  22.334  55.522  1.00  0.00     0.023 A 
HETATM   22  C   UNL     1       7.581  22.987  53.204  1.00  0.00     0.063 A 
HETATM   23  C   UNL     1       7.982  21.044  55.138  1.00  0.00    -0.061 A 
HETATM   24  C   UNL     1       8.204  19.976  56.170  1.00  0.00     0.048 C 
HETATM   25  C   UNL     1       8.176  20.750  53.782  1.00  0.00     0.009 A 
HETATM   26  C   UNL     1       7.982  21.715  52.787  1.00  0.00     0.032 A 
HETATM   27  N   UNL     1       7.303  24.124  52.499  1.00  0.00    -0.277 N 
HETATM   28  H   UNL     1       7.351  24.246  51.493  1.00  0.00     0.189 HD
HETATM   29  N   UNL     1       6.908  25.167  53.252  1.00  0.00    -0.168 NA
ENDBRANCH   1  19
TORSDOF 5
ENDMDL
MODEL 2
REMARK VINA RESULT:      -9.4      1.701      2.497
REMARK  5 active torsions:
REMARK  status: ('A' for Active; 'I' for Inactive)
REMARK    1  A    between atoms: C_9  and  C_10 
REMARK       I    between atoms: C_10  and  N_11 
REMARK    2  A    between atoms: N_11  and  C_12 
REMARK    3  A    between atoms: C_15  and  C_16 
REMARK    4  A    between atoms: C_16  and  C_17 
REMARK       I    between atoms: C_17  and  N_18 
REMARK    5  A    between atoms: N_18  and  C_19 
ROOT
HETATM    1  C   UNL     1       8.062  26.673  56.913  1.00  0.00     0.277 C 
HETATM    2  N   UNL     1       8.590  27.902  56.559  1.00  0.00    -0.322 N 
HETATM    3  O   UNL     1       7.844  26.276  58.052  1.00  0.00    -0.266 OA
HETATM    4  H   UNL     1       8.705  28.006  55.553  1.00  0.00     0.169 HD
ENDROOT
BRANCH   2   5
HETATM    5  C   UNL     1       8.780  29.036  57.364  1.00  0.00     0.035 A 
HETATM    6  C   UNL     1       9.973  29.757  57.432  1.00  0.00     0.030 A 
HETATM    7  C   UNL     1      10.129  30.785  58.371  1.00  0.00     0.010 A 
HETATM    8  C   UNL     1       9.092  31.107  59.256  1.00  0.00    -0.049 A 
HETATM    9  C   UNL     1       7.873  30.429  59.138  1.00  0.00     0.010 A 
HETATM   10  C   UNL     1       7.719  29.406  58.199  1.00  0.00     0.030 A 
BRANCH   8  11
HETATM   11  C   UNL     1       9.306  32.109  60.366  1.00  0.00     0.141 C 
BRANCH  11  12
HETATM   12  C   UNL     1       8.747  31.775  61.736  1.00  0.00     0.222 C 
HETATM   13  N   UNL     1       7.800  32.635  62.244  1.00  0.00    -0.357 N 
HETATM   14  H   UNL     1       7.602  33.487  61.734  1.00  0.00     0.162 HD
HETATM   15  O   UNL     1       9.076  30.732  62.300  1.00  0.00    -0.273 OA
BRANCH  13  16
HETATM   16  C   UNL     1       7.060  32.401  63.479  1.00  0.00     0.076 C 
HETATM   17  C   UNL     1       7.496  33.354  64.590  1.00  0.00     0.032 C 
HETATM   18  C   UNL     1       5.547  32.429  63.278  1.00  0.00     0.032 C 
ENDBRANCH  13  16
ENDBRANCH  11  12
ENDBRANCH   8  11
ENDBRANCH   2   5
BRANCH   1  19
HETATM   19  C   UNL     1       7.726  25.870  55.718  1.00  0.00     0.157 A 
HETATM   20  C   UNL     1       7.864  24.461  55.551  1.00  0.00     0.029 A 
HETATM   21  C   UNL     1       8.351  23.387  56.324  1.00  0.00     0.023 A 
HETATM   22  C   UNL     1       7.332  24.192  54.296  1.00  0.00     0.063 A 
HETATM   23  C   UNL     1       8.282  22.078  55.814  1.00  0.00    -0.061 A 
HETATM   24  C   UNL     1       8.790  20.919  56.621  1.00  0.00     0.048 C 
HETATM   25  C   UNL     1       7.732  21.854  54.546  1.00  0.00     0.009 A 
HETATM   26  C   UNL     1       7.248  22.905  53.759  1.00  0.00     0.032 A 
HETATM   27  N   UNL     1       6.948  25.406  53.799  1.00  0.00    -0.277 N 
HETATM   28  H   UNL     1       6.517  25.590  52.900  1.00  0.00     0.189 HD
HETATM   29  N   UNL     1       7.162  26.444  54.629  1.00  0.00    -0.168 NA
ENDBRANCH   1  19
TORSDOF 5
ENDMDL
MODEL 3
REMARK VINA RESULT:      -8.9      1.805     10.065
REMARK  5 active torsions:
REMARK  status: ('A' for Active; 'I' for Inactive)
REMARK    1  A    between atoms: C_9  and  C_10 
REMARK       I    between atoms: C_10  and  N_11 
REMARK    2  A    between atoms: N_11  and  C_12 
REMARK    3  A    between atoms: C_15  and  C_16 
REMARK    4  A    between atoms: C_16  and  C_17 
REMARK       I    between atoms: C_17  and  N_18 
REMARK    5  A    between atoms: N_18  and  C_19 
ROOT
HETATM    1  C   UNL     1       7.718  30.930  58.999  1.00  0.00     0.277 C 
HETATM    2  N   UNL     1       8.087  29.683  58.527  1.00  0.00    -0.322 N 
HETATM    3  O   UNL     1       7.117  31.796  58.373  1.00  0.00    -0.266 OA
HETATM    4  H   UNL     1       8.600  29.137  59.216  1.00  0.00     0.169 HD
ENDROOT
BRANCH   2   5
HETATM    5  C   UNL     1       7.680  29.039  57.348  1.00  0.00     0.035 A 
HETATM    6  C   UNL     1       6.629  28.124  57.279  1.00  0.00     0.030 A 
HETATM    7  C   UNL     1       6.382  27.413  56.097  1.00  0.00     0.010 A 
HETATM    8  C   UNL     1       7.185  27.608  54.966  1.00  0.00    -0.049 A 
HETATM    9  C   UNL     1       8.194  28.577  55.017  1.00  0.00     0.010 A 
HETATM   10  C   UNL     1       8.436  29.287  56.196  1.00  0.00     0.030 A 
BRANCH   8  11
HETATM   11  C   UNL     1       7.020  26.740  53.741  1.00  0.00     0.141 C 
BRANCH  11  12
HETATM   12  C   UNL     1       6.684  25.276  53.953  1.00  0.00     0.222 C 
HETATM   13  N   UNL     1       7.734  24.438  54.252  1.00  0.00    -0.357 N 
HETATM   14  H   UNL     1       8.674  24.813  54.214  1.00  0.00     0.162 HD
HETATM   15  O   UNL     1       5.512  24.903  53.943  1.00  0.00    -0.273 OA
BRANCH  13  16
HETATM   16  C   UNL     1       7.583  23.034  54.618  1.00  0.00     0.076 C 
HETATM   17  C   UNL     1       8.259  22.109  53.607  1.00  0.00     0.032 C 
HETATM   18  C   UNL     1       8.044  22.739  56.043  1.00  0.00     0.032 C 
ENDBRANCH  13  16
ENDBRANCH  11  12
ENDBRANCH   8  11
ENDBRANCH   2   5
BRANCH   1  19
HETATM   19  C   UNL     1       8.096  31.100  60.417  1.00  0.00     0.157 A 
HETATM   20  C   UNL     1       7.619  32.083  61.334  1.00  0.00     0.029 A 
HETATM   21  C   UNL     1       6.739  33.184  61.278  1.00  0.00     0.023 A 
HETATM   22  C   UNL     1       8.208  31.760  62.549  1.00  0.00     0.063 A 
HETATM   23  C   UNL     1       6.477  33.921  62.446  1.00  0.00    -0.061 A 
HETATM   24  C   UNL     1       5.541  35.094  62.412  1.00  0.00     0.048 C 
HETATM   25  C   UNL     1       7.090  33.557  63.651  1.00  0.00     0.009 A 
HETATM   26  C   UNL     1       7.970  32.471  63.728  1.00  0.00     0.032 A 
HETATM   27  N   UNL     1       8.990  30.669  62.294  1.00  0.00    -0.277 N 
HETATM   28  H   UNL     1       9.568  30.163  62.955  1.00  0.00     0.189 HD
HETATM   29  N   UNL     1       8.945  30.234  61.021  1.00  0.00    -0.168 NA
ENDBRANCH   1  19
TORSDOF 5
ENDMDL
MODEL 4
REMARK VINA RESULT:      -8.9      4.923      8.384
REMARK  5 active torsions:
REMARK  status: ('A' for Active; 'I' for Inactive)
REMARK    1  A    between atoms: C_9  and  C_10 
REMARK       I    between atoms: C_10  and  N_11 
REMARK    2  A    between atoms: N_11  and  C_12 
REMARK    3  A    between atoms: C_15  and  C_16 
REMARK    4  A    between atoms: C_16  and  C_17 
REMARK       I    between atoms: C_17  and  N_18 
REMARK    5  A    between atoms: N_18  and  C_19 
ROOT
HETATM    1  C   UNL     1       7.333  25.943  54.831  1.00  0.00     0.277 C 
HETATM    2  N   UNL     1       6.297  25.687  53.951  1.00  0.00    -0.322 N 
HETATM    3  O   UNL     1       7.956  26.994  54.936  1.00  0.00    -0.266 OA
HETATM    4  H   UNL     1       5.944  24.735  54.024  1.00  0.00     0.169 HD
ENDROOT
BRANCH   2   5
HETATM    5  C   UNL     1       5.578  26.597  53.160  1.00  0.00     0.035 A 
HETATM    6  C   UNL     1       4.632  27.492  53.661  1.00  0.00     0.030 A 
HETATM    7  C   UNL     1       3.850  28.261  52.788  1.00  0.00     0.010 A 
HETATM    8  C   UNL     1       4.004  28.145  51.402  1.00  0.00    -0.049 A 
HETATM    9  C   UNL     1       5.001  27.297  50.904  1.00  0.00     0.010 A 
HETATM   10  C   UNL     1       5.782  26.534  51.777  1.00  0.00     0.030 A 
BRANCH   8  11
HETATM   11  C   UNL     1       3.064  28.856  50.457  1.00  0.00     0.141 C 
BRANCH  11  12
HETATM   12  C   UNL     1       2.878  28.270  49.070  1.00  0.00     0.222 C 
HETATM   13  N   UNL     1       1.924  27.287  48.938  1.00  0.00    -0.357 N 
HETATM   14  H   UNL     1       1.474  26.938  49.775  1.00  0.00     0.162 HD
HETATM   15  O   UNL     1       3.499  28.734  48.114  1.00  0.00    -0.273 OA
BRANCH  13  16
HETATM   16  C   UNL     1       1.517  26.708  47.662  1.00  0.00     0.076 C 
HETATM   17  C   UNL     1       0.910  27.757  46.731  1.00  0.00     0.032 C 
HETATM   18  C   UNL     1       2.640  25.934  46.977  1.00  0.00     0.032 C 
ENDBRANCH  13  16
ENDBRANCH  11  12
ENDBRANCH   8  11
ENDBRANCH   2   5
BRANCH   1  19
HETATM   19  C   UNL     1       7.592  24.781  55.707  1.00  0.00     0.157 A 
HETATM   20  C   UNL     1       7.810  23.427  55.314  1.00  0.00     0.029 A 
HETATM   21  C   UNL     1       7.828  22.710  54.100  1.00  0.00     0.023 A 
HETATM   22  C   UNL     1       8.092  22.750  56.493  1.00  0.00     0.063 A 
HETATM   23  C   UNL     1       8.134  21.338  54.110  1.00  0.00    -0.061 A 
HETATM   24  C   UNL     1       8.162  20.555  52.830  1.00  0.00     0.048 C 
HETATM   25  C   UNL     1       8.417  20.697  55.322  1.00  0.00     0.009 A 
HETATM   26  C   UNL     1       8.400  21.388  56.539  1.00  0.00     0.032 A 
HETATM   27  N   UNL     1       8.004  23.691  57.481  1.00  0.00    -0.277 N 
HETATM   28  H   UNL     1       8.149  23.550  58.474  1.00  0.00     0.189 HD
HETATM   29  N   UNL     1       7.711  24.931  57.047  1.00  0.00    -0.168 NA
ENDBRANCH   1  19
TORSDOF 5
ENDMDL
MODEL 5
REMARK VINA RESULT:      -8.9      2.369      3.640
REMARK  5 active torsions:
REMARK  status: ('A' for Active; 'I' for Inactive)
REMARK    1  A    between atoms: C_9  and  C_10 
REMARK       I    between atoms: C_10  and  N_11 
REMARK    2  A    between atoms: N_11  and  C_12 
REMARK    3  A    between atoms: C_15  and  C_16 
REMARK    4  A    between atoms: C_16  and  C_17 
REMARK       I    between atoms: C_17  and  N_18 
REMARK    5  A    between atoms: N_18  and  C_19 
ROOT
HETATM    1  C   UNL     1       7.997  26.277  57.011  1.00  0.00     0.277 C 
HETATM    2  N   UNL     1       8.361  27.512  56.505  1.00  0.00    -0.322 N 
HETATM    3  O   UNL     1       8.010  25.942  58.190  1.00  0.00    -0.266 OA
HETATM    4  H   UNL     1       8.293  27.558  55.491  1.00  0.00     0.169 HD
ENDROOT
BRANCH   2   5
HETATM    5  C   UNL     1       8.598  28.707  57.203  1.00  0.00     0.035 A 
HETATM    6  C   UNL     1       9.838  29.344  57.265  1.00  0.00     0.030 A 
HETATM    7  C   UNL     1      10.027  30.450  58.105  1.00  0.00     0.010 A 
HETATM    8  C   UNL     1       8.977  30.935  58.894  1.00  0.00    -0.049 A 
HETATM    9  C   UNL     1       7.716  30.338  58.776  1.00  0.00     0.010 A 
HETATM   10  C   UNL     1       7.529  29.236  57.936  1.00  0.00     0.030 A 
BRANCH   8  11
HETATM   11  C   UNL     1       9.213  32.028  59.909  1.00  0.00     0.141 C 
BRANCH  11  12
HETATM   12  C   UNL     1       8.824  31.751  61.349  1.00  0.00     0.222 C 
HETATM   13  N   UNL     1       7.726  32.427  61.833  1.00  0.00    -0.357 N 
HETATM   14  H   UNL     1       7.304  33.138  61.250  1.00  0.00     0.162 HD
HETATM   15  O   UNL     1       9.421  30.893  61.997  1.00  0.00    -0.273 OA
BRANCH  13  16
HETATM   16  C   UNL     1       7.130  32.187  63.143  1.00  0.00     0.076 C 
HETATM   17  C   UNL     1       7.680  33.144  64.200  1.00  0.00     0.032 C 
HETATM   18  C   UNL     1       5.604  32.203  63.112  1.00  0.00     0.032 C 
ENDBRANCH  13  16
ENDBRANCH  11  12
ENDBRANCH   8  11
ENDBRANCH   2   5
BRANCH   1  19
HETATM   19  C   UNL     1       7.524  25.377  55.939  1.00  0.00     0.157 A 
HETATM   20  C   UNL     1       6.539  25.651  54.945  1.00  0.00     0.029 A 
HETATM   21  C   UNL     1       5.685  26.727  54.628  1.00  0.00     0.023 A 
HETATM   22  C   UNL     1       6.524  24.525  54.132  1.00  0.00     0.063 A 
HETATM   23  C   UNL     1       4.848  26.639  53.502  1.00  0.00    -0.061 A 
HETATM   24  C   UNL     1       3.933  27.774  53.142  1.00  0.00     0.048 C 
HETATM   25  C   UNL     1       4.870  25.487  52.706  1.00  0.00     0.009 A 
HETATM   26  C   UNL     1       5.705  24.405  53.005  1.00  0.00     0.032 A 
HETATM   27  N   UNL     1       7.440  23.672  54.679  1.00  0.00    -0.277 N 
HETATM   28  H   UNL     1       7.692  22.749  54.343  1.00  0.00     0.189 HD
HETATM   29  N   UNL     1       8.071  24.151  55.767  1.00  0.00    -0.168 NA
ENDBRANCH   1  19
TORSDOF 5
ENDMDL
MODEL 6
REMARK VINA RESULT:      -8.8      1.550      2.005
REMARK  5 active torsions:
REMARK  status: ('A' for Active; 'I' for Inactive)
REMARK    1  A    between atoms: C_9  and  C_10 
REMARK       I    between atoms: C_10  and  N_11 
REMARK    2  A    between atoms: N_11  and  C_12 
REMARK    3  A    between atoms: C_15  and  C_16 
REMARK    4  A    between atoms: C_16  and  C_17 
REMARK       I    between atoms: C_17  and  N_18 
REMARK    5  A    between atoms: N_18  and  C_19 
ROOT
HETATM    1  C   UNL     1       6.493  25.689  55.513  1.00  0.00     0.277 C 
HETATM    2  N   UNL     1       7.418  26.687  55.759  1.00  0.00    -0.322 N 
HETATM    3  O   UNL     1       5.424  25.529  56.090  1.00  0.00    -0.266 OA
HETATM    4  H   UNL     1       8.247  26.610  55.173  1.00  0.00     0.169 HD
ENDROOT
BRANCH   2   5
HETATM    5  C   UNL     1       7.265  27.850  56.531  1.00  0.00     0.035 A 
HETATM    6  C   UNL     1       6.391  28.890  56.213  1.00  0.00     0.030 A 
HETATM    7  C   UNL     1       6.406  30.081  56.951  1.00  0.00     0.010 A 
HETATM    8  C   UNL     1       7.295  30.247  58.019  1.00  0.00    -0.049 A 
HETATM    9  C   UNL     1       8.121  29.176  58.380  1.00  0.00     0.010 A 
HETATM   10  C   UNL     1       8.103  27.988  57.643  1.00  0.00     0.030 A 
BRANCH   8  11
HETATM   11  C   UNL     1       7.420  31.579  58.722  1.00  0.00     0.141 C 
BRANCH  11  12
HETATM   12  C   UNL     1       6.142  32.307  59.089  1.00  0.00     0.222 C 
HETATM   13  N   UNL     1       5.573  31.985  60.300  1.00  0.00    -0.357 N 
HETATM   14  H   UNL     1       5.970  31.218  60.829  1.00  0.00     0.162 HD
HETATM   15  O   UNL     1       5.709  33.202  58.363  1.00  0.00    -0.273 OA
BRANCH  13  16
HETATM   16  C   UNL     1       4.424  32.676  60.875  1.00  0.00     0.076 C 
HETATM   17  C   UNL     1       3.104  32.131  60.330  1.00  0.00     0.032 C 
HETATM   18  C   UNL     1       4.439  32.685  62.401  1.00  0.00     0.032 C 
ENDBRANCH  13  16
ENDBRANCH  11  12
ENDBRANCH   8  11
ENDBRANCH   2   5
BRANCH   1  19
HETATM   19  C   UNL     1       6.925  24.821  54.397  1.00  0.00     0.157 A 
HETATM   20  C   UNL     1       7.335  23.457  54.464  1.00  0.00     0.029 A 
HETATM   21  C   UNL     1       7.519  22.498  55.482  1.00  0.00     0.023 A 
HETATM   22  C   UNL     1       7.551  23.079  53.145  1.00  0.00     0.063 A 
HETATM   23  C   UNL     1       7.909  21.191  55.141  1.00  0.00    -0.061 A 
HETATM   24  C   UNL     1       8.107  20.153  56.207  1.00  0.00     0.048 C 
HETATM   25  C   UNL     1       8.111  20.853  53.797  1.00  0.00     0.009 A 
HETATM   26  C   UNL     1       7.939  21.790  52.771  1.00  0.00     0.032 A 
HETATM   27  N   UNL     1       7.296  24.197  52.403  1.00  0.00    -0.277 N 
HETATM   28  H   UNL     1       7.354  24.288  51.394  1.00  0.00     0.189 HD
HETATM   29  N   UNL     1       6.908  25.269  53.120  1.00  0.00    -0.168 NA
ENDBRANCH   1  19
TORSDOF 5
ENDMDL
MODEL 7
REMARK VINA RESULT:      -8.6      6.305      9.637
REMARK  5 active torsions:
REMARK  status: ('A' for Active; 'I' for Inactive)
REMARK    1  A    between atoms: C_9  and  C_10 
REMARK       I    between atoms: C_10  and  N_11 
REMARK    2  A    between atoms: N_11  and  C_12 
REMARK    3  A    between atoms: C_15  and  C_16 
REMARK    4  A    between atoms: C_16  and  C_17 
REMARK       I    between atoms: C_17  and  N_18 
REMARK    5  A    between atoms: N_18  and  C_19 
ROOT
HETATM    1  C   UNL     1       5.360  25.502  53.046  1.00  0.00     0.277 C 
HETATM    2  N   UNL     1       5.826  26.581  52.316  1.00  0.00    -0.322 N 
HETATM    3  O   UNL     1       4.309  24.898  52.861  1.00  0.00    -0.266 OA
HETATM    4  H   UNL     1       6.714  26.937  52.665  1.00  0.00     0.169 HD
ENDROOT
BRANCH   2   5
HETATM    5  C   UNL     1       5.351  27.080  51.094  1.00  0.00     0.035 A 
HETATM    6  C   UNL     1       5.080  28.426  50.851  1.00  0.00     0.030 A 
HETATM    7  C   UNL     1       4.466  28.823  49.655  1.00  0.00     0.010 A 
HETATM    8  C   UNL     1       4.116  27.876  48.684  1.00  0.00    -0.049 A 
HETATM    9  C   UNL     1       4.453  26.535  48.901  1.00  0.00     0.010 A 
HETATM   10  C   UNL     1       5.068  26.143  50.094  1.00  0.00     0.030 A 
BRANCH   8  11
HETATM   11  C   UNL     1       3.322  28.277  47.464  1.00  0.00     0.141 C 
BRANCH  11  12
HETATM   12  C   UNL     1       1.823  28.049  47.489  1.00  0.00     0.222 C 
HETATM   13  N   UNL     1       1.103  28.553  46.431  1.00  0.00    -0.357 N 
HETATM   14  H   UNL     1       1.585  29.130  45.753  1.00  0.00     0.162 HD
HETATM   15  O   UNL     1       1.317  27.363  48.377  1.00  0.00    -0.273 OA
BRANCH  13  16
HETATM   16  C   UNL     1      -0.321  28.314  46.221  1.00  0.00     0.076 C 
HETATM   17  C   UNL     1      -1.118  29.617  46.198  1.00  0.00     0.032 C 
HETATM   18  C   UNL     1      -0.604  27.463  44.985  1.00  0.00     0.032 C 
ENDBRANCH  13  16
ENDBRANCH  11  12
ENDBRANCH   8  11
ENDBRANCH   2   5
BRANCH   1  19
HETATM   19  C   UNL     1       6.326  25.103  54.091  1.00  0.00     0.157 A 
HETATM   20  C   UNL     1       7.156  23.943  54.112  1.00  0.00     0.029 A 
HETATM   21  C   UNL     1       7.353  22.818  53.285  1.00  0.00     0.023 A 
HETATM   22  C   UNL     1       7.936  24.077  55.253  1.00  0.00     0.063 A 
HETATM   23  C   UNL     1       8.330  21.867  53.629  1.00  0.00    -0.061 A 
HETATM   24  C   UNL     1       8.560  20.664  52.762  1.00  0.00     0.048 C 
HETATM   25  C   UNL     1       9.097  22.046  54.787  1.00  0.00     0.009 A 
HETATM   26  C   UNL     1       8.915  23.152  55.625  1.00  0.00     0.032 A 
HETATM   27  N   UNL     1       7.526  25.243  55.836  1.00  0.00    -0.277 N 
HETATM   28  H   UNL     1       7.880  25.656  56.692  1.00  0.00     0.189 HD
HETATM   29  N   UNL     1       6.561  25.897  55.162  1.00  0.00    -0.168 NA
ENDBRANCH   1  19
TORSDOF 5
ENDMDL
MODEL 8
REMARK VINA RESULT:      -8.5      6.652     14.376
REMARK  5 active torsions:
REMARK  status: ('A' for Active; 'I' for Inactive)
REMARK    1  A    between atoms: C_9  and  C_10 
REMARK       I    between atoms: C_10  and  N_11 
REMARK    2  A    between atoms: N_11  and  C_12 
REMARK    3  A    between atoms: C_15  and  C_16 
REMARK    4  A    between atoms: C_16  and  C_17 
REMARK       I    between atoms: C_17  and  N_18 
REMARK    5  A    between atoms: N_18  and  C_19 
ROOT
HETATM    1  C   UNL     1       5.659  34.135  68.515  1.00  0.00     0.277 C 
HETATM    2  N   UNL     1       6.363  34.385  67.350  1.00  0.00    -0.322 N 
HETATM    3  O   UNL     1       4.535  33.654  68.596  1.00  0.00    -0.266 OA
HETATM    4  H   UNL     1       7.272  34.810  67.523  1.00  0.00     0.169 HD
ENDROOT
BRANCH   2   5
HETATM    5  C   UNL     1       6.075  33.955  66.045  1.00  0.00     0.035 A 
HETATM    6  C   UNL     1       4.791  33.916  65.500  1.00  0.00     0.030 A 
HETATM    7  C   UNL     1       4.570  33.332  64.245  1.00  0.00     0.010 A 
HETATM    8  C   UNL     1       5.632  32.780  63.518  1.00  0.00    -0.049 A 
HETATM    9  C   UNL     1       6.928  32.883  64.037  1.00  0.00     0.010 A 
HETATM   10  C   UNL     1       7.146  33.468  65.288  1.00  0.00     0.030 A 
BRANCH   8  11
HETATM   11  C   UNL     1       5.379  32.018  62.238  1.00  0.00     0.141 C 
BRANCH  11  12
HETATM   12  C   UNL     1       6.301  32.285  61.064  1.00  0.00     0.222 C 
HETATM   13  N   UNL     1       7.284  31.352  60.825  1.00  0.00    -0.357 N 
HETATM   14  H   UNL     1       7.407  30.602  61.493  1.00  0.00     0.162 HD
HETATM   15  O   UNL     1       6.097  33.248  60.324  1.00  0.00    -0.273 OA
BRANCH  13  16
HETATM   16  C   UNL     1       8.170  31.375  59.666  1.00  0.00     0.076 C 
HETATM   17  C   UNL     1       9.543  31.947  60.014  1.00  0.00     0.032 C 
HETATM   18  C   UNL     1       8.286  30.016  58.981  1.00  0.00     0.032 C 
ENDBRANCH  13  16
ENDBRANCH  11  12
ENDBRANCH   8  11
ENDBRANCH   2   5
BRANCH   1  19
HETATM   19  C   UNL     1       6.460  34.477  69.709  1.00  0.00     0.157 A 
HETATM   20  C   UNL     1       6.983  33.584  70.691  1.00  0.00     0.029 A 
HETATM   21  C   UNL     1       6.934  32.196  70.934  1.00  0.00     0.023 A 
HETATM   22  C   UNL     1       7.728  34.386  71.547  1.00  0.00     0.063 A 
HETATM   23  C   UNL     1       7.638  31.658  72.025  1.00  0.00    -0.061 A 
HETATM   24  C   UNL     1       7.603  30.183  72.301  1.00  0.00     0.048 C 
HETATM   25  C   UNL     1       8.381  32.503  72.859  1.00  0.00     0.009 A 
HETATM   26  C   UNL     1       8.440  33.884  72.640  1.00  0.00     0.032 A 
HETATM   27  N   UNL     1       7.590  35.657  71.063  1.00  0.00    -0.277 N 
HETATM   28  H   UNL     1       8.001  36.503  71.443  1.00  0.00     0.189 HD
HETATM   29  N   UNL     1       6.838  35.754  69.951  1.00  0.00    -0.168 NA
ENDBRANCH   1  19
TORSDOF 5
ENDMDL
MODEL 9
REMARK VINA RESULT:      -8.2      2.481     10.110
REMARK  5 active torsions:
REMARK  status: ('A' for Active; 'I' for Inactive)
REMARK    1  A    between atoms: C_9  and  C_10 
REMARK       I    between atoms: C_10  and  N_11 
REMARK    2  A    between atoms: N_11  and  C_12 
REMARK    3  A    between atoms: C_15  and  C_16 
REMARK    4  A    between atoms: C_16  and  C_17 
REMARK       I    between atoms: C_17  and  N_18 
REMARK    5  A    between atoms: N_18  and  C_19 
ROOT
HETATM    1  C   UNL     1       5.424  31.973  58.563  1.00  0.00     0.277 C 
HETATM    2  N   UNL     1       5.594  30.605  58.438  1.00  0.00    -0.322 N 
HETATM    3  O   UNL     1       5.842  32.830  57.793  1.00  0.00    -0.266 OA
HETATM    4  H   UNL     1       5.180  30.085  59.209  1.00  0.00     0.169 HD
ENDROOT
BRANCH   2   5
HETATM    5  C   UNL     1       6.059  29.879  57.330  1.00  0.00     0.035 A 
HETATM    6  C   UNL     1       5.372  29.773  56.121  1.00  0.00     0.030 A 
HETATM    7  C   UNL     1       5.831  28.908  55.117  1.00  0.00     0.010 A 
HETATM    8  C   UNL     1       6.985  28.138  55.311  1.00  0.00    -0.049 A 
HETATM    9  C   UNL     1       7.710  28.300  56.498  1.00  0.00     0.010 A 
HETATM   10  C   UNL     1       7.251  29.165  57.496  1.00  0.00     0.030 A 
BRANCH   8  11
HETATM   11  C   UNL     1       7.399  27.097  54.299  1.00  0.00     0.141 C 
BRANCH  11  12
HETATM   12  C   UNL     1       7.076  25.647  54.603  1.00  0.00     0.222 C 
HETATM   13  N   UNL     1       7.896  24.699  54.036  1.00  0.00    -0.357 N 
HETATM   14  H   UNL     1       8.598  25.004  53.374  1.00  0.00     0.162 HD
HETATM   15  O   UNL     1       6.176  25.367  55.395  1.00  0.00    -0.273 OA
BRANCH  13  16
HETATM   16  C   UNL     1       7.819  23.271  54.325  1.00  0.00     0.076 C 
HETATM   17  C   UNL     1       7.906  22.429  53.053  1.00  0.00     0.032 C 
HETATM   18  C   UNL     1       8.841  22.820  55.366  1.00  0.00     0.032 C 
ENDBRANCH  13  16
ENDBRANCH  11  12
ENDBRANCH   8  11
ENDBRANCH   2   5
BRANCH   1  19
HETATM   19  C   UNL     1       4.608  32.306  59.749  1.00  0.00     0.157 A 
HETATM   20  C   UNL     1       5.066  32.570  61.073  1.00  0.00     0.029 A 
HETATM   21  C   UNL     1       6.310  32.583  61.737  1.00  0.00     0.023 A 
HETATM   22  C   UNL     1       3.925  32.915  61.787  1.00  0.00     0.063 A 
HETATM   23  C   UNL     1       6.369  32.947  63.093  1.00  0.00    -0.061 A 
HETATM   24  C   UNL     1       7.682  32.973  63.819  1.00  0.00     0.048 C 
HETATM   25  C   UNL     1       5.194  33.293  63.773  1.00  0.00     0.009 A 
HETATM   26  C   UNL     1       3.947  33.281  63.136  1.00  0.00     0.032 A 
HETATM   27  N   UNL     1       2.896  32.814  60.895  1.00  0.00    -0.277 N 
HETATM   28  H   UNL     1       1.913  32.994  61.072  1.00  0.00     0.189 HD
HETATM   29  N   UNL     1       3.266  32.457  59.651  1.00  0.00    -0.168 NA
ENDBRANCH   1  19
TORSDOF 5
ENDMDL
MODEL 10
REMARK VINA RESULT:      -8.2      5.913      8.619
REMARK  5 active torsions:
REMARK  status: ('A' for Active; 'I' for Inactive)
REMARK    1  A    between atoms: C_9  and  C_10 
REMARK       I    between atoms: C_10  and  N_11 
REMARK    2  A    between atoms: N_11  and  C_12 
REMARK    3  A    between atoms: C_15  and  C_16 
REMARK    4  A    between atoms: C_16  and  C_17 
REMARK       I    between atoms: C_17  and  N_18 
REMARK    5  A    between atoms: N_18  and  C_19 
ROOT
HETATM    1  C   UNL     1       5.414  25.390  53.267  1.00  0.00     0.277 C 
HETATM    2  N   UNL     1       5.839  26.403  52.426  1.00  0.00    -0.322 N 
HETATM    3  O   UNL     1       4.321  24.836  53.242  1.00  0.00    -0.266 OA
HETATM    4  H   UNL     1       6.778  26.729  52.645  1.00  0.00     0.169 HD
ENDROOT
BRANCH   2   5
HETATM    5  C   UNL     1       5.243  26.864  51.241  1.00  0.00     0.035 A 
HETATM    6  C   UNL     1       4.896  26.041  50.170  1.00  0.00     0.030 A 
HETATM    7  C   UNL     1       4.444  26.597  48.965  1.00  0.00     0.010 A 
HETATM    8  C   UNL     1       4.333  27.984  48.816  1.00  0.00    -0.049 A 
HETATM    9  C   UNL     1       4.616  28.803  49.916  1.00  0.00     0.010 A 
HETATM   10  C   UNL     1       5.064  28.246  51.117  1.00  0.00     0.030 A 
BRANCH   8  11
HETATM   11  C   UNL     1       3.992  28.594  47.477  1.00  0.00     0.141 C 
BRANCH  11  12
HETATM   12  C   UNL     1       3.784  30.095  47.417  1.00  0.00     0.222 C 
HETATM   13  N   UNL     1       4.868  30.855  47.041  1.00  0.00    -0.357 N 
HETATM   14  H   UNL     1       5.762  30.393  46.926  1.00  0.00     0.162 HD
HETATM   15  O   UNL     1       2.667  30.573  47.610  1.00  0.00    -0.273 OA
BRANCH  13  16
HETATM   16  C   UNL     1       4.816  32.293  46.799  1.00  0.00     0.076 C 
HETATM   17  C   UNL     1       5.354  33.087  47.989  1.00  0.00     0.032 C 
HETATM   18  C   UNL     1       5.502  32.701  45.497  1.00  0.00     0.032 C 
ENDBRANCH  13  16
ENDBRANCH  11  12
ENDBRANCH   8  11
ENDBRANCH   2   5
BRANCH   1  19
HETATM   19  C   UNL     1       6.480  24.994  54.211  1.00  0.00     0.157 A 
HETATM   20  C   UNL     1       7.284  23.817  54.171  1.00  0.00     0.029 A 
HETATM   21  C   UNL     1       7.367  22.669  53.356  1.00  0.00     0.023 A 
HETATM   22  C   UNL     1       8.185  23.959  55.218  1.00  0.00     0.063 A 
HETATM   23  C   UNL     1       8.357  21.705  53.617  1.00  0.00    -0.061 A 
HETATM   24  C   UNL     1       8.467  20.476  52.761  1.00  0.00     0.048 C 
HETATM   25  C   UNL     1       9.248  21.892  54.680  1.00  0.00     0.009 A 
HETATM   26  C   UNL     1       9.181  23.021  55.504  1.00  0.00     0.032 A 
HETATM   27  N   UNL     1       7.865  25.147  55.812  1.00  0.00    -0.277 N 
HETATM   28  H   UNL     1       8.318  25.572  56.613  1.00  0.00     0.189 HD
HETATM   29  N   UNL     1       6.845  25.807  55.230  1.00  0.00    -0.168 NA
ENDBRANCH   1  19
TORSDOF 5
ENDMDL
