MODEL 1
REMARK VINA RESULT:     -10.5      0.000      0.000
REMARK  3 active torsions:
REMARK  status: ('A' for Active; 'I' for Inactive)
REMARK    1  A    between atoms: C_2  and  C_3 
REMARK    2  A    between atoms: C_5  and  N_6 
REMARK       I    between atoms: N_6  and  C_7 
REMARK    3  A    between atoms: C_7  and  C_8 
ROOT
HETATM    1  C   UNL     1       7.839  26.071  56.073  1.00  0.00     0.155 A 
HETATM    2  N   UNL     1       7.433  26.474  54.844  1.00  0.00    -0.168 NA
HETATM    3  N   UNL     1       7.427  25.336  54.111  1.00  0.00    -0.276 N 
HETATM    4  H   UNL     1       7.153  25.391  53.137  1.00  0.00     0.189 HD
HETATM    5  C   UNL     1       7.810  24.243  54.819  1.00  0.00     0.074 A 
HETATM    6  C   UNL     1       8.071  24.677  56.090  1.00  0.00     0.031 A 
HETATM    7  C   UNL     1       8.522  23.751  57.151  1.00  0.00     0.219 A 
HETATM    8  O   UNL     1       8.585  22.346  56.772  1.00  0.00    -0.346 OA
HETATM    9  C   UNL     1       8.355  21.979  55.463  1.00  0.00     0.081 A 
HETATM   10  C   UNL     1       7.962  22.863  54.438  1.00  0.00     0.026 A 
HETATM   11  C   UNL     1       8.526  20.624  55.180  1.00  0.00     0.038 A 
HETATM   12  C   UNL     1       8.317  20.148  53.884  1.00  0.00     0.003 A 
HETATM   13  C   UNL     1       7.931  21.026  52.869  1.00  0.00     0.001 A 
HETATM   14  C   UNL     1       7.752  22.384  53.143  1.00  0.00     0.016 A 
ENDROOT
BRANCH   1  15
HETATM   15  C   UNL     1       8.009  27.019  57.191  1.00  0.00     0.277 C 
HETATM   16  N   UNL     1       8.607  28.192  56.778  1.00  0.00    -0.322 N 
HETATM   17  H   UNL     1       8.811  28.208  55.780  1.00  0.00     0.169 HD
HETATM   18  O   UNL     1       7.646  26.734  58.326  1.00  0.00    -0.266 OA
BRANCH  16  19
HETATM   19  C   UNL     1       8.967  29.311  57.545  1.00  0.00     0.035 A 
HETATM   20  C   UNL     1       8.252  29.753  58.661  1.00  0.00     0.036 A 
HETATM   21  C   UNL     1       8.677  30.876  59.392  1.00  0.00    -0.056 A 
HETATM   22  C   UNL     1       9.825  31.565  58.983  1.00  0.00     0.007 A 
HETATM   23  C   UNL     1      10.542  31.131  57.871  1.00  0.00     0.003 A 
HETATM   24  C   UNL     1      10.116  30.010  57.157  1.00  0.00     0.029 A 
BRANCH  21  25
HETATM   25  C   UNL     1       7.888  31.344  60.589  1.00  0.00     0.034 C 
HETATM   26  C   UNL     1       8.789  31.910  61.676  1.00  0.00     0.010 C 
ENDBRANCH  21  25
ENDBRANCH  16  19
ENDBRANCH   1  15
TORSDOF 3
ENDMDL
MODEL 2
REMARK VINA RESULT:      -9.9      1.829      2.420
REMARK  3 active torsions:
REMARK  status: ('A' for Active; 'I' for Inactive)
REMARK    1  A    between atoms: C_2  and  C_3 
REMARK    2  A    between atoms: C_5  and  N_6 
REMARK       I    between atoms: N_6  and  C_7 
REMARK    3  A    between atoms: C_7  and  C_8 
ROOT
HETATM    1  C   UNL     1       7.938  26.009  56.734  1.00  0.00     0.155 A 
HETATM    2  N   UNL     1       8.253  25.376  57.891  1.00  0.00    -0.168 NA
HETATM    3  N   UNL     1       8.356  24.075  57.535  1.00  0.00    -0.276 N 
HETATM    4  H   UNL     1       8.587  23.396  58.251  1.00  0.00     0.189 HD
HETATM    5  C   UNL     1       8.120  23.861  56.216  1.00  0.00     0.074 A 
HETATM    6  C   UNL     1       7.860  25.086  55.666  1.00  0.00     0.031 A 
HETATM    7  C   UNL     1       7.551  25.245  54.228  1.00  0.00     0.219 A 
HETATM    8  O   UNL     1       7.627  24.026  53.433  1.00  0.00    -0.346 OA
HETATM    9  C   UNL     1       7.849  22.816  54.055  1.00  0.00     0.081 A 
HETATM   10  C   UNL     1       8.106  22.654  55.431  1.00  0.00     0.026 A 
HETATM   11  C   UNL     1       7.816  21.697  53.222  1.00  0.00     0.038 A 
HETATM   12  C   UNL     1       8.029  20.424  53.751  1.00  0.00     0.003 A 
HETATM   13  C   UNL     1       8.280  20.265  55.115  1.00  0.00     0.001 A 
HETATM   14  C   UNL     1       8.320  21.378  55.958  1.00  0.00     0.016 A 
ENDROOT
BRANCH   1  15
HETATM   15  C   UNL     1       7.706  27.465  56.676  1.00  0.00     0.277 C 
HETATM   16  N   UNL     1       7.731  28.035  57.932  1.00  0.00    -0.322 N 
HETATM   17  H   UNL     1       7.919  27.363  58.674  1.00  0.00     0.169 HD
HETATM   18  O   UNL     1       7.515  28.035  55.609  1.00  0.00    -0.266 OA
BRANCH  16  19
HETATM   19  C   UNL     1       7.518  29.375  58.292  1.00  0.00     0.035 A 
HETATM   20  C   UNL     1       8.375  30.104  59.121  1.00  0.00     0.036 A 
HETATM   21  C   UNL     1       8.107  31.449  59.432  1.00  0.00    -0.056 A 
HETATM   22  C   UNL     1       6.959  32.056  58.912  1.00  0.00     0.007 A 
HETATM   23  C   UNL     1       6.099  31.336  58.086  1.00  0.00     0.003 A 
HETATM   24  C   UNL     1       6.378  30.004  57.777  1.00  0.00     0.029 A 
BRANCH  21  25
HETATM   25  C   UNL     1       9.038  32.217  60.336  1.00  0.00     0.034 C 
HETATM   26  C   UNL     1       9.450  31.400  61.551  1.00  0.00     0.010 C 
ENDBRANCH  21  25
ENDBRANCH  16  19
ENDBRANCH   1  15
TORSDOF 3
ENDMDL
MODEL 3
REMARK VINA RESULT:      -9.8      2.152      8.595
REMARK  3 active torsions:
REMARK  status: ('A' for Active; 'I' for Inactive)
REMARK    1  A    between atoms: C_2  and  C_3 
REMARK    2  A    between atoms: C_5  and  N_6 
REMARK       I    between atoms: N_6  and  C_7 
REMARK    3  A    between atoms: C_7  and  C_8 
ROOT
HETATM    1  C   UNL     1       6.075  28.456  56.310  1.00  0.00     0.155 A 
HETATM    2  N   UNL     1       4.964  28.805  57.005  1.00  0.00    -0.168 NA
HETATM    3  N   UNL     1       5.414  29.696  57.918  1.00  0.00    -0.276 N 
HETATM    4  H   UNL     1       4.749  30.102  58.566  1.00  0.00     0.189 HD
HETATM    5  C   UNL     1       6.750  29.922  57.831  1.00  0.00     0.074 A 
HETATM    6  C   UNL     1       7.207  29.149  56.799  1.00  0.00     0.031 A 
HETATM    7  C   UNL     1       8.633  29.133  56.409  1.00  0.00     0.219 A 
HETATM    8  O   UNL     1       9.492  30.054  57.142  1.00  0.00    -0.346 OA
HETATM    9  C   UNL     1       8.981  30.772  58.202  1.00  0.00     0.081 A 
HETATM   10  C   UNL     1       7.630  30.761  58.603  1.00  0.00     0.026 A 
HETATM   11  C   UNL     1       9.902  31.557  58.895  1.00  0.00     0.038 A 
HETATM   12  C   UNL     1       9.487  32.324  59.985  1.00  0.00     0.003 A 
HETATM   13  C   UNL     1       8.149  32.309  60.383  1.00  0.00     0.001 A 
HETATM   14  C   UNL     1       7.217  31.530  59.693  1.00  0.00     0.016 A 
ENDROOT
BRANCH   1  15
HETATM   15  C   UNL     1       6.035  27.469  55.216  1.00  0.00     0.277 C 
HETATM   16  N   UNL     1       7.039  26.532  55.338  1.00  0.00    -0.322 N 
HETATM   17  H   UNL     1       7.620  26.671  56.163  1.00  0.00     0.169 HD
HETATM   18  O   UNL     1       5.188  27.534  54.332  1.00  0.00    -0.266 OA
BRANCH  16  19
HETATM   19  C   UNL     1       7.352  25.462  54.483  1.00  0.00     0.035 A 
HETATM   20  C   UNL     1       7.381  24.125  54.888  1.00  0.00     0.036 A 
HETATM   21  C   UNL     1       7.691  23.102  53.975  1.00  0.00    -0.056 A 
HETATM   22  C   UNL     1       7.986  23.435  52.648  1.00  0.00     0.007 A 
HETATM   23  C   UNL     1       7.961  24.765  52.238  1.00  0.00     0.003 A 
HETATM   24  C   UNL     1       7.644  25.773  53.150  1.00  0.00     0.029 A 
BRANCH  21  25
HETATM   25  C   UNL     1       7.726  21.665  54.431  1.00  0.00     0.034 C 
HETATM   26  C   UNL     1       7.986  20.710  53.276  1.00  0.00     0.010 C 
ENDBRANCH  21  25
ENDBRANCH  16  19
ENDBRANCH   1  15
TORSDOF 3
ENDMDL
MODEL 4
REMARK VINA RESULT:      -9.3      1.659      2.062
REMARK  3 active torsions:
REMARK  status: ('A' for Active; 'I' for Inactive)
REMARK    1  A    between atoms: C_2  and  C_3 
REMARK    2  A    between atoms: C_5  and  N_6 
REMARK       I    between atoms: N_6  and  C_7 
REMARK    3  A    between atoms: C_7  and  C_8 
ROOT
HETATM    1  C   UNL     1       6.613  27.354  55.680  1.00  0.00     0.155 A 
HETATM    2  N   UNL     1       6.784  27.776  54.403  1.00  0.00    -0.168 NA
HETATM    3  N   UNL     1       7.128  26.654  53.730  1.00  0.00    -0.276 N 
HETATM    4  H   UNL     1       7.312  26.725  52.736  1.00  0.00     0.189 HD
HETATM    5  C   UNL     1       7.184  25.552  54.521  1.00  0.00     0.074 A 
HETATM    6  C   UNL     1       6.846  25.963  55.781  1.00  0.00     0.031 A 
HETATM    7  C   UNL     1       6.803  25.022  56.921  1.00  0.00     0.219 A 
HETATM    8  O   UNL     1       7.060  23.626  56.591  1.00  0.00    -0.346 OA
HETATM    9  C   UNL     1       7.440  23.284  55.311  1.00  0.00     0.081 A 
HETATM   10  C   UNL     1       7.521  24.183  54.229  1.00  0.00     0.026 A 
HETATM   11  C   UNL     1       7.751  21.938  55.116  1.00  0.00     0.038 A 
HETATM   12  C   UNL     1       8.146  21.486  53.856  1.00  0.00     0.003 A 
HETATM   13  C   UNL     1       8.229  22.379  52.786  1.00  0.00     0.001 A 
HETATM   14  C   UNL     1       7.916  23.729  52.969  1.00  0.00     0.016 A 
ENDROOT
BRANCH   1  15
HETATM   15  C   UNL     1       6.250  28.280  56.769  1.00  0.00     0.277 C 
HETATM   16  N   UNL     1       7.304  29.100  57.114  1.00  0.00    -0.322 N 
HETATM   17  H   UNL     1       8.138  28.938  56.553  1.00  0.00     0.169 HD
HETATM   18  O   UNL     1       5.130  28.266  57.267  1.00  0.00    -0.266 OA
BRANCH  16  19
HETATM   19  C   UNL     1       7.363  30.079  58.119  1.00  0.00     0.035 A 
HETATM   20  C   UNL     1       8.263  30.044  59.188  1.00  0.00     0.036 A 
HETATM   21  C   UNL     1       8.276  31.065  60.154  1.00  0.00    -0.056 A 
HETATM   22  C   UNL     1       7.364  32.122  60.044  1.00  0.00     0.007 A 
HETATM   23  C   UNL     1       6.464  32.163  58.983  1.00  0.00     0.003 A 
HETATM   24  C   UNL     1       6.465  31.149  58.024  1.00  0.00     0.029 A 
BRANCH  21  25
HETATM   25  C   UNL     1       9.247  31.006  61.306  1.00  0.00     0.034 C 
HETATM   26  C   UNL     1       8.538  31.089  62.649  1.00  0.00     0.010 C 
ENDBRANCH  21  25
ENDBRANCH  16  19
ENDBRANCH   1  15
TORSDOF 3
ENDMDL
MODEL 5
REMARK VINA RESULT:      -9.1      4.518     10.700
REMARK  3 active torsions:
REMARK  status: ('A' for Active; 'I' for Inactive)
REMARK    1  A    between atoms: C_2  and  C_3 
REMARK    2  A    between atoms: C_5  and  N_6 
REMARK       I    between atoms: N_6  and  C_7 
REMARK    3  A    between atoms: C_7  and  C_8 
ROOT
HETATM    1  C   UNL     1       5.717  32.522  60.637  1.00  0.00     0.155 A 
HETATM    2  N   UNL     1       4.377  32.730  60.668  1.00  0.00    -0.168 NA
HETATM    3  N   UNL     1       4.135  33.117  61.941  1.00  0.00    -0.276 N 
HETATM    4  H   UNL     1       3.181  33.330  62.208  1.00  0.00     0.189 HD
HETATM    5  C   UNL     1       5.254  33.161  62.709  1.00  0.00     0.074 A 
HETATM    6  C   UNL     1       6.294  32.796  61.898  1.00  0.00     0.031 A 
HETATM    7  C   UNL     1       7.684  32.726  62.399  1.00  0.00     0.219 A 
HETATM    8  O   UNL     1       7.874  33.152  63.779  1.00  0.00    -0.346 OA
HETATM    9  C   UNL     1       6.780  33.464  64.557  1.00  0.00     0.081 A 
HETATM   10  C   UNL     1       5.449  33.495  64.096  1.00  0.00     0.026 A 
HETATM   11  C   UNL     1       7.058  33.773  65.888  1.00  0.00     0.038 A 
HETATM   12  C   UNL     1       6.021  34.105  66.761  1.00  0.00     0.003 A 
HETATM   13  C   UNL     1       4.702  34.132  66.304  1.00  0.00     0.001 A 
HETATM   14  C   UNL     1       4.412  33.828  64.971  1.00  0.00     0.016 A 
ENDROOT
BRANCH   1  15
HETATM   15  C   UNL     1       6.409  32.057  59.420  1.00  0.00     0.277 C 
HETATM   16  N   UNL     1       7.149  30.918  59.658  1.00  0.00    -0.322 N 
HETATM   17  H   UNL     1       7.078  30.587  60.618  1.00  0.00     0.169 HD
HETATM   18  O   UNL     1       6.301  32.661  58.359  1.00  0.00    -0.266 OA
BRANCH  16  19
HETATM   19  C   UNL     1       7.968  30.201  58.771  1.00  0.00     0.035 A 
HETATM   20  C   UNL     1       7.562  29.046  58.097  1.00  0.00     0.036 A 
HETATM   21  C   UNL     1       8.431  28.384  57.213  1.00  0.00    -0.056 A 
HETATM   22  C   UNL     1       9.722  28.886  57.018  1.00  0.00     0.007 A 
HETATM   23  C   UNL     1      10.134  30.036  57.686  1.00  0.00     0.003 A 
HETATM   24  C   UNL     1       9.261  30.691  58.556  1.00  0.00     0.029 A 
BRANCH  21  25
HETATM   25  C   UNL     1       7.979  27.133  56.502  1.00  0.00     0.034 C 
HETATM   26  C   UNL     1       8.310  25.879  57.297  1.00  0.00     0.010 C 
ENDBRANCH  21  25
ENDBRANCH  16  19
ENDBRANCH   1  15
TORSDOF 3
ENDMDL
MODEL 6
REMARK VINA RESULT:      -9.0      2.922      8.382
REMARK  3 active torsions:
REMARK  status: ('A' for Active; 'I' for Inactive)
REMARK    1  A    between atoms: C_2  and  C_3 
REMARK    2  A    between atoms: C_5  and  N_6 
REMARK       I    between atoms: N_6  and  C_7 
REMARK    3  A    between atoms: C_7  and  C_8 
ROOT
HETATM    1  C   UNL     1       7.319  27.482  57.427  1.00  0.00     0.155 A 
HETATM    2  N   UNL     1       8.080  28.274  58.222  1.00  0.00    -0.168 NA
HETATM    3  N   UNL     1       7.392  29.436  58.283  1.00  0.00    -0.276 N 
HETATM    4  H   UNL     1       7.777  30.198  58.831  1.00  0.00     0.189 HD
HETATM    5  C   UNL     1       6.239  29.413  57.566  1.00  0.00     0.074 A 
HETATM    6  C   UNL     1       6.153  28.166  57.012  1.00  0.00     0.031 A 
HETATM    7  C   UNL     1       5.017  27.773  56.151  1.00  0.00     0.219 A 
HETATM    8  O   UNL     1       3.965  28.771  56.009  1.00  0.00    -0.346 OA
HETATM    9  C   UNL     1       4.132  30.025  56.555  1.00  0.00     0.081 A 
HETATM   10  C   UNL     1       5.232  30.419  57.343  1.00  0.00     0.026 A 
HETATM   11  C   UNL     1       3.111  30.938  56.288  1.00  0.00     0.038 A 
HETATM   12  C   UNL     1       3.183  32.236  56.796  1.00  0.00     0.003 A 
HETATM   13  C   UNL     1       4.275  32.625  57.574  1.00  0.00     0.001 A 
HETATM   14  C   UNL     1       5.302  31.718  57.851  1.00  0.00     0.016 A 
ENDROOT
BRANCH   1  15
HETATM   15  C   UNL     1       7.723  26.108  57.074  1.00  0.00     0.277 C 
HETATM   16  N   UNL     1       7.398  25.801  55.769  1.00  0.00    -0.322 N 
HETATM   17  H   UNL     1       6.956  26.573  55.274  1.00  0.00     0.169 HD
HETATM   18  O   UNL     1       8.271  25.377  57.891  1.00  0.00    -0.266 OA
BRANCH  16  19
HETATM   19  C   UNL     1       7.585  24.593  55.078  1.00  0.00     0.035 A 
HETATM   20  C   UNL     1       7.514  23.333  55.680  1.00  0.00     0.036 A 
HETATM   21  C   UNL     1       7.699  22.162  54.925  1.00  0.00    -0.056 A 
HETATM   22  C   UNL     1       7.970  22.266  53.556  1.00  0.00     0.007 A 
HETATM   23  C   UNL     1       8.043  23.517  52.949  1.00  0.00     0.003 A 
HETATM   24  C   UNL     1       7.850  24.674  53.706  1.00  0.00     0.029 A 
BRANCH  21  25
HETATM   25  C   UNL     1       7.628  20.812  55.592  1.00  0.00     0.034 C 
HETATM   26  C   UNL     1       8.512  20.744  56.829  1.00  0.00     0.010 C 
ENDBRANCH  21  25
ENDBRANCH  16  19
ENDBRANCH   1  15
TORSDOF 3
ENDMDL
MODEL 7
REMARK VINA RESULT:      -8.9      4.571      6.657
REMARK  3 active torsions:
REMARK  status: ('A' for Active; 'I' for Inactive)
REMARK    1  A    between atoms: C_2  and  C_3 
REMARK    2  A    between atoms: C_5  and  N_6 
REMARK       I    between atoms: N_6  and  C_7 
REMARK    3  A    between atoms: C_7  and  C_8 
ROOT
HETATM    1  C   UNL     1       7.712  30.534  58.791  1.00  0.00     0.155 A 
HETATM    2  N   UNL     1       8.460  29.403  58.822  1.00  0.00    -0.168 NA
HETATM    3  N   UNL     1       7.937  28.637  57.838  1.00  0.00    -0.276 N 
HETATM    4  H   UNL     1       8.341  27.722  57.671  1.00  0.00     0.189 HD
HETATM    5  C   UNL     1       6.899  29.229  57.194  1.00  0.00     0.074 A 
HETATM    6  C   UNL     1       6.734  30.457  57.773  1.00  0.00     0.031 A 
HETATM    7  C   UNL     1       5.680  31.393  57.327  1.00  0.00     0.219 A 
HETATM    8  O   UNL     1       4.895  30.952  56.182  1.00  0.00    -0.346 OA
HETATM    9  C   UNL     1       5.078  29.685  55.672  1.00  0.00     0.081 A 
HETATM   10  C   UNL     1       6.055  28.772  56.119  1.00  0.00     0.026 A 
HETATM   11  C   UNL     1       4.218  29.323  54.635  1.00  0.00     0.038 A 
HETATM   12  C   UNL     1       4.321  28.061  54.048  1.00  0.00     0.003 A 
HETATM   13  C   UNL     1       5.287  27.157  54.495  1.00  0.00     0.001 A 
HETATM   14  C   UNL     1       6.157  27.510  55.530  1.00  0.00     0.016 A 
ENDROOT
BRANCH   1  15
HETATM   15  C   UNL     1       7.936  31.646  59.734  1.00  0.00     0.277 C 
HETATM   16  N   UNL     1       7.106  31.557  60.832  1.00  0.00    -0.322 N 
HETATM   17  H   UNL     1       6.500  30.739  60.813  1.00  0.00     0.169 HD
HETATM   18  O   UNL     1       8.769  32.515  59.505  1.00  0.00    -0.266 OA
BRANCH  16  19
HETATM   19  C   UNL     1       6.993  32.437  61.921  1.00  0.00     0.035 A 
HETATM   20  C   UNL     1       6.096  33.507  61.967  1.00  0.00     0.036 A 
HETATM   21  C   UNL     1       6.027  34.343  63.096  1.00  0.00    -0.056 A 
HETATM   22  C   UNL     1       6.880  34.102  64.179  1.00  0.00     0.007 A 
HETATM   23  C   UNL     1       7.778  33.038  64.140  1.00  0.00     0.003 A 
HETATM   24  C   UNL     1       7.833  32.209  63.018  1.00  0.00     0.029 A 
BRANCH  21  25
HETATM   25  C   UNL     1       5.059  35.498  63.124  1.00  0.00     0.034 C 
HETATM   26  C   UNL     1       5.676  36.739  63.752  1.00  0.00     0.010 C 
ENDBRANCH  21  25
ENDBRANCH  16  19
ENDBRANCH   1  15
TORSDOF 3
ENDMDL
MODEL 8
REMARK VINA RESULT:      -8.8      3.955      4.931
REMARK  3 active torsions:
REMARK  status: ('A' for Active; 'I' for Inactive)
REMARK    1  A    between atoms: C_2  and  C_3 
REMARK    2  A    between atoms: C_5  and  N_6 
REMARK       I    between atoms: N_6  and  C_7 
REMARK    3  A    between atoms: C_7  and  C_8 
ROOT
HETATM    1  C   UNL     1       6.834  26.107  56.160  1.00  0.00     0.155 A 
HETATM    2  N   UNL     1       6.954  25.551  57.391  1.00  0.00    -0.168 NA
HETATM    3  N   UNL     1       7.263  24.258  57.138  1.00  0.00    -0.276 N 
HETATM    4  H   UNL     1       7.401  23.632  57.923  1.00  0.00     0.189 HD
HETATM    5  C   UNL     1       7.339  23.976  55.812  1.00  0.00     0.074 A 
HETATM    6  C   UNL     1       7.081  25.146  55.152  1.00  0.00     0.031 A 
HETATM    7  C   UNL     1       7.074  25.222  53.675  1.00  0.00     0.219 A 
HETATM    8  O   UNL     1       7.443  23.994  52.984  1.00  0.00    -0.346 OA
HETATM    9  C   UNL     1       7.647  22.836  53.704  1.00  0.00     0.081 A 
HETATM   10  C   UNL     1       7.616  22.749  55.111  1.00  0.00     0.026 A 
HETATM   11  C   UNL     1       7.906  21.694  52.947  1.00  0.00     0.038 A 
HETATM   12  C   UNL     1       8.128  20.470  53.579  1.00  0.00     0.003 A 
HETATM   13  C   UNL     1       8.094  20.385  54.973  1.00  0.00     0.001 A 
HETATM   14  C   UNL     1       7.839  21.524  55.742  1.00  0.00     0.016 A 
ENDROOT
BRANCH   1  15
HETATM   15  C   UNL     1       6.474  27.525  55.974  1.00  0.00     0.277 C 
HETATM   16  N   UNL     1       5.135  27.678  55.683  1.00  0.00    -0.322 N 
HETATM   17  H   UNL     1       4.626  26.796  55.664  1.00  0.00     0.169 HD
HETATM   18  O   UNL     1       7.315  28.411  56.072  1.00  0.00    -0.266 OA
BRANCH  16  19
HETATM   19  C   UNL     1       4.425  28.857  55.406  1.00  0.00     0.035 A 
HETATM   20  C   UNL     1       4.212  29.353  54.117  1.00  0.00     0.036 A 
HETATM   21  C   UNL     1       3.480  30.535  53.910  1.00  0.00    -0.056 A 
HETATM   22  C   UNL     1       2.971  31.227  55.015  1.00  0.00     0.007 A 
HETATM   23  C   UNL     1       3.180  30.740  56.302  1.00  0.00     0.003 A 
HETATM   24  C   UNL     1       3.901  29.560  56.497  1.00  0.00     0.029 A 
BRANCH  21  25
HETATM   25  C   UNL     1       3.269  31.060  52.512  1.00  0.00     0.034 C 
HETATM   26  C   UNL     1       3.940  32.410  52.307  1.00  0.00     0.010 C 
ENDBRANCH  21  25
ENDBRANCH  16  19
ENDBRANCH   1  15
TORSDOF 3
ENDMDL
MODEL 9
REMARK VINA RESULT:      -8.7      2.962      5.080
REMARK  3 active torsions:
REMARK  status: ('A' for Active; 'I' for Inactive)
REMARK    1  A    between atoms: C_2  and  C_3 
REMARK    2  A    between atoms: C_5  and  N_6 
REMARK       I    between atoms: N_6  and  C_7 
REMARK    3  A    between atoms: C_7  and  C_8 
ROOT
HETATM    1  C   UNL     1       6.441  30.361  57.639  1.00  0.00     0.155 A 
HETATM    2  N   UNL     1       5.459  30.634  56.745  1.00  0.00    -0.168 NA
HETATM    3  N   UNL     1       5.352  29.499  56.018  1.00  0.00    -0.276 N 
HETATM    4  H   UNL     1       4.668  29.467  55.270  1.00  0.00     0.189 HD
HETATM    5  C   UNL     1       6.217  28.529  56.410  1.00  0.00     0.074 A 
HETATM    6  C   UNL     1       6.926  29.045  57.460  1.00  0.00     0.031 A 
HETATM    7  C   UNL     1       7.976  28.263  58.149  1.00  0.00     0.219 A 
HETATM    8  O   UNL     1       8.139  26.891  57.689  1.00  0.00    -0.346 OA
HETATM    9  C   UNL     1       7.426  26.446  56.596  1.00  0.00     0.081 A 
HETATM   10  C   UNL     1       6.452  27.199  55.910  1.00  0.00     0.026 A 
HETATM   11  C   UNL     1       7.717  25.147  56.177  1.00  0.00     0.038 A 
HETATM   12  C   UNL     1       7.051  24.600  55.080  1.00  0.00     0.003 A 
HETATM   13  C   UNL     1       6.089  25.349  54.399  1.00  0.00     0.001 A 
HETATM   14  C   UNL     1       5.786  26.649  54.813  1.00  0.00     0.016 A 
ENDROOT
BRANCH   1  15
HETATM   15  C   UNL     1       6.900  31.356  58.626  1.00  0.00     0.277 C 
HETATM   16  N   UNL     1       5.955  31.575  59.607  1.00  0.00    -0.322 N 
HETATM   17  H   UNL     1       5.118  31.007  59.491  1.00  0.00     0.169 HD
HETATM   18  O   UNL     1       7.998  31.891  58.525  1.00  0.00    -0.266 OA
BRANCH  16  19
HETATM   19  C   UNL     1       6.004  32.467  60.690  1.00  0.00     0.035 A 
HETATM   20  C   UNL     1       6.860  32.317  61.784  1.00  0.00     0.036 A 
HETATM   21  C   UNL     1       6.865  33.256  62.830  1.00  0.00    -0.056 A 
HETATM   22  C   UNL     1       5.990  34.347  62.775  1.00  0.00     0.007 A 
HETATM   23  C   UNL     1       5.133  34.502  61.689  1.00  0.00     0.003 A 
HETATM   24  C   UNL     1       5.141  33.569  60.651  1.00  0.00     0.029 A 
BRANCH  21  25
HETATM   25  C   UNL     1       7.789  33.073  64.008  1.00  0.00     0.034 C 
HETATM   26  C   UNL     1       7.206  33.665  65.282  1.00  0.00     0.010 C 
ENDBRANCH  21  25
ENDBRANCH  16  19
ENDBRANCH   1  15
TORSDOF 3
ENDMDL
MODEL 10
REMARK VINA RESULT:      -8.6      3.069      8.742
REMARK  3 active torsions:
REMARK  status: ('A' for Active; 'I' for Inactive)
REMARK    1  A    between atoms: C_2  and  C_3 
REMARK    2  A    between atoms: C_5  and  N_6 
REMARK       I    between atoms: N_6  and  C_7 
REMARK    3  A    between atoms: C_7  and  C_8 
ROOT
HETATM    1  C   UNL     1       5.562  29.897  56.567  1.00  0.00     0.155 A 
HETATM    2  N   UNL     1       4.914  31.087  56.598  1.00  0.00    -0.168 NA
HETATM    3  N   UNL     1       5.512  31.760  57.607  1.00  0.00    -0.276 N 
HETATM    4  H   UNL     1       5.186  32.696  57.824  1.00  0.00     0.189 HD
HETATM    5  C   UNL     1       6.500  31.051  58.211  1.00  0.00     0.074 A 
HETATM    6  C   UNL     1       6.568  29.851  57.559  1.00  0.00     0.031 A 
HETATM    7  C   UNL     1       7.540  28.806  57.950  1.00  0.00     0.219 A 
HETATM    8  O   UNL     1       8.465  29.178  59.012  1.00  0.00    -0.346 OA
HETATM    9  C   UNL     1       8.315  30.385  59.660  1.00  0.00     0.081 A 
HETATM   10  C   UNL     1       7.365  31.369  59.318  1.00  0.00     0.026 A 
HETATM   11  C   UNL     1       9.192  30.611  60.721  1.00  0.00     0.038 A 
HETATM   12  C   UNL     1       9.124  31.804  61.444  1.00  0.00     0.003 A 
HETATM   13  C   UNL     1       8.180  32.775  61.105  1.00  0.00     0.001 A 
HETATM   14  C   UNL     1       7.299  32.561  60.041  1.00  0.00     0.016 A 
ENDROOT
BRANCH   1  15
HETATM   15  C   UNL     1       5.201  28.834  55.610  1.00  0.00     0.277 C 
HETATM   16  N   UNL     1       6.197  28.625  54.680  1.00  0.00    -0.322 N 
HETATM   17  H   UNL     1       7.010  29.222  54.821  1.00  0.00     0.169 HD
HETATM   18  O   UNL     1       4.125  28.251  55.685  1.00  0.00    -0.266 OA
BRANCH  16  19
HETATM   19  C   UNL     1       6.213  27.733  53.595  1.00  0.00     0.035 A 
HETATM   20  C   UNL     1       7.097  26.656  53.486  1.00  0.00     0.036 A 
HETATM   21  C   UNL     1       7.050  25.794  52.377  1.00  0.00    -0.056 A 
HETATM   22  C   UNL     1       6.112  26.031  51.365  1.00  0.00     0.007 A 
HETATM   23  C   UNL     1       5.229  27.103  51.466  1.00  0.00     0.003 A 
HETATM   24  C   UNL     1       5.278  27.948  52.576  1.00  0.00     0.029 A 
BRANCH  21  25
HETATM   25  C   UNL     1       8.018  24.642  52.271  1.00  0.00     0.034 C 
HETATM   26  C   UNL     1       7.446  23.366  52.869  1.00  0.00     0.010 C 
ENDBRANCH  21  25
ENDBRANCH  16  19
ENDBRANCH   1  15
TORSDOF 3
ENDMDL
