MODEL 1
REMARK VINA RESULT:     -10.6      0.000      0.000
REMARK  8 active torsions:
REMARK  status: ('A' for Active; 'I' for Inactive)
REMARK    1  A    between atoms: O_2  and  C_3 
REMARK    2  A    between atoms: C_4  and  C_5 
REMARK    3  A    between atoms: N_6  and  N_7 
REMARK    4  A    between atoms: C_18  and  C_19 
REMARK       I    between atoms: C_19  and  N_20 
REMARK    5  A    between atoms: N_20  and  C_21 
REMARK    6  A    between atoms: C_21  and  C_22 
REMARK    7  A    between atoms: C_22  and  C_23 
REMARK    8  A    between atoms: C_30  and  N_31 
ROOT
HETATM    1  N   UNL     1       5.456  25.478  53.219  1.00  0.00    -0.202 N 
HETATM    2  C   UNL     1       5.341  26.334  52.141  1.00  0.00     0.183 A 
HETATM    3  C   UNL     1       5.563  27.618  52.632  1.00  0.00     0.124 A 
HETATM    4  N   UNL     1       5.592  28.689  51.801  1.00  0.00    -0.242 NA
HETATM    5  C   UNL     1       5.331  28.416  50.517  1.00  0.00     0.086 A 
HETATM    6  C   UNL     1       5.096  27.099  50.041  1.00  0.00     0.088 A 
HETATM    7  N   UNL     1       5.131  26.016  50.841  1.00  0.00    -0.225 NA
HETATM    8  C   UNL     1       5.278  29.482  49.626  1.00  0.00     0.034 A 
HETATM    9  C   UNL     1       4.985  29.289  48.277  1.00  0.00     0.002 A 
HETATM   10  C   UNL     1       4.744  28.006  47.808  1.00  0.00     0.002 A 
HETATM   11  C   UNL     1       4.807  26.926  48.692  1.00  0.00     0.034 A 
HETATM   12  C   UNL     1       5.767  27.531  54.039  1.00  0.00     0.104 C 
HETATM   13  C   UNL     1       5.425  26.234  54.386  1.00  0.00     0.123 C 
ENDROOT
BRANCH  12  14
HETATM   14  C   UNL     1       6.315  28.560  54.913  1.00  0.00     0.257 C 
HETATM   15  N   UNL     1       7.584  28.294  55.382  1.00  0.00    -0.356 N 
HETATM   16  H   UNL     1       8.044  27.528  54.900  1.00  0.00     0.162 HD
HETATM   17  O   UNL     1       5.728  29.616  55.110  1.00  0.00    -0.267 OA
BRANCH  15  18
HETATM   18  C   UNL     1       8.464  29.298  55.949  1.00  0.00     0.127 C 
BRANCH  18  19
HETATM   19  C   UNL     1       8.927  29.101  57.399  1.00  0.00     0.053 C 
BRANCH  19  20
HETATM   20  C   UNL     1       8.623  30.238  58.350  1.00  0.00    -0.082 C 
HETATM   21  C   UNL     1       7.178  30.634  58.525  1.00  0.00     0.034 C 
HETATM   22  C   UNL     1       6.998  31.968  59.257  1.00  0.00     0.005 C 
HETATM   23  C   UNL     1       7.944  32.086  60.447  1.00  0.00     0.004 C 
HETATM   24  C   UNL     1       9.400  31.964  60.005  1.00  0.00     0.027 C 
HETATM   25  C   UNL     1       9.612  30.853  59.025  1.00  0.00    -0.024 C 
ENDBRANCH  19  20
ENDBRANCH  18  19
ENDBRANCH  15  18
ENDBRANCH  12  14
BRANCH  13  26
HETATM   26  N   UNL     1       5.292  25.611  55.605  1.00  0.00    -0.286 NA
HETATM   27  H   UNL     1       5.360  24.592  55.571  1.00  0.00     0.125 HD
HETATM   28  H   UNL     1       6.004  25.922  56.280  1.00  0.00     0.125 HD
ENDBRANCH  13  26
BRANCH   1  29
HETATM   29  N   UNL     1       5.752  24.138  53.277  1.00  0.00    -0.176 NA
HETATM   30  C   UNL     1       7.039  23.960  53.339  1.00  0.00     0.153 C 
BRANCH  30  31
HETATM   31  C   UNL     1       7.633  22.695  53.827  1.00  0.00     0.016 A 
HETATM   32  C   UNL     1       7.722  22.462  55.212  1.00  0.00     0.080 A 
HETATM   33  C   UNL     1       8.091  21.188  55.656  1.00  0.00     0.037 A 
HETATM   34  C   UNL     1       8.362  20.167  54.740  1.00  0.00     0.003 A 
HETATM   35  C   UNL     1       8.285  20.411  53.370  1.00  0.00     0.001 A 
HETATM   36  C   UNL     1       7.922  21.675  52.911  1.00  0.00     0.016 A 
BRANCH  32  37
HETATM   37  O   UNL     1       7.412  23.511  56.037  1.00  0.00    -0.355 OA
HETATM   38  C   UNL     1       8.370  23.896  57.015  1.00  0.00     0.210 C 
ENDBRANCH  32  37
ENDBRANCH  30  31
ENDBRANCH   1  29
TORSDOF 8
ENDMDL
MODEL 2
REMARK VINA RESULT:     -10.4      2.379      3.662
REMARK  8 active torsions:
REMARK  status: ('A' for Active; 'I' for Inactive)
REMARK    1  A    between atoms: O_2  and  C_3 
REMARK    2  A    between atoms: C_4  and  C_5 
REMARK    3  A    between atoms: N_6  and  N_7 
REMARK    4  A    between atoms: C_18  and  C_19 
REMARK       I    between atoms: C_19  and  N_20 
REMARK    5  A    between atoms: N_20  and  C_21 
REMARK    6  A    between atoms: C_21  and  C_22 
REMARK    7  A    between atoms: C_22  and  C_23 
REMARK    8  A    between atoms: C_30  and  N_31 
ROOT
HETATM    1  N   UNL     1       7.063  26.277  56.168  1.00  0.00    -0.202 N 
HETATM    2  C   UNL     1       6.247  27.119  55.437  1.00  0.00     0.183 A 
HETATM    3  C   UNL     1       6.270  28.351  56.086  1.00  0.00     0.124 A 
HETATM    4  N   UNL     1       5.619  29.423  55.571  1.00  0.00    -0.242 NA
HETATM    5  C   UNL     1       4.922  29.181  54.454  1.00  0.00     0.086 A 
HETATM    6  C   UNL     1       4.906  27.912  53.817  1.00  0.00     0.088 A 
HETATM    7  N   UNL     1       5.601  26.854  54.277  1.00  0.00    -0.225 NA
HETATM    8  C   UNL     1       4.178  30.223  53.915  1.00  0.00     0.034 A 
HETATM    9  C   UNL     1       3.402  30.049  52.769  1.00  0.00     0.002 A 
HETATM   10  C   UNL     1       3.373  28.808  52.149  1.00  0.00     0.002 A 
HETATM   11  C   UNL     1       4.128  27.756  52.674  1.00  0.00     0.034 A 
HETATM   12  C   UNL     1       7.076  28.230  57.252  1.00  0.00     0.104 C 
HETATM   13  C   UNL     1       7.318  26.873  57.400  1.00  0.00     0.123 C 
ENDROOT
BRANCH  12  14
HETATM   14  C   UNL     1       7.617  29.312  58.064  1.00  0.00     0.257 C 
HETATM   15  N   UNL     1       7.045  30.544  57.827  1.00  0.00    -0.356 N 
HETATM   16  H   UNL     1       6.193  30.498  57.278  1.00  0.00     0.162 HD
HETATM   17  O   UNL     1       8.432  29.103  58.954  1.00  0.00    -0.267 OA
BRANCH  15  18
HETATM   18  C   UNL     1       7.146  31.670  58.736  1.00  0.00     0.127 C 
BRANCH  18  19
HETATM   19  C   UNL     1       6.073  31.801  59.827  1.00  0.00     0.053 C 
BRANCH  19  20
HETATM   20  C   UNL     1       6.552  32.321  61.165  1.00  0.00    -0.082 C 
HETATM   21  C   UNL     1       5.706  33.363  61.851  1.00  0.00     0.034 C 
HETATM   22  C   UNL     1       6.413  34.040  63.031  1.00  0.00     0.005 C 
HETATM   23  C   UNL     1       7.173  33.029  63.883  1.00  0.00     0.004 C 
HETATM   24  C   UNL     1       8.214  32.284  63.051  1.00  0.00     0.027 C 
HETATM   25  C   UNL     1       7.683  31.849  61.721  1.00  0.00    -0.024 C 
ENDBRANCH  19  20
ENDBRANCH  18  19
ENDBRANCH  15  18
ENDBRANCH  12  14
BRANCH  13  26
HETATM   26  N   UNL     1       7.915  26.147  58.403  1.00  0.00    -0.286 NA
HETATM   27  H   UNL     1       8.829  26.498  58.695  1.00  0.00     0.125 HD
HETATM   28  H   UNL     1       7.337  26.113  59.255  1.00  0.00     0.125 HD
ENDBRANCH  13  26
BRANCH   1  29
HETATM   29  N   UNL     1       7.736  25.137  55.806  1.00  0.00    -0.176 NA
HETATM   30  C   UNL     1       6.915  24.131  55.726  1.00  0.00     0.153 C 
BRANCH  30  31
HETATM   31  C   UNL     1       7.248  22.904  54.969  1.00  0.00     0.016 A 
HETATM   32  C   UNL     1       7.329  22.958  53.565  1.00  0.00     0.080 A 
HETATM   33  C   UNL     1       7.844  21.854  52.879  1.00  0.00     0.037 A 
HETATM   34  C   UNL     1       8.272  20.720  53.576  1.00  0.00     0.003 A 
HETATM   35  C   UNL     1       8.175  20.669  54.965  1.00  0.00     0.001 A 
HETATM   36  C   UNL     1       7.661  21.760  55.665  1.00  0.00     0.016 A 
BRANCH  32  37
HETATM   37  O   UNL     1       6.914  24.118  52.965  1.00  0.00    -0.355 OA
HETATM   38  C   UNL     1       7.847  24.818  52.151  1.00  0.00     0.210 C 
ENDBRANCH  32  37
ENDBRANCH  30  31
ENDBRANCH   1  29
TORSDOF 8
ENDMDL
MODEL 3
REMARK VINA RESULT:     -10.3      1.905      8.582
REMARK  8 active torsions:
REMARK  status: ('A' for Active; 'I' for Inactive)
REMARK    1  A    between atoms: O_2  and  C_3 
REMARK    2  A    between atoms: C_4  and  C_5 
REMARK    3  A    between atoms: N_6  and  N_7 
REMARK    4  A    between atoms: C_18  and  C_19 
REMARK       I    between atoms: C_19  and  N_20 
REMARK    5  A    between atoms: N_20  and  C_21 
REMARK    6  A    between atoms: C_21  and  C_22 
REMARK    7  A    between atoms: C_22  and  C_23 
REMARK    8  A    between atoms: C_30  and  N_31 
ROOT
HETATM    1  N   UNL     1       6.429  25.746  55.887  1.00  0.00    -0.202 N 
HETATM    2  C   UNL     1       6.910  24.516  55.484  1.00  0.00     0.183 A 
HETATM    3  C   UNL     1       6.475  24.333  54.174  1.00  0.00     0.124 A 
HETATM    4  N   UNL     1       6.845  23.241  53.461  1.00  0.00    -0.242 NA
HETATM    5  C   UNL     1       7.590  22.353  54.131  1.00  0.00     0.086 A 
HETATM    6  C   UNL     1       8.013  22.557  55.471  1.00  0.00     0.088 A 
HETATM    7  N   UNL     1       7.711  23.666  56.171  1.00  0.00    -0.225 NA
HETATM    8  C   UNL     1       7.945  21.180  53.475  1.00  0.00     0.034 A 
HETATM    9  C   UNL     1       8.696  20.190  54.109  1.00  0.00     0.002 A 
HETATM   10  C   UNL     1       9.102  20.378  55.422  1.00  0.00     0.002 A 
HETATM   11  C   UNL     1       8.762  21.560  56.086  1.00  0.00     0.034 A 
HETATM   12  C   UNL     1       5.679  25.454  53.804  1.00  0.00     0.104 C 
HETATM   13  C   UNL     1       5.462  26.160  54.977  1.00  0.00     0.123 C 
ENDROOT
BRANCH  12  14
HETATM   14  C   UNL     1       5.264  25.833  52.460  1.00  0.00     0.257 C 
HETATM   15  N   UNL     1       5.511  27.151  52.137  1.00  0.00    -0.356 N 
HETATM   16  H   UNL     1       6.128  27.621  52.791  1.00  0.00     0.162 HD
HETATM   17  O   UNL     1       4.837  25.008  51.662  1.00  0.00    -0.267 OA
BRANCH  15  18
HETATM   18  C   UNL     1       5.530  27.660  50.778  1.00  0.00     0.127 C 
BRANCH  18  19
HETATM   19  C   UNL     1       4.248  28.314  50.247  1.00  0.00     0.053 C 
BRANCH  19  20
HETATM   20  C   UNL     1       3.491  27.528  49.198  1.00  0.00    -0.082 C 
HETATM   21  C   UNL     1       2.144  28.055  48.769  1.00  0.00     0.034 C 
HETATM   22  C   UNL     1       1.333  27.048  47.944  1.00  0.00     0.005 C 
HETATM   23  C   UNL     1       2.206  26.333  46.919  1.00  0.00     0.004 C 
HETATM   24  C   UNL     1       3.357  25.593  47.598  1.00  0.00     0.027 C 
HETATM   25  C   UNL     1       4.019  26.414  48.660  1.00  0.00    -0.024 C 
ENDBRANCH  19  20
ENDBRANCH  18  19
ENDBRANCH  15  18
ENDBRANCH  12  14
BRANCH  13  26
HETATM   26  N   UNL     1       4.664  27.241  55.266  1.00  0.00    -0.286 NA
HETATM   27  H   UNL     1       4.689  27.987  54.568  1.00  0.00     0.125 HD
HETATM   28  H   UNL     1       3.674  26.979  55.367  1.00  0.00     0.125 HD
ENDBRANCH  13  26
BRANCH   1  29
HETATM   29  N   UNL     1       6.867  26.609  56.862  1.00  0.00    -0.176 NA
HETATM   30  C   UNL     1       7.806  27.380  56.397  1.00  0.00     0.153 C 
BRANCH  30  31
HETATM   31  C   UNL     1       8.169  28.657  57.052  1.00  0.00     0.016 A 
HETATM   32  C   UNL     1       7.173  29.407  57.704  1.00  0.00     0.080 A 
HETATM   33  C   UNL     1       7.560  30.497  58.491  1.00  0.00     0.037 A 
HETATM   34  C   UNL     1       8.911  30.829  58.629  1.00  0.00     0.003 A 
HETATM   35  C   UNL     1       9.889  30.089  57.969  1.00  0.00     0.001 A 
HETATM   36  C   UNL     1       9.521  29.003  57.178  1.00  0.00     0.016 A 
BRANCH  32  37
HETATM   37  O   UNL     1       5.877  28.994  57.537  1.00  0.00    -0.355 OA
HETATM   38  C   UNL     1       4.859  29.987  57.508  1.00  0.00     0.210 C 
ENDBRANCH  32  37
ENDBRANCH  30  31
ENDBRANCH   1  29
TORSDOF 8
ENDMDL
MODEL 4
REMARK VINA RESULT:     -10.3      1.726      6.101
REMARK  8 active torsions:
REMARK  status: ('A' for Active; 'I' for Inactive)
REMARK    1  A    between atoms: O_2  and  C_3 
REMARK    2  A    between atoms: C_4  and  C_5 
REMARK    3  A    between atoms: N_6  and  N_7 
REMARK    4  A    between atoms: C_18  and  C_19 
REMARK       I    between atoms: C_19  and  N_20 
REMARK    5  A    between atoms: N_20  and  C_21 
REMARK    6  A    between atoms: C_21  and  C_22 
REMARK    7  A    between atoms: C_22  and  C_23 
REMARK    8  A    between atoms: C_30  and  N_31 
ROOT
HETATM    1  N   UNL     1       7.402  25.931  53.054  1.00  0.00    -0.202 N 
HETATM    2  C   UNL     1       7.640  24.704  53.643  1.00  0.00     0.183 A 
HETATM    3  C   UNL     1       7.606  24.914  55.019  1.00  0.00     0.124 A 
HETATM    4  N   UNL     1       7.735  23.880  55.886  1.00  0.00    -0.242 NA
HETATM    5  C   UNL     1       7.954  22.687  55.319  1.00  0.00     0.086 A 
HETATM    6  C   UNL     1       7.995  22.500  53.912  1.00  0.00     0.088 A 
HETATM    7  N   UNL     1       7.802  23.504  53.035  1.00  0.00    -0.225 NA
HETATM    8  C   UNL     1       8.161  21.599  56.157  1.00  0.00     0.034 A 
HETATM    9  C   UNL     1       8.424  20.327  55.649  1.00  0.00     0.002 A 
HETATM   10  C   UNL     1       8.476  20.140  54.275  1.00  0.00     0.002 A 
HETATM   11  C   UNL     1       8.256  21.225  53.422  1.00  0.00     0.034 A 
HETATM   12  C   UNL     1       7.392  26.301  55.257  1.00  0.00     0.104 C 
HETATM   13  C   UNL     1       7.541  26.918  54.024  1.00  0.00     0.123 C 
ENDROOT
BRANCH  12  14
HETATM   14  C   UNL     1       6.998  26.927  56.512  1.00  0.00     0.257 C 
HETATM   15  N   UNL     1       7.925  27.811  57.024  1.00  0.00    -0.356 N 
HETATM   16  H   UNL     1       8.655  28.062  56.365  1.00  0.00     0.162 HD
HETATM   17  O   UNL     1       5.887  26.756  56.996  1.00  0.00    -0.267 OA
BRANCH  15  18
HETATM   18  C   UNL     1       7.620  28.808  58.033  1.00  0.00     0.127 C 
BRANCH  18  19
HETATM   19  C   UNL     1       8.545  30.029  58.127  1.00  0.00     0.053 C 
BRANCH  19  20
HETATM   20  C   UNL     1       8.464  30.821  59.415  1.00  0.00    -0.082 C 
HETATM   21  C   UNL     1       7.187  31.572  59.692  1.00  0.00     0.034 C 
HETATM   22  C   UNL     1       7.308  32.572  60.848  1.00  0.00     0.005 C 
HETATM   23  C   UNL     1       8.085  31.982  62.019  1.00  0.00     0.004 C 
HETATM   24  C   UNL     1       9.488  31.558  61.589  1.00  0.00     0.027 C 
HETATM   25  C   UNL     1       9.493  30.829  60.282  1.00  0.00    -0.024 C 
ENDBRANCH  19  20
ENDBRANCH  18  19
ENDBRANCH  15  18
ENDBRANCH  12  14
BRANCH  13  26
HETATM   26  N   UNL     1       7.581  28.242  53.657  1.00  0.00    -0.286 NA
HETATM   27  H   UNL     1       6.667  28.695  53.599  1.00  0.00     0.125 HD
HETATM   28  H   UNL     1       8.140  28.810  54.308  1.00  0.00     0.125 HD
ENDBRANCH  13  26
BRANCH   1  29
HETATM   29  N   UNL     1       6.914  26.254  51.812  1.00  0.00    -0.176 NA
HETATM   30  C   UNL     1       5.616  26.164  51.796  1.00  0.00     0.153 C 
BRANCH  30  31
HETATM   31  C   UNL     1       4.795  26.840  50.766  1.00  0.00     0.016 A 
HETATM   32  C   UNL     1       4.375  28.166  50.976  1.00  0.00     0.080 A 
HETATM   33  C   UNL     1       3.782  28.859  49.916  1.00  0.00     0.037 A 
HETATM   34  C   UNL     1       3.615  28.244  48.671  1.00  0.00     0.003 A 
HETATM   35  C   UNL     1       4.020  26.925  48.477  1.00  0.00     0.001 A 
HETATM   36  C   UNL     1       4.610  26.220  49.523  1.00  0.00     0.016 A 
BRANCH  32  37
HETATM   37  O   UNL     1       4.605  28.699  52.217  1.00  0.00    -0.355 OA
HETATM   38  C   UNL     1       3.488  28.893  53.077  1.00  0.00     0.210 C 
ENDBRANCH  32  37
ENDBRANCH  30  31
ENDBRANCH   1  29
TORSDOF 8
ENDMDL
MODEL 5
REMARK VINA RESULT:     -10.3      1.844      8.799
REMARK  8 active torsions:
REMARK  status: ('A' for Active; 'I' for Inactive)
REMARK    1  A    between atoms: O_2  and  C_3 
REMARK    2  A    between atoms: C_4  and  C_5 
REMARK    3  A    between atoms: N_6  and  N_7 
REMARK    4  A    between atoms: C_18  and  C_19 
REMARK       I    between atoms: C_19  and  N_20 
REMARK    5  A    between atoms: N_20  and  C_21 
REMARK    6  A    between atoms: C_21  and  C_22 
REMARK    7  A    between atoms: C_22  and  C_23 
REMARK    8  A    between atoms: C_30  and  N_31 
ROOT
HETATM    1  N   UNL     1       6.082  27.071  56.482  1.00  0.00    -0.202 N 
HETATM    2  C   UNL     1       6.646  25.995  55.824  1.00  0.00     0.183 A 
HETATM    3  C   UNL     1       6.116  25.998  54.537  1.00  0.00     0.124 A 
HETATM    4  N   UNL     1       6.529  25.099  53.609  1.00  0.00    -0.242 NA
HETATM    5  C   UNL     1       7.416  24.199  54.049  1.00  0.00     0.086 A 
HETATM    6  C   UNL     1       7.935  24.210  55.370  1.00  0.00     0.088 A 
HETATM    7  N   UNL     1       7.587  25.135  56.284  1.00  0.00    -0.225 NA
HETATM    8  C   UNL     1       7.827  23.209  53.164  1.00  0.00     0.034 A 
HETATM    9  C   UNL     1       8.727  22.216  53.548  1.00  0.00     0.002 A 
HETATM   10  C   UNL     1       9.229  22.215  54.841  1.00  0.00     0.002 A 
HETATM   11  C   UNL     1       8.833  23.213  55.736  1.00  0.00     0.034 A 
HETATM   12  C   UNL     1       5.181  27.067  54.439  1.00  0.00     0.104 C 
HETATM   13  C   UNL     1       5.000  27.525  55.735  1.00  0.00     0.123 C 
ENDROOT
BRANCH  12  14
HETATM   14  C   UNL     1       4.611  27.628  53.221  1.00  0.00     0.257 C 
HETATM   15  N   UNL     1       5.480  27.671  52.151  1.00  0.00    -0.356 N 
HETATM   16  H   UNL     1       6.324  27.125  52.290  1.00  0.00     0.162 HD
HETATM   17  O   UNL     1       3.426  27.925  53.143  1.00  0.00    -0.267 OA
BRANCH  15  18
HETATM   18  C   UNL     1       5.058  27.834  50.773  1.00  0.00     0.127 C 
BRANCH  18  19
HETATM   19  C   UNL     1       4.825  26.563  49.946  1.00  0.00     0.053 C 
BRANCH  19  20
HETATM   20  C   UNL     1       3.840  26.689  48.804  1.00  0.00    -0.082 C 
HETATM   21  C   UNL     1       3.294  25.415  48.209  1.00  0.00     0.034 C 
HETATM   22  C   UNL     1       2.554  25.631  46.884  1.00  0.00     0.005 C 
HETATM   23  C   UNL     1       1.657  26.863  46.938  1.00  0.00     0.004 C 
HETATM   24  C   UNL     1       2.466  28.118  47.256  1.00  0.00     0.027 C 
HETATM   25  C   UNL     1       3.456  27.899  48.357  1.00  0.00    -0.024 C 
ENDBRANCH  19  20
ENDBRANCH  18  19
ENDBRANCH  15  18
ENDBRANCH  12  14
BRANCH  13  26
HETATM   26  N   UNL     1       4.127  28.439  56.275  1.00  0.00    -0.286 NA
HETATM   27  H   UNL     1       3.622  28.108  57.099  1.00  0.00     0.125 HD
HETATM   28  H   UNL     1       4.599  29.308  56.559  1.00  0.00     0.125 HD
ENDBRANCH  13  26
BRANCH   1  29
HETATM   29  N   UNL     1       6.517  27.792  57.566  1.00  0.00    -0.176 NA
HETATM   30  C   UNL     1       7.260  28.787  57.182  1.00  0.00     0.153 C 
BRANCH  30  31
HETATM   31  C   UNL     1       7.517  29.958  58.051  1.00  0.00     0.016 A 
HETATM   32  C   UNL     1       6.557  30.983  58.132  1.00  0.00     0.080 A 
HETATM   33  C   UNL     1       6.713  31.974  59.107  1.00  0.00     0.037 A 
HETATM   34  C   UNL     1       7.801  31.942  59.985  1.00  0.00     0.003 A 
HETATM   35  C   UNL     1       8.754  30.931  59.888  1.00  0.00     0.001 A 
HETATM   36  C   UNL     1       8.616  29.937  58.921  1.00  0.00     0.016 A 
BRANCH  32  37
HETATM   37  O   UNL     1       5.509  30.921  57.252  1.00  0.00    -0.355 OA
HETATM   38  C   UNL     1       5.054  32.136  56.669  1.00  0.00     0.210 C 
ENDBRANCH  32  37
ENDBRANCH  30  31
ENDBRANCH   1  29
TORSDOF 8
ENDMDL
MODEL 6
REMARK VINA RESULT:     -10.2      1.638      7.327
REMARK  8 active torsions:
REMARK  status: ('A' for Active; 'I' for Inactive)
REMARK    1  A    between atoms: O_2  and  C_3 
REMARK    2  A    between atoms: C_4  and  C_5 
REMARK    3  A    between atoms: N_6  and  N_7 
REMARK    4  A    between atoms: C_18  and  C_19 
REMARK       I    between atoms: C_19  and  N_20 
REMARK    5  A    between atoms: N_20  and  C_21 
REMARK    6  A    between atoms: C_21  and  C_22 
REMARK    7  A    between atoms: C_22  and  C_23 
REMARK    8  A    between atoms: C_30  and  N_31 
ROOT
HETATM    1  N   UNL     1       6.620  25.915  53.290  1.00  0.00    -0.202 N 
HETATM    2  C   UNL     1       6.743  26.856  54.294  1.00  0.00     0.183 A 
HETATM    3  C   UNL     1       6.105  28.006  53.836  1.00  0.00     0.124 A 
HETATM    4  N   UNL     1       5.986  29.101  54.627  1.00  0.00    -0.242 NA
HETATM    5  C   UNL     1       6.575  29.002  55.824  1.00  0.00     0.086 A 
HETATM    6  C   UNL     1       7.231  27.822  56.265  1.00  0.00     0.088 A 
HETATM    7  N   UNL     1       7.299  26.702  55.519  1.00  0.00    -0.225 NA
HETATM    8  C   UNL     1       6.547  30.116  56.655  1.00  0.00     0.034 A 
HETATM    9  C   UNL     1       7.161  30.107  57.907  1.00  0.00     0.002 A 
HETATM   10  C   UNL     1       7.812  28.960  58.338  1.00  0.00     0.002 A 
HETATM   11  C   UNL     1       7.836  27.830  57.517  1.00  0.00     0.034 A 
HETATM   12  C   UNL     1       5.633  27.762  52.515  1.00  0.00     0.104 C 
HETATM   13  C   UNL     1       6.209  26.561  52.129  1.00  0.00     0.123 C 
ENDROOT
BRANCH  12  14
HETATM   14  C   UNL     1       4.669  28.556  51.764  1.00  0.00     0.257 C 
HETATM   15  N   UNL     1       5.202  29.232  50.687  1.00  0.00    -0.356 N 
HETATM   16  H   UNL     1       6.138  28.928  50.438  1.00  0.00     0.162 HD
HETATM   17  O   UNL     1       3.472  28.523  52.018  1.00  0.00    -0.267 OA
BRANCH  15  18
HETATM   18  C   UNL     1       4.409  29.774  49.600  1.00  0.00     0.127 C 
BRANCH  18  19
HETATM   19  C   UNL     1       4.630  29.189  48.198  1.00  0.00     0.053 C 
BRANCH  19  20
HETATM   20  C   UNL     1       3.799  27.973  47.852  1.00  0.00    -0.082 C 
HETATM   21  C   UNL     1       2.475  28.206  47.169  1.00  0.00     0.034 C 
HETATM   22  C   UNL     1       1.582  26.960  47.133  1.00  0.00     0.005 C 
HETATM   23  C   UNL     1       2.381  25.709  46.787  1.00  0.00     0.004 C 
HETATM   24  C   UNL     1       3.504  25.477  47.795  1.00  0.00     0.027 C 
HETATM   25  C   UNL     1       4.244  26.734  48.129  1.00  0.00    -0.024 C 
ENDBRANCH  19  20
ENDBRANCH  18  19
ENDBRANCH  15  18
ENDBRANCH  12  14
BRANCH  13  26
HETATM   26  N   UNL     1       6.230  25.895  50.927  1.00  0.00    -0.286 NA
HETATM   27  H   UNL     1       7.095  26.007  50.394  1.00  0.00     0.125 HD
HETATM   28  H   UNL     1       6.095  24.881  51.042  1.00  0.00     0.125 HD
ENDBRANCH  13  26
BRANCH   1  29
HETATM   29  N   UNL     1       6.666  24.543  53.332  1.00  0.00    -0.176 NA
HETATM   30  C   UNL     1       7.898  24.129  53.293  1.00  0.00     0.153 C 
BRANCH  30  31
HETATM   31  C   UNL     1       8.284  22.771  53.739  1.00  0.00     0.016 A 
HETATM   32  C   UNL     1       8.771  22.585  55.046  1.00  0.00     0.080 A 
HETATM   33  C   UNL     1       8.934  21.279  55.522  1.00  0.00     0.037 A 
HETATM   34  C   UNL     1       8.615  20.183  54.715  1.00  0.00     0.003 A 
HETATM   35  C   UNL     1       8.147  20.378  53.417  1.00  0.00     0.001 A 
HETATM   36  C   UNL     1       7.981  21.671  52.926  1.00  0.00     0.016 A 
BRANCH  32  37
HETATM   37  O   UNL     1       9.030  23.714  55.777  1.00  0.00    -0.355 OA
HETATM   38  C   UNL     1       8.568  23.759  57.122  1.00  0.00     0.210 C 
ENDBRANCH  32  37
ENDBRANCH  30  31
ENDBRANCH   1  29
TORSDOF 8
ENDMDL
MODEL 7
REMARK VINA RESULT:     -10.0      2.719      8.551
REMARK  8 active torsions:
REMARK  status: ('A' for Active; 'I' for Inactive)
REMARK    1  A    between atoms: O_2  and  C_3 
REMARK    2  A    between atoms: C_4  and  C_5 
REMARK    3  A    between atoms: N_6  and  N_7 
REMARK    4  A    between atoms: C_18  and  C_19 
REMARK       I    between atoms: C_19  and  N_20 
REMARK    5  A    between atoms: N_20  and  C_21 
REMARK    6  A    between atoms: C_21  and  C_22 
REMARK    7  A    between atoms: C_22  and  C_23 
REMARK    8  A    between atoms: C_30  and  N_31 
ROOT
HETATM    1  N   UNL     1       7.211  28.801  57.297  1.00  0.00    -0.202 N 
HETATM    2  C   UNL     1       6.308  29.398  56.441  1.00  0.00     0.183 A 
HETATM    3  C   UNL     1       5.877  28.404  55.567  1.00  0.00     0.124 A 
HETATM    4  N   UNL     1       4.920  28.656  54.639  1.00  0.00    -0.242 NA
HETATM    5  C   UNL     1       4.490  29.923  54.599  1.00  0.00     0.086 A 
HETATM    6  C   UNL     1       4.953  30.922  55.495  1.00  0.00     0.088 A 
HETATM    7  N   UNL     1       5.852  30.674  56.466  1.00  0.00    -0.225 NA
HETATM    8  C   UNL     1       3.559  30.260  53.624  1.00  0.00     0.034 A 
HETATM    9  C   UNL     1       3.078  31.563  53.495  1.00  0.00     0.002 A 
HETATM   10  C   UNL     1       3.535  32.546  54.360  1.00  0.00     0.002 A 
HETATM   11  C   UNL     1       4.461  32.216  55.352  1.00  0.00     0.034 A 
HETATM   12  C   UNL     1       6.572  27.201  55.876  1.00  0.00     0.104 C 
HETATM   13  C   UNL     1       7.570  27.566  56.766  1.00  0.00     0.123 C 
ENDROOT
BRANCH  12  14
HETATM   14  C   UNL     1       6.241  25.854  55.430  1.00  0.00     0.257 C 
HETATM   15  N   UNL     1       6.059  25.732  54.069  1.00  0.00    -0.356 N 
HETATM   16  H   UNL     1       6.377  26.539  53.542  1.00  0.00     0.162 HD
HETATM   17  O   UNL     1       6.242  24.903  56.201  1.00  0.00    -0.267 OA
BRANCH  15  18
HETATM   18  C   UNL     1       6.088  24.467  53.359  1.00  0.00     0.127 C 
BRANCH  18  19
HETATM   19  C   UNL     1       7.448  23.969  52.851  1.00  0.00     0.053 C 
BRANCH  19  20
HETATM   20  C   UNL     1       7.965  22.698  53.489  1.00  0.00    -0.082 C 
HETATM   21  C   UNL     1       8.531  22.797  54.883  1.00  0.00     0.034 C 
HETATM   22  C   UNL     1       9.296  21.542  55.320  1.00  0.00     0.005 C 
HETATM   23  C   UNL     1       8.562  20.269  54.910  1.00  0.00     0.004 C 
HETATM   24  C   UNL     1       8.357  20.216  53.398  1.00  0.00     0.027 C 
HETATM   25  C   UNL     1       7.899  21.524  52.834  1.00  0.00    -0.024 C 
ENDBRANCH  19  20
ENDBRANCH  18  19
ENDBRANCH  15  18
ENDBRANCH  12  14
BRANCH  13  26
HETATM   26  N   UNL     1       8.626  26.868  57.302  1.00  0.00    -0.286 NA
HETATM   27  H   UNL     1       9.221  26.402  56.614  1.00  0.00     0.125 HD
HETATM   28  H   UNL     1       9.249  27.470  57.858  1.00  0.00     0.125 HD
ENDBRANCH  13  26
BRANCH   1  29
HETATM   29  N   UNL     1       7.617  29.146  58.563  1.00  0.00    -0.176 NA
HETATM   30  C   UNL     1       8.106  30.352  58.570  1.00  0.00     0.153 C 
BRANCH  30  31
HETATM   31  C   UNL     1       8.227  31.143  59.815  1.00  0.00     0.016 A 
HETATM   32  C   UNL     1       7.097  31.811  60.323  1.00  0.00     0.080 A 
HETATM   33  C   UNL     1       7.170  32.378  61.599  1.00  0.00     0.037 A 
HETATM   34  C   UNL     1       8.342  32.279  62.355  1.00  0.00     0.003 A 
HETATM   35  C   UNL     1       9.460  31.628  61.838  1.00  0.00     0.001 A 
HETATM   36  C   UNL     1       9.406  31.060  60.568  1.00  0.00     0.016 A 
BRANCH  32  37
HETATM   37  O   UNL     1       5.983  31.836  59.527  1.00  0.00    -0.355 OA
HETATM   38  C   UNL     1       5.325  33.083  59.339  1.00  0.00     0.210 C 
ENDBRANCH  32  37
ENDBRANCH  30  31
ENDBRANCH   1  29
TORSDOF 8
ENDMDL
MODEL 8
REMARK VINA RESULT:      -9.9      2.564      5.969
REMARK  8 active torsions:
REMARK  status: ('A' for Active; 'I' for Inactive)
REMARK    1  A    between atoms: O_2  and  C_3 
REMARK    2  A    between atoms: C_4  and  C_5 
REMARK    3  A    between atoms: N_6  and  N_7 
REMARK    4  A    between atoms: C_18  and  C_19 
REMARK       I    between atoms: C_19  and  N_20 
REMARK    5  A    between atoms: N_20  and  C_21 
REMARK    6  A    between atoms: C_21  and  C_22 
REMARK    7  A    between atoms: C_22  and  C_23 
REMARK    8  A    between atoms: C_30  and  N_31 
ROOT
HETATM    1  N   UNL     1       5.814  28.125  56.089  1.00  0.00    -0.202 N 
HETATM    2  C   UNL     1       6.905  28.820  56.571  1.00  0.00     0.183 A 
HETATM    3  C   UNL     1       6.398  29.914  57.269  1.00  0.00     0.124 A 
HETATM    4  N   UNL     1       7.223  30.763  57.931  1.00  0.00    -0.242 NA
HETATM    5  C   UNL     1       8.529  30.500  57.802  1.00  0.00     0.086 A 
HETATM    6  C   UNL     1       9.022  29.384  57.075  1.00  0.00     0.088 A 
HETATM    7  N   UNL     1       8.215  28.492  56.468  1.00  0.00    -0.225 NA
HETATM    8  C   UNL     1       9.428  31.374  58.401  1.00  0.00     0.034 A 
HETATM    9  C   UNL     1      10.806  31.189  58.293  1.00  0.00     0.002 A 
HETATM   10  C   UNL     1      11.294  30.107  57.575  1.00  0.00     0.002 A 
HETATM   11  C   UNL     1      10.399  29.214  56.979  1.00  0.00     0.034 A 
HETATM   12  C   UNL     1       4.979  29.897  57.161  1.00  0.00     0.104 C 
HETATM   13  C   UNL     1       4.689  28.935  56.206  1.00  0.00     0.123 C 
ENDROOT
BRANCH  12  14
HETATM   14  C   UNL     1       4.027  30.659  57.959  1.00  0.00     0.257 C 
HETATM   15  N   UNL     1       4.523  31.106  59.166  1.00  0.00    -0.356 N 
HETATM   16  H   UNL     1       5.531  31.025  59.246  1.00  0.00     0.162 HD
HETATM   17  O   UNL     1       2.922  30.961  57.526  1.00  0.00    -0.267 OA
BRANCH  15  18
HETATM   18  C   UNL     1       3.913  32.165  59.947  1.00  0.00     0.127 C 
BRANCH  18  19
HETATM   19  C   UNL     1       4.089  32.114  61.471  1.00  0.00     0.053 C 
BRANCH  19  20
HETATM   20  C   UNL     1       5.493  32.351  61.982  1.00  0.00    -0.082 C 
HETATM   21  C   UNL     1       5.690  32.416  63.476  1.00  0.00     0.034 C 
HETATM   22  C   UNL     1       7.066  32.955  63.885  1.00  0.00     0.005 C 
HETATM   23  C   UNL     1       8.176  32.368  63.019  1.00  0.00     0.004 C 
HETATM   24  C   UNL     1       7.946  32.684  61.543  1.00  0.00     0.027 C 
HETATM   25  C   UNL     1       6.524  32.478  61.126  1.00  0.00    -0.024 C 
ENDBRANCH  19  20
ENDBRANCH  18  19
ENDBRANCH  15  18
ENDBRANCH  12  14
BRANCH  13  26
HETATM   26  N   UNL     1       3.513  28.572  55.592  1.00  0.00    -0.286 NA
HETATM   27  H   UNL     1       3.544  27.668  55.117  1.00  0.00     0.125 HD
HETATM   28  H   UNL     1       2.728  28.521  56.255  1.00  0.00     0.125 HD
ENDBRANCH  13  26
BRANCH   1  29
HETATM   29  N   UNL     1       5.675  26.809  55.720  1.00  0.00    -0.176 NA
HETATM   30  C   UNL     1       6.347  26.569  54.633  1.00  0.00     0.153 C 
BRANCH  30  31
HETATM   31  C   UNL     1       6.733  25.196  54.236  1.00  0.00     0.016 A 
HETATM   32  C   UNL     1       7.061  24.931  52.894  1.00  0.00     0.080 A 
HETATM   33  C   UNL     1       7.622  23.690  52.572  1.00  0.00     0.037 A 
HETATM   34  C   UNL     1       7.853  22.735  53.567  1.00  0.00     0.003 A 
HETATM   35  C   UNL     1       7.511  23.001  54.891  1.00  0.00     0.001 A 
HETATM   36  C   UNL     1       6.950  24.231  55.229  1.00  0.00     0.016 A 
BRANCH  32  37
HETATM   37  O   UNL     1       6.828  25.933  51.989  1.00  0.00    -0.355 OA
HETATM   38  C   UNL     1       5.634  25.871  51.218  1.00  0.00     0.210 C 
ENDBRANCH  32  37
ENDBRANCH  30  31
ENDBRANCH   1  29
TORSDOF 8
ENDMDL
MODEL 9
REMARK VINA RESULT:      -9.9      3.572      9.562
REMARK  8 active torsions:
REMARK  status: ('A' for Active; 'I' for Inactive)
REMARK    1  A    between atoms: O_2  and  C_3 
REMARK    2  A    between atoms: C_4  and  C_5 
REMARK    3  A    between atoms: N_6  and  N_7 
REMARK    4  A    between atoms: C_18  and  C_19 
REMARK       I    between atoms: C_19  and  N_20 
REMARK    5  A    between atoms: N_20  and  C_21 
REMARK    6  A    between atoms: C_21  and  C_22 
REMARK    7  A    between atoms: C_22  and  C_23 
REMARK    8  A    between atoms: C_30  and  N_31 
ROOT
HETATM    1  N   UNL     1       7.242  31.488  58.537  1.00  0.00    -0.202 N 
HETATM    2  C   UNL     1       6.228  31.602  57.607  1.00  0.00     0.183 A 
HETATM    3  C   UNL     1       6.052  30.335  57.058  1.00  0.00     0.124 A 
HETATM    4  N   UNL     1       5.070  30.095  56.155  1.00  0.00    -0.242 NA
HETATM    5  C   UNL     1       4.349  31.167  55.803  1.00  0.00     0.086 A 
HETATM    6  C   UNL     1       4.554  32.452  56.370  1.00  0.00     0.088 A 
HETATM    7  N   UNL     1       5.480  32.695  57.317  1.00  0.00    -0.225 NA
HETATM    8  C   UNL     1       3.371  30.999  54.831  1.00  0.00     0.034 A 
HETATM    9  C   UNL     1       2.594  32.069  54.386  1.00  0.00     0.002 A 
HETATM   10  C   UNL     1       2.797  33.329  54.928  1.00  0.00     0.002 A 
HETATM   11  C   UNL     1       3.769  33.507  55.916  1.00  0.00     0.034 A 
HETATM   12  C   UNL     1       7.013  29.458  57.636  1.00  0.00     0.104 C 
HETATM   13  C   UNL     1       7.889  30.274  58.335  1.00  0.00     0.123 C 
ENDROOT
BRANCH  12  14
HETATM   14  C   UNL     1       7.017  28.002  57.587  1.00  0.00     0.257 C 
HETATM   15  N   UNL     1       6.114  27.458  56.697  1.00  0.00    -0.356 N 
HETATM   16  H   UNL     1       5.719  28.136  56.054  1.00  0.00     0.162 HD
HETATM   17  O   UNL     1       7.838  27.339  58.209  1.00  0.00    -0.267 OA
BRANCH  15  18
HETATM   18  C   UNL     1       6.182  26.094  56.209  1.00  0.00     0.127 C 
BRANCH  18  19
HETATM   19  C   UNL     1       6.886  25.854  54.866  1.00  0.00     0.053 C 
BRANCH  19  20
HETATM   20  C   UNL     1       7.313  24.429  54.589  1.00  0.00    -0.082 C 
HETATM   21  C   UNL     1       7.741  24.090  53.184  1.00  0.00     0.034 C 
HETATM   22  C   UNL     1       7.860  22.582  52.932  1.00  0.00     0.005 C 
HETATM   23  C   UNL     1       8.534  21.871  54.101  1.00  0.00     0.004 C 
HETATM   24  C   UNL     1       7.759  22.090  55.398  1.00  0.00     0.027 C 
HETATM   25  C   UNL     1       7.324  23.511  55.574  1.00  0.00    -0.024 C 
ENDBRANCH  19  20
ENDBRANCH  18  19
ENDBRANCH  15  18
ENDBRANCH  12  14
BRANCH  13  26
HETATM   26  N   UNL     1       9.078  30.013  58.975  1.00  0.00    -0.286 NA
HETATM   27  H   UNL     1       9.909  30.129  58.392  1.00  0.00     0.125 HD
HETATM   28  H   UNL     1       9.218  30.617  59.796  1.00  0.00     0.125 HD
ENDBRANCH  13  26
BRANCH   1  29
HETATM   29  N   UNL     1       7.546  32.252  59.637  1.00  0.00    -0.176 NA
HETATM   30  C   UNL     1       6.511  32.354  60.418  1.00  0.00     0.153 C 
BRANCH  30  31
HETATM   31  C   UNL     1       6.637  32.739  61.842  1.00  0.00     0.016 A 
HETATM   32  C   UNL     1       5.475  32.960  62.604  1.00  0.00     0.080 A 
HETATM   33  C   UNL     1       5.599  33.117  63.989  1.00  0.00     0.037 A 
HETATM   34  C   UNL     1       6.854  33.052  64.601  1.00  0.00     0.003 A 
HETATM   35  C   UNL     1       8.001  32.847  63.837  1.00  0.00     0.001 A 
HETATM   36  C   UNL     1       7.896  32.691  62.456  1.00  0.00     0.016 A 
BRANCH  32  37
HETATM   37  O   UNL     1       4.284  32.980  61.926  1.00  0.00    -0.355 OA
HETATM   38  C   UNL     1       3.177  33.627  62.542  1.00  0.00     0.210 C 
ENDBRANCH  32  37
ENDBRANCH  30  31
ENDBRANCH   1  29
TORSDOF 8
ENDMDL
MODEL 10
REMARK VINA RESULT:      -9.9      1.972      8.551
REMARK  8 active torsions:
REMARK  status: ('A' for Active; 'I' for Inactive)
REMARK    1  A    between atoms: O_2  and  C_3 
REMARK    2  A    between atoms: C_4  and  C_5 
REMARK    3  A    between atoms: N_6  and  N_7 
REMARK    4  A    between atoms: C_18  and  C_19 
REMARK       I    between atoms: C_19  and  N_20 
REMARK    5  A    between atoms: N_20  and  C_21 
REMARK    6  A    between atoms: C_21  and  C_22 
REMARK    7  A    between atoms: C_22  and  C_23 
REMARK    8  A    between atoms: C_30  and  N_31 
ROOT
HETATM    1  N   UNL     1       6.186  25.838  55.808  1.00  0.00    -0.202 N 
HETATM    2  C   UNL     1       6.731  24.645  55.378  1.00  0.00     0.183 A 
HETATM    3  C   UNL     1       6.429  24.538  54.023  1.00  0.00     0.124 A 
HETATM    4  N   UNL     1       6.891  23.500  53.283  1.00  0.00    -0.242 NA
HETATM    5  C   UNL     1       7.588  22.584  53.966  1.00  0.00     0.086 A 
HETATM    6  C   UNL     1       7.874  22.709  55.351  1.00  0.00     0.088 A 
HETATM    7  N   UNL     1       7.481  23.766  56.087  1.00  0.00    -0.225 NA
HETATM    8  C   UNL     1       8.031  21.461  53.277  1.00  0.00     0.034 A 
HETATM    9  C   UNL     1       8.739  20.445  53.919  1.00  0.00     0.002 A 
HETATM   10  C   UNL     1       9.013  20.556  55.274  1.00  0.00     0.002 A 
HETATM   11  C   UNL     1       8.583  21.687  55.974  1.00  0.00     0.034 A 
HETATM   12  C   UNL     1       5.647  25.667  53.648  1.00  0.00     0.104 C 
HETATM   13  C   UNL     1       5.302  26.293  54.835  1.00  0.00     0.123 C 
ENDROOT
BRANCH  12  14
HETATM   14  C   UNL     1       5.355  26.125  52.295  1.00  0.00     0.257 C 
HETATM   15  N   UNL     1       5.287  27.495  52.159  1.00  0.00    -0.356 N 
HETATM   16  H   UNL     1       5.647  28.003  52.960  1.00  0.00     0.162 HD
HETATM   17  O   UNL     1       5.292  25.346  51.353  1.00  0.00    -0.267 OA
BRANCH  15  18
HETATM   18  C   UNL     1       5.375  28.186  50.886  1.00  0.00     0.127 C 
BRANCH  18  19
HETATM   19  C   UNL     1       4.073  28.724  50.278  1.00  0.00     0.053 C 
BRANCH  19  20
HETATM   20  C   UNL     1       3.413  27.840  49.242  1.00  0.00    -0.082 C 
HETATM   21  C   UNL     1       2.004  28.183  48.828  1.00  0.00     0.034 C 
HETATM   22  C   UNL     1       1.322  27.075  48.017  1.00  0.00     0.005 C 
HETATM   23  C   UNL     1       2.269  26.474  46.984  1.00  0.00     0.004 C 
HETATM   24  C   UNL     1       3.515  25.896  47.651  1.00  0.00     0.027 C 
HETATM   25  C   UNL     1       4.077  26.802  48.701  1.00  0.00    -0.024 C 
ENDBRANCH  19  20
ENDBRANCH  18  19
ENDBRANCH  15  18
ENDBRANCH  12  14
BRANCH  13  26
HETATM   26  N   UNL     1       4.455  27.340  55.111  1.00  0.00    -0.286 NA
HETATM   27  H   UNL     1       4.317  27.524  56.108  1.00  0.00     0.125 HD
HETATM   28  H   UNL     1       4.783  28.225  54.701  1.00  0.00     0.125 HD
ENDBRANCH  13  26
BRANCH   1  29
HETATM   29  N   UNL     1       6.507  26.644  56.872  1.00  0.00    -0.176 NA
HETATM   30  C   UNL     1       7.081  27.735  56.459  1.00  0.00     0.153 C 
BRANCH  30  31
HETATM   31  C   UNL     1       7.155  28.951  57.300  1.00  0.00     0.016 A 
HETATM   32  C   UNL     1       8.413  29.470  57.657  1.00  0.00     0.080 A 
HETATM   33  C   UNL     1       8.472  30.725  58.271  1.00  0.00     0.037 A 
HETATM   34  C   UNL     1       7.303  31.449  58.522  1.00  0.00     0.003 A 
HETATM   35  C   UNL     1       6.060  30.921  58.178  1.00  0.00     0.001 A 
HETATM   36  C   UNL     1       5.983  29.671  57.568  1.00  0.00     0.016 A 
BRANCH  32  37
HETATM   37  O   UNL     1       9.508  28.707  57.348  1.00  0.00    -0.355 OA
HETATM   38  C   UNL     1      10.584  29.332  56.659  1.00  0.00     0.210 C 
ENDBRANCH  32  37
ENDBRANCH  30  31
ENDBRANCH   1  29
TORSDOF 8
ENDMDL
