MODEL 1
REMARK VINA RESULT:     -10.6      0.000      0.000
REMARK  3 active torsions:
REMARK  status: ('A' for Active; 'I' for Inactive)
REMARK    1  A    between atoms: C_9  and  C_10 
REMARK       I    between atoms: C_10  and  N_11 
REMARK    2  A    between atoms: N_11  and  C_12 
REMARK    3  A    between atoms: C_14  and  C_15 
ROOT
HETATM    1  C   UNL     1       7.598  27.442  55.707  1.00  0.00     0.252 C 
HETATM    2  N   UNL     1       8.166  27.657  56.954  1.00  0.00    -0.325 N 
HETATM    3  O   UNL     1       7.475  28.277  54.815  1.00  0.00    -0.270 OA
HETATM    4  H   UNL     1       8.031  26.909  57.628  1.00  0.00     0.169 HD
ENDROOT
BRANCH   2   5
HETATM    5  C   UNL     1       8.833  28.817  57.399  1.00  0.00     0.035 A 
HETATM    6  C   UNL     1       8.430  29.557  58.517  1.00  0.00     0.042 A 
HETATM    7  C   UNL     1       9.101  30.728  58.906  1.00  0.00    -0.021 A 
HETATM    8  C   UNL     1      10.202  31.148  58.149  1.00  0.00     0.012 A 
HETATM    9  C   UNL     1      10.611  30.421  57.028  1.00  0.00     0.003 A 
HETATM   10  C   UNL     1       9.926  29.263  56.653  1.00  0.00     0.029 A 
BRANCH   7  11
HETATM   11  C   UNL     1       8.641  31.475  60.071  1.00  0.00     0.010 A 
HETATM   12  C   UNL     1       9.147  31.524  61.395  1.00  0.00     0.152 A 
HETATM   13  N   UNL     1       8.432  32.317  62.198  1.00  0.00    -0.187 NA
HETATM   14  N   UNL     1       7.463  32.780  61.395  1.00  0.00    -0.289 N 
HETATM   15  H   UNL     1       6.777  33.414  61.790  1.00  0.00     0.188 HD
HETATM   16  C   UNL     1       7.541  32.306  60.117  1.00  0.00     0.123 A 
ENDBRANCH   7  11
ENDBRANCH   2   5
BRANCH   1  17
HETATM   17  C   UNL     1       7.222  25.975  55.481  1.00  0.00     0.225 C 
HETATM   18  C   UNL     1       7.769  25.076  56.594  1.00  0.00     0.083 C 
HETATM   19  C   UNL     1       7.866  23.820  55.822  1.00  0.00    -0.021 A 
HETATM   20  C   UNL     1       7.824  24.111  54.470  1.00  0.00     0.076 A 
HETATM   21  C   UNL     1       8.024  22.522  56.269  1.00  0.00     0.017 A 
HETATM   22  C   UNL     1       7.936  23.127  53.513  1.00  0.00     0.044 A 
HETATM   23  O   UNL     1       7.663  25.452  54.206  1.00  0.00    -0.336 OA
HETATM   24  C   UNL     1       8.068  21.791  53.934  1.00  0.00    -0.053 A 
HETATM   25  C   UNL     1       8.125  21.488  55.322  1.00  0.00    -0.055 A 
HETATM   26  C   UNL     1       8.164  20.702  52.899  1.00  0.00     0.049 C 
HETATM   27  C   UNL     1       8.257  20.070  55.811  1.00  0.00     0.049 C 
ENDBRANCH   1  17
TORSDOF 3
ENDMDL
MODEL 2
REMARK VINA RESULT:     -10.0      1.965      2.559
REMARK  3 active torsions:
REMARK  status: ('A' for Active; 'I' for Inactive)
REMARK    1  A    between atoms: C_9  and  C_10 
REMARK       I    between atoms: C_10  and  N_11 
REMARK    2  A    between atoms: N_11  and  C_12 
REMARK    3  A    between atoms: C_14  and  C_15 
ROOT
HETATM    1  C   UNL     1       6.146  26.945  55.226  1.00  0.00     0.252 C 
HETATM    2  N   UNL     1       5.618  27.367  56.437  1.00  0.00    -0.325 N 
HETATM    3  O   UNL     1       6.643  27.665  54.364  1.00  0.00    -0.270 OA
HETATM    4  H   UNL     1       5.095  26.665  56.953  1.00  0.00     0.169 HD
ENDROOT
BRANCH   2   5
HETATM    5  C   UNL     1       5.667  28.668  56.982  1.00  0.00     0.035 A 
HETATM    6  C   UNL     1       6.833  29.245  57.496  1.00  0.00     0.042 A 
HETATM    7  C   UNL     1       6.831  30.531  58.062  1.00  0.00    -0.021 A 
HETATM    8  C   UNL     1       5.624  31.241  58.099  1.00  0.00     0.012 A 
HETATM    9  C   UNL     1       4.452  30.673  57.593  1.00  0.00     0.003 A 
HETATM   10  C   UNL     1       4.473  29.391  57.041  1.00  0.00     0.029 A 
BRANCH   7  11
HETATM   11  C   UNL     1       8.068  31.090  58.596  1.00  0.00     0.010 A 
HETATM   12  C   UNL     1       8.283  32.029  59.637  1.00  0.00     0.152 A 
HETATM   13  N   UNL     1       9.574  32.314  59.824  1.00  0.00    -0.187 NA
HETATM   14  N   UNL     1      10.195  31.562  58.904  1.00  0.00    -0.289 N 
HETATM   15  H   UNL     1      11.207  31.613  58.848  1.00  0.00     0.188 HD
HETATM   16  C   UNL     1       9.342  30.815  58.145  1.00  0.00     0.123 A 
ENDBRANCH   7  11
ENDBRANCH   2   5
BRANCH   1  17
HETATM   17  C   UNL     1       6.162  25.419  55.095  1.00  0.00     0.225 C 
HETATM   18  C   UNL     1       6.944  24.766  56.239  1.00  0.00     0.083 C 
HETATM   19  C   UNL     1       7.352  23.531  55.536  1.00  0.00    -0.021 A 
HETATM   20  C   UNL     1       7.213  23.716  54.172  1.00  0.00     0.076 A 
HETATM   21  C   UNL     1       7.852  22.350  56.050  1.00  0.00     0.017 A 
HETATM   22  C   UNL     1       7.561  22.736  53.268  1.00  0.00     0.044 A 
HETATM   23  O   UNL     1       6.702  24.949  53.838  1.00  0.00    -0.336 OA
HETATM   24  C   UNL     1       8.044  21.509  53.760  1.00  0.00    -0.053 A 
HETATM   25  C   UNL     1       8.203  21.320  55.160  1.00  0.00    -0.055 A 
HETATM   26  C   UNL     1       8.403  20.420  52.785  1.00  0.00     0.049 C 
HETATM   27  C   UNL     1       8.709  20.019  55.724  1.00  0.00     0.049 C 
ENDBRANCH   1  17
TORSDOF 3
ENDMDL
MODEL 3
REMARK VINA RESULT:      -9.7      2.921      9.000
REMARK  3 active torsions:
REMARK  status: ('A' for Active; 'I' for Inactive)
REMARK    1  A    between atoms: C_9  and  C_10 
REMARK       I    between atoms: C_10  and  N_11 
REMARK    2  A    between atoms: N_11  and  C_12 
REMARK    3  A    between atoms: C_14  and  C_15 
ROOT
HETATM    1  C   UNL     1       6.612  27.686  55.392  1.00  0.00     0.252 C 
HETATM    2  N   UNL     1       7.639  27.095  54.671  1.00  0.00    -0.325 N 
HETATM    3  O   UNL     1       5.489  27.222  55.564  1.00  0.00    -0.270 OA
HETATM    4  H   UNL     1       8.440  27.691  54.485  1.00  0.00     0.169 HD
ENDROOT
BRANCH   2   5
HETATM    5  C   UNL     1       7.652  25.799  54.113  1.00  0.00     0.035 A 
HETATM    6  C   UNL     1       7.812  24.635  54.873  1.00  0.00     0.042 A 
HETATM    7  C   UNL     1       7.856  23.364  54.274  1.00  0.00    -0.021 A 
HETATM    8  C   UNL     1       7.728  23.279  52.882  1.00  0.00     0.012 A 
HETATM    9  C   UNL     1       7.572  24.435  52.113  1.00  0.00     0.003 A 
HETATM   10  C   UNL     1       7.539  25.689  52.726  1.00  0.00     0.029 A 
BRANCH   7  11
HETATM   11  C   UNL     1       8.035  22.178  55.103  1.00  0.00     0.010 A 
HETATM   12  C   UNL     1       7.930  20.801  54.779  1.00  0.00     0.152 A 
HETATM   13  N   UNL     1       8.147  20.001  55.827  1.00  0.00    -0.187 NA
HETATM   14  N   UNL     1       8.389  20.858  56.829  1.00  0.00    -0.289 N 
HETATM   15  H   UNL     1       8.582  20.477  57.749  1.00  0.00     0.188 HD
HETATM   16  C   UNL     1       8.332  22.169  56.450  1.00  0.00     0.123 A 
ENDBRANCH   7  11
ENDBRANCH   2   5
BRANCH   1  17
HETATM   17  C   UNL     1       7.054  28.978  56.085  1.00  0.00     0.225 C 
HETATM   18  C   UNL     1       8.343  28.772  56.888  1.00  0.00     0.083 C 
HETATM   19  C   UNL     1       8.137  29.838  57.892  1.00  0.00    -0.021 A 
HETATM   20  C   UNL     1       6.805  30.210  57.896  1.00  0.00     0.076 A 
HETATM   21  C   UNL     1       9.041  30.408  58.768  1.00  0.00     0.017 A 
HETATM   22  C   UNL     1       6.321  31.161  58.767  1.00  0.00     0.044 A 
HETATM   23  O   UNL     1       6.049  29.542  56.961  1.00  0.00    -0.336 OA
HETATM   24  C   UNL     1       7.221  31.783  59.652  1.00  0.00    -0.053 A 
HETATM   25  C   UNL     1       8.588  31.394  59.661  1.00  0.00    -0.055 A 
HETATM   26  C   UNL     1       6.711  32.843  60.591  1.00  0.00     0.049 C 
HETATM   27  C   UNL     1       9.583  32.043  60.587  1.00  0.00     0.049 C 
ENDBRANCH   1  17
TORSDOF 3
ENDMDL
MODEL 4
REMARK VINA RESULT:      -9.7      5.945      8.765
REMARK  3 active torsions:
REMARK  status: ('A' for Active; 'I' for Inactive)
REMARK    1  A    between atoms: C_9  and  C_10 
REMARK       I    between atoms: C_10  and  N_11 
REMARK    2  A    between atoms: N_11  and  C_12 
REMARK    3  A    between atoms: C_14  and  C_15 
ROOT
HETATM    1  C   UNL     1       6.067  26.888  52.956  1.00  0.00     0.252 C 
HETATM    2  N   UNL     1       6.187  27.186  51.607  1.00  0.00    -0.325 N 
HETATM    3  O   UNL     1       5.250  27.374  53.734  1.00  0.00    -0.270 OA
HETATM    4  H   UNL     1       7.021  26.824  51.154  1.00  0.00     0.169 HD
ENDROOT
BRANCH   2   5
HETATM    5  C   UNL     1       5.326  27.989  50.831  1.00  0.00     0.035 A 
HETATM    6  C   UNL     1       4.367  27.468  49.955  1.00  0.00     0.042 A 
HETATM    7  C   UNL     1       3.552  28.304  49.173  1.00  0.00    -0.021 A 
HETATM    8  C   UNL     1       3.712  29.690  49.291  1.00  0.00     0.012 A 
HETATM    9  C   UNL     1       4.669  30.222  50.159  1.00  0.00     0.003 A 
HETATM   10  C   UNL     1       5.475  29.375  50.922  1.00  0.00     0.029 A 
BRANCH   7  11
HETATM   11  C   UNL     1       2.572  27.718  48.264  1.00  0.00     0.010 A 
HETATM   12  C   UNL     1       1.156  27.794  48.260  1.00  0.00     0.152 A 
HETATM   13  N   UNL     1       0.600  27.097  47.265  1.00  0.00    -0.187 NA
HETATM   14  N   UNL     1       1.654  26.568  46.628  1.00  0.00    -0.289 N 
HETATM   15  H   UNL     1       1.479  25.980  45.821  1.00  0.00     0.188 HD
HETATM   16  C   UNL     1       2.854  26.906  47.185  1.00  0.00     0.123 A 
ENDBRANCH   7  11
ENDBRANCH   2   5
BRANCH   1  17
HETATM   17  C   UNL     1       7.008  25.761  53.392  1.00  0.00     0.225 C 
HETATM   18  C   UNL     1       7.156  24.697  52.299  1.00  0.00     0.083 C 
HETATM   19  C   UNL     1       7.482  23.547  53.168  1.00  0.00    -0.021 A 
HETATM   20  C   UNL     1       7.119  23.842  54.470  1.00  0.00     0.076 A 
HETATM   21  C   UNL     1       8.015  22.317  52.836  1.00  0.00     0.017 A 
HETATM   22  C   UNL     1       7.273  22.928  55.490  1.00  0.00     0.044 A 
HETATM   23  O   UNL     1       6.605  25.109  54.620  1.00  0.00    -0.336 OA
HETATM   24  C   UNL     1       7.842  21.676  55.191  1.00  0.00    -0.053 A 
HETATM   25  C   UNL     1       8.204  21.364  53.852  1.00  0.00    -0.055 A 
HETATM   26  C   UNL     1       8.041  20.679  56.300  1.00  0.00     0.049 C 
HETATM   27  C   UNL     1       8.823  20.038  53.495  1.00  0.00     0.049 C 
ENDBRANCH   1  17
TORSDOF 3
ENDMDL
MODEL 5
REMARK VINA RESULT:      -9.6      2.349      2.844
REMARK  3 active torsions:
REMARK  status: ('A' for Active; 'I' for Inactive)
REMARK    1  A    between atoms: C_9  and  C_10 
REMARK       I    between atoms: C_10  and  N_11 
REMARK    2  A    between atoms: N_11  and  C_12 
REMARK    3  A    between atoms: C_14  and  C_15 
ROOT
HETATM    1  C   UNL     1       6.485  27.024  55.558  1.00  0.00     0.252 C 
HETATM    2  N   UNL     1       6.310  27.379  56.887  1.00  0.00    -0.325 N 
HETATM    3  O   UNL     1       6.777  27.785  54.639  1.00  0.00    -0.270 OA
HETATM    4  H   UNL     1       5.905  26.661  57.480  1.00  0.00     0.169 HD
ENDROOT
BRANCH   2   5
HETATM    5  C   UNL     1       6.562  28.637  57.474  1.00  0.00     0.035 A 
HETATM    6  C   UNL     1       5.634  29.684  57.479  1.00  0.00     0.042 A 
HETATM    7  C   UNL     1       5.937  30.935  58.044  1.00  0.00    -0.021 A 
HETATM    8  C   UNL     1       7.202  31.118  58.617  1.00  0.00     0.012 A 
HETATM    9  C   UNL     1       8.138  30.081  58.614  1.00  0.00     0.003 A 
HETATM   10  C   UNL     1       7.821  28.848  58.041  1.00  0.00     0.029 A 
BRANCH   7  11
HETATM   11  C   UNL     1       4.944  32.002  58.017  1.00  0.00     0.010 A 
HETATM   12  C   UNL     1       3.773  32.193  58.794  1.00  0.00     0.152 A 
HETATM   13  N   UNL     1       3.098  33.296  58.458  1.00  0.00    -0.187 NA
HETATM   14  N   UNL     1       3.829  33.818  57.463  1.00  0.00    -0.289 N 
HETATM   15  H   UNL     1       3.507  34.677  57.032  1.00  0.00     0.188 HD
HETATM   16  C   UNL     1       4.940  33.083  57.160  1.00  0.00     0.123 A 
ENDBRANCH   7  11
ENDBRANCH   2   5
BRANCH   1  17
HETATM   17  C   UNL     1       6.393  25.511  55.339  1.00  0.00     0.225 C 
HETATM   18  C   UNL     1       7.116  24.738  56.448  1.00  0.00     0.083 C 
HETATM   19  C   UNL     1       7.440  23.520  55.676  1.00  0.00    -0.021 A 
HETATM   20  C   UNL     1       7.326  23.792  54.325  1.00  0.00     0.076 A 
HETATM   21  C   UNL     1       7.848  22.278  56.124  1.00  0.00     0.017 A 
HETATM   22  C   UNL     1       7.611  22.842  53.368  1.00  0.00     0.044 A 
HETATM   23  O   UNL     1       6.909  25.075  54.060  1.00  0.00    -0.336 OA
HETATM   24  C   UNL     1       8.000  21.557  53.791  1.00  0.00    -0.053 A 
HETATM   25  C   UNL     1       8.132  21.278  55.178  1.00  0.00    -0.055 A 
HETATM   26  C   UNL     1       8.289  20.502  52.756  1.00  0.00     0.049 C 
HETATM   27  C   UNL     1       8.537  19.913  55.669  1.00  0.00     0.049 C 
ENDBRANCH   1  17
TORSDOF 3
ENDMDL
MODEL 6
REMARK VINA RESULT:      -9.6      3.235      5.618
REMARK  3 active torsions:
REMARK  status: ('A' for Active; 'I' for Inactive)
REMARK    1  A    between atoms: C_9  and  C_10 
REMARK       I    between atoms: C_10  and  N_11 
REMARK    2  A    between atoms: N_11  and  C_12 
REMARK    3  A    between atoms: C_14  and  C_15 
ROOT
HETATM    1  C   UNL     1       7.371  31.192  59.069  1.00  0.00     0.252 C 
HETATM    2  N   UNL     1       7.401  30.762  60.388  1.00  0.00    -0.325 N 
HETATM    3  O   UNL     1       7.064  32.316  58.682  1.00  0.00    -0.270 OA
HETATM    4  H   UNL     1       7.509  29.760  60.517  1.00  0.00     0.169 HD
ENDROOT
BRANCH   2   5
HETATM    5  C   UNL     1       7.224  31.549  61.545  1.00  0.00     0.035 A 
HETATM    6  C   UNL     1       5.984  32.056  61.950  1.00  0.00     0.042 A 
HETATM    7  C   UNL     1       5.857  32.866  63.091  1.00  0.00    -0.021 A 
HETATM    8  C   UNL     1       7.008  33.157  63.834  1.00  0.00     0.012 A 
HETATM    9  C   UNL     1       8.252  32.660  63.437  1.00  0.00     0.003 A 
HETATM   10  C   UNL     1       8.360  31.863  62.295  1.00  0.00     0.029 A 
BRANCH   7  11
HETATM   11  C   UNL     1       4.547  33.383  63.471  1.00  0.00     0.010 A 
HETATM   12  C   UNL     1       3.329  33.433  62.746  1.00  0.00     0.152 A 
HETATM   13  N   UNL     1       2.337  34.009  63.432  1.00  0.00    -0.187 NA
HETATM   14  N   UNL     1       2.913  34.333  64.599  1.00  0.00    -0.289 N 
HETATM   15  H   UNL     1       2.346  34.797  65.300  1.00  0.00     0.188 HD
HETATM   16  C   UNL     1       4.231  33.983  64.672  1.00  0.00     0.123 A 
ENDBRANCH   7  11
ENDBRANCH   2   5
BRANCH   1  17
HETATM   17  C   UNL     1       7.888  30.129  58.096  1.00  0.00     0.225 C 
HETATM   18  C   UNL     1       7.056  30.091  56.810  1.00  0.00     0.083 C 
HETATM   19  C   UNL     1       7.298  28.679  56.444  1.00  0.00    -0.021 A 
HETATM   20  C   UNL     1       7.770  27.996  57.551  1.00  0.00     0.076 A 
HETATM   21  C   UNL     1       7.078  28.032  55.244  1.00  0.00     0.017 A 
HETATM   22  C   UNL     1       8.043  26.646  57.507  1.00  0.00     0.044 A 
HETATM   23  O   UNL     1       7.929  28.796  58.659  1.00  0.00    -0.336 OA
HETATM   24  C   UNL     1       7.859  25.963  56.291  1.00  0.00    -0.053 A 
HETATM   25  C   UNL     1       7.360  26.657  55.155  1.00  0.00    -0.055 A 
HETATM   26  C   UNL     1       8.178  24.493  56.222  1.00  0.00     0.049 C 
HETATM   27  C   UNL     1       7.159  25.961  53.835  1.00  0.00     0.049 C 
ENDBRANCH   1  17
TORSDOF 3
ENDMDL
MODEL 7
REMARK VINA RESULT:      -9.5      3.378      9.570
REMARK  3 active torsions:
REMARK  status: ('A' for Active; 'I' for Inactive)
REMARK    1  A    between atoms: C_9  and  C_10 
REMARK       I    between atoms: C_10  and  N_11 
REMARK    2  A    between atoms: N_11  and  C_12 
REMARK    3  A    between atoms: C_14  and  C_15 
ROOT
HETATM    1  C   UNL     1       8.714  30.008  58.514  1.00  0.00     0.252 C 
HETATM    2  N   UNL     1       7.626  29.150  58.573  1.00  0.00    -0.325 N 
HETATM    3  O   UNL     1       9.653  29.930  57.728  1.00  0.00    -0.270 OA
HETATM    4  H   UNL     1       7.031  29.256  59.390  1.00  0.00     0.169 HD
ENDROOT
BRANCH   2   5
HETATM    5  C   UNL     1       7.308  28.112  57.673  1.00  0.00     0.035 A 
HETATM    6  C   UNL     1       6.400  28.257  56.618  1.00  0.00     0.042 A 
HETATM    7  C   UNL     1       6.085  27.187  55.764  1.00  0.00    -0.021 A 
HETATM    8  C   UNL     1       6.709  25.953  55.984  1.00  0.00     0.012 A 
HETATM    9  C   UNL     1       7.615  25.794  57.036  1.00  0.00     0.003 A 
HETATM   10  C   UNL     1       7.909  26.868  57.879  1.00  0.00     0.029 A 
BRANCH   7  11
HETATM   11  C   UNL     1       5.123  27.379  54.684  1.00  0.00     0.010 A 
HETATM   12  C   UNL     1       4.220  28.443  54.431  1.00  0.00     0.152 A 
HETATM   13  N   UNL     1       3.477  28.247  53.339  1.00  0.00    -0.187 NA
HETATM   14  N   UNL     1       3.895  27.056  52.887  1.00  0.00    -0.289 N 
HETATM   15  H   UNL     1       3.463  26.683  52.048  1.00  0.00     0.188 HD
HETATM   16  C   UNL     1       4.875  26.496  53.655  1.00  0.00     0.123 A 
ENDBRANCH   7  11
ENDBRANCH   2   5
BRANCH   1  17
HETATM   17  C   UNL     1       8.582  31.187  59.483  1.00  0.00     0.225 C 
HETATM   18  C   UNL     1       9.005  30.797  60.903  1.00  0.00     0.083 C 
HETATM   19  C   UNL     1       8.184  31.778  61.643  1.00  0.00    -0.021 A 
HETATM   20  C   UNL     1       7.189  32.260  60.812  1.00  0.00     0.076 A 
HETATM   21  C   UNL     1       8.273  32.184  62.961  1.00  0.00     0.017 A 
HETATM   22  C   UNL     1       6.248  33.164  61.255  1.00  0.00     0.044 A 
HETATM   23  O   UNL     1       7.250  31.750  59.536  1.00  0.00    -0.336 OA
HETATM   24  C   UNL     1       6.329  33.621  62.584  1.00  0.00    -0.053 A 
HETATM   25  C   UNL     1       7.341  33.118  63.446  1.00  0.00    -0.055 A 
HETATM   26  C   UNL     1       5.324  34.629  63.074  1.00  0.00     0.049 C 
HETATM   27  C   UNL     1       7.465  33.590  64.870  1.00  0.00     0.049 C 
ENDBRANCH   1  17
TORSDOF 3
ENDMDL
MODEL 8
REMARK VINA RESULT:      -9.3      3.094      3.814
REMARK  3 active torsions:
REMARK  status: ('A' for Active; 'I' for Inactive)
REMARK    1  A    between atoms: C_9  and  C_10 
REMARK       I    between atoms: C_10  and  N_11 
REMARK    2  A    between atoms: N_11  and  C_12 
REMARK    3  A    between atoms: C_14  and  C_15 
ROOT
HETATM    1  C   UNL     1       5.851  27.085  54.674  1.00  0.00     0.252 C 
HETATM    2  N   UNL     1       4.571  27.578  54.878  1.00  0.00    -0.325 N 
HETATM    3  O   UNL     1       6.885  27.746  54.643  1.00  0.00    -0.270 OA
HETATM    4  H   UNL     1       3.818  26.920  54.703  1.00  0.00     0.169 HD
ENDROOT
BRANCH   2   5
HETATM    5  C   UNL     1       4.211  28.898  55.223  1.00  0.00     0.035 A 
HETATM    6  C   UNL     1       4.415  29.444  56.495  1.00  0.00     0.042 A 
HETATM    7  C   UNL     1       4.009  30.753  56.808  1.00  0.00    -0.021 A 
HETATM    8  C   UNL     1       3.393  31.516  55.809  1.00  0.00     0.012 A 
HETATM    9  C   UNL     1       3.181  30.980  54.536  1.00  0.00     0.003 A 
HETATM   10  C   UNL     1       3.584  29.675  54.247  1.00  0.00     0.029 A 
BRANCH   7  11
HETATM   11  C   UNL     1       4.230  31.279  58.150  1.00  0.00     0.010 A 
HETATM   12  C   UNL     1       5.340  31.970  58.700  1.00  0.00     0.152 A 
HETATM   13  N   UNL     1       5.178  32.275  59.990  1.00  0.00    -0.187 NA
HETATM   14  N   UNL     1       3.965  31.780  60.277  1.00  0.00    -0.289 N 
HETATM   15  H   UNL     1       3.616  31.889  61.223  1.00  0.00     0.188 HD
HETATM   16  C   UNL     1       3.358  31.175  59.215  1.00  0.00     0.123 A 
ENDBRANCH   7  11
ENDBRANCH   2   5
BRANCH   1  17
HETATM   17  C   UNL     1       5.883  25.555  54.602  1.00  0.00     0.225 C 
HETATM   18  C   UNL     1       6.522  24.947  55.855  1.00  0.00     0.083 C 
HETATM   19  C   UNL     1       7.012  23.689  55.251  1.00  0.00    -0.021 A 
HETATM   20  C   UNL     1       7.038  23.824  53.875  1.00  0.00     0.076 A 
HETATM   21  C   UNL     1       7.446  22.530  55.864  1.00  0.00     0.017 A 
HETATM   22  C   UNL     1       7.492  22.813  53.056  1.00  0.00     0.044 A 
HETATM   23  O   UNL     1       6.571  25.042  53.437  1.00  0.00    -0.336 OA
HETATM   24  C   UNL     1       7.913  21.608  53.646  1.00  0.00    -0.053 A 
HETATM   25  C   UNL     1       7.902  21.470  55.061  1.00  0.00    -0.055 A 
HETATM   26  C   UNL     1       8.387  20.486  52.762  1.00  0.00     0.049 C 
HETATM   27  C   UNL     1       8.336  20.192  55.729  1.00  0.00     0.049 C 
ENDBRANCH   1  17
TORSDOF 3
ENDMDL
MODEL 9
REMARK VINA RESULT:      -9.3      5.157      8.850
REMARK  3 active torsions:
REMARK  status: ('A' for Active; 'I' for Inactive)
REMARK    1  A    between atoms: C_9  and  C_10 
REMARK       I    between atoms: C_10  and  N_11 
REMARK    2  A    between atoms: N_11  and  C_12 
REMARK    3  A    between atoms: C_14  and  C_15 
ROOT
HETATM    1  C   UNL     1       6.785  27.214  53.625  1.00  0.00     0.252 C 
HETATM    2  N   UNL     1       6.352  26.088  54.309  1.00  0.00    -0.325 N 
HETATM    3  O   UNL     1       7.896  27.729  53.710  1.00  0.00    -0.270 OA
HETATM    4  H   UNL     1       5.356  25.900  54.253  1.00  0.00     0.169 HD
ENDROOT
BRANCH   2   5
HETATM    5  C   UNL     1       7.127  25.234  55.122  1.00  0.00     0.035 A 
HETATM    6  C   UNL     1       7.456  23.921  54.767  1.00  0.00     0.042 A 
HETATM    7  C   UNL     1       8.200  23.091  55.622  1.00  0.00    -0.021 A 
HETATM    8  C   UNL     1       8.620  23.609  56.853  1.00  0.00     0.012 A 
HETATM    9  C   UNL     1       8.294  24.917  57.221  1.00  0.00     0.003 A 
HETATM   10  C   UNL     1       7.547  25.723  56.361  1.00  0.00     0.029 A 
BRANCH   7  11
HETATM   11  C   UNL     1       8.512  21.725  55.217  1.00  0.00     0.010 A 
HETATM   12  C   UNL     1       8.393  21.086  53.956  1.00  0.00     0.152 A 
HETATM   13  N   UNL     1       8.763  19.803  53.985  1.00  0.00    -0.187 NA
HETATM   14  N   UNL     1       9.118  19.609  55.264  1.00  0.00    -0.289 N 
HETATM   15  H   UNL     1       9.438  18.687  55.537  1.00  0.00     0.188 HD
HETATM   16  C   UNL     1       8.985  20.724  56.040  1.00  0.00     0.123 A 
ENDBRANCH   7  11
ENDBRANCH   2   5
BRANCH   1  17
HETATM   17  C   UNL     1       5.748  27.722  52.619  1.00  0.00     0.225 C 
HETATM   18  C   UNL     1       5.298  26.609  51.666  1.00  0.00     0.083 C 
HETATM   19  C   UNL     1       4.917  27.458  50.518  1.00  0.00    -0.021 A 
HETATM   20  C   UNL     1       5.487  28.709  50.666  1.00  0.00     0.076 A 
HETATM   21  C   UNL     1       4.163  27.144  49.404  1.00  0.00     0.017 A 
HETATM   22  C   UNL     1       5.330  29.695  49.716  1.00  0.00     0.044 A 
HETATM   23  O   UNL     1       6.203  28.848  51.833  1.00  0.00    -0.336 OA
HETATM   24  C   UNL     1       4.542  29.417  48.583  1.00  0.00    -0.053 A 
HETATM   25  C   UNL     1       3.966  28.128  48.420  1.00  0.00    -0.055 A 
HETATM   26  C   UNL     1       4.340  30.494  47.551  1.00  0.00     0.049 C 
HETATM   27  C   UNL     1       3.111  27.797  47.226  1.00  0.00     0.049 C 
ENDBRANCH   1  17
TORSDOF 3
ENDMDL
MODEL 10
REMARK VINA RESULT:      -9.3      1.918      3.034
REMARK  3 active torsions:
REMARK  status: ('A' for Active; 'I' for Inactive)
REMARK    1  A    between atoms: C_9  and  C_10 
REMARK       I    between atoms: C_10  and  N_11 
REMARK    2  A    between atoms: N_11  and  C_12 
REMARK    3  A    between atoms: C_14  and  C_15 
ROOT
HETATM    1  C   UNL     1       6.677  29.647  57.519  1.00  0.00     0.252 C 
HETATM    2  N   UNL     1       7.598  29.436  58.534  1.00  0.00    -0.325 N 
HETATM    3  O   UNL     1       6.156  30.720  57.227  1.00  0.00    -0.270 OA
HETATM    4  H   UNL     1       7.795  28.463  58.748  1.00  0.00     0.169 HD
ENDROOT
BRANCH   2   5
HETATM    5  C   UNL     1       8.220  30.415  59.337  1.00  0.00     0.035 A 
HETATM    6  C   UNL     1       7.606  31.003  60.449  1.00  0.00     0.042 A 
HETATM    7  C   UNL     1       8.248  32.001  61.203  1.00  0.00    -0.021 A 
HETATM    8  C   UNL     1       9.535  32.400  60.821  1.00  0.00     0.012 A 
HETATM    9  C   UNL     1      10.156  31.823  59.710  1.00  0.00     0.003 A 
HETATM   10  C   UNL     1       9.499  30.838  58.970  1.00  0.00     0.029 A 
BRANCH   7  11
HETATM   11  C   UNL     1       7.567  32.595  62.348  1.00  0.00     0.010 A 
HETATM   12  C   UNL     1       7.963  32.699  63.705  1.00  0.00     0.152 A 
HETATM   13  N   UNL     1       7.049  33.300  64.471  1.00  0.00    -0.187 NA
HETATM   14  N   UNL     1       6.060  33.583  63.611  1.00  0.00    -0.289 N 
HETATM   15  H   UNL     1       5.234  34.049  63.969  1.00  0.00     0.188 HD
HETATM   16  C   UNL     1       6.319  33.182  62.332  1.00  0.00     0.123 A 
ENDBRANCH   7  11
ENDBRANCH   2   5
BRANCH   1  17
HETATM   17  C   UNL     1       6.439  28.391  56.676  1.00  0.00     0.225 C 
HETATM   18  C   UNL     1       7.135  27.168  57.281  1.00  0.00     0.083 C 
HETATM   19  C   UNL     1       7.315  26.391  56.036  1.00  0.00    -0.021 A 
HETATM   20  C   UNL     1       7.169  27.234  54.948  1.00  0.00     0.076 A 
HETATM   21  C   UNL     1       7.629  25.056  55.869  1.00  0.00     0.017 A 
HETATM   22  C   UNL     1       7.326  26.782  53.656  1.00  0.00     0.044 A 
HETATM   23  O   UNL     1       6.859  28.527  55.298  1.00  0.00    -0.336 OA
HETATM   24  C   UNL     1       7.616  25.420  53.450  1.00  0.00    -0.053 A 
HETATM   25  C   UNL     1       7.781  24.555  54.565  1.00  0.00    -0.055 A 
HETATM   26  C   UNL     1       7.764  24.908  52.042  1.00  0.00     0.049 C 
HETATM   27  C   UNL     1       8.082  23.090  54.384  1.00  0.00     0.049 C 
ENDBRANCH   1  17
TORSDOF 3
ENDMDL
