MODEL 1
REMARK VINA RESULT:      -8.6      0.000      0.000
REMARK  4 active torsions:
REMARK  status: ('A' for Active; 'I' for Inactive)
REMARK    1  A    between atoms: C_4  and  C_5 
REMARK    2  A    between atoms: C_8  and  C_9 
REMARK       I    between atoms: C_9  and  N_10 
REMARK    3  A    between atoms: N_10  and  C_11 
REMARK    4  A    between atoms: C_14  and  N_15 
ROOT
HETATM    1  C   UNL     1       5.748  26.988  51.368  1.00  0.00     0.252 C 
HETATM    2  N   UNL     1       5.202  26.738  50.121  1.00  0.00    -0.352 N 
HETATM    3  O   UNL     1       5.869  28.113  51.838  1.00  0.00    -0.268 OA
HETATM    4  H   UNL     1       5.372  25.804  49.769  1.00  0.00     0.163 HD
ENDROOT
BRANCH   1   5
HETATM    5  C   UNL     1       6.219  25.811  52.161  1.00  0.00     0.032 A 
HETATM    6  C   UNL     1       5.586  25.360  53.326  1.00  0.00     0.018 A 
HETATM    7  C   UNL     1       6.070  24.225  53.995  1.00  0.00     0.015 A 
HETATM    8  C   UNL     1       7.197  23.530  53.531  1.00  0.00    -0.002 A 
HETATM    9  C   UNL     1       7.841  24.008  52.382  1.00  0.00     0.015 A 
HETATM   10  C   UNL     1       7.358  25.134  51.706  1.00  0.00     0.018 A 
BRANCH   8  11
HETATM   11  C   UNL     1       7.692  22.338  54.215  1.00  0.00     0.086 A 
HETATM   12  O   UNL     1       7.806  22.422  55.576  1.00  0.00    -0.315 OA
HETATM   13  C   UNL     1       8.254  21.217  56.026  1.00  0.00     0.050 A 
HETATM   14  C   UNL     1       8.438  21.078  57.485  1.00  0.00     0.076 C 
HETATM   15  C   UNL     1       8.439  20.356  54.969  1.00  0.00     0.035 A 
HETATM   16  C   UNL     1       8.077  21.075  53.804  1.00  0.00     0.040 A 
ENDBRANCH   8  11
ENDBRANCH   1   5
BRANCH   2  17
HETATM   17  C   UNL     1       5.000  27.735  49.064  1.00  0.00     0.084 C 
HETATM   18  C   UNL     1       4.793  27.002  47.726  1.00  0.00     0.027 C 
HETATM   19  C   UNL     1       3.421  26.319  47.649  1.00  0.00     0.035 C 
HETATM   20  C   UNL     1       2.251  27.255  47.959  1.00  0.00     0.183 C 
HETATM   21  C   UNL     1       2.474  28.095  49.212  1.00  0.00     0.035 C 
HETATM   22  C   UNL     1       3.857  28.749  49.248  1.00  0.00     0.027 C 
BRANCH  20  23
HETATM   23  N   UNL     1       2.032  28.170  46.798  1.00  0.00    -0.075 N 
HETATM   24  H   UNL     1       2.576  29.038  46.859  1.00  0.00     0.274 HD
HETATM   25  H   UNL     1       2.276  27.711  45.910  1.00  0.00     0.274 HD
HETATM   26  H   UNL     1       1.041  28.438  46.729  1.00  0.00     0.274 HD
ENDBRANCH  20  23
ENDBRANCH   2  17
TORSDOF 4
ENDMDL
MODEL 2
REMARK VINA RESULT:      -8.4      0.950      1.612
REMARK  4 active torsions:
REMARK  status: ('A' for Active; 'I' for Inactive)
REMARK    1  A    between atoms: C_4  and  C_5 
REMARK    2  A    between atoms: C_8  and  C_9 
REMARK       I    between atoms: C_9  and  N_10 
REMARK    3  A    between atoms: N_10  and  C_11 
REMARK    4  A    between atoms: C_14  and  N_15 
ROOT
HETATM    1  C   UNL     1       5.251  27.660  52.058  1.00  0.00     0.252 C 
HETATM    2  N   UNL     1       4.206  27.668  51.151  1.00  0.00    -0.352 N 
HETATM    3  O   UNL     1       5.699  28.675  52.580  1.00  0.00    -0.268 OA
HETATM    4  H   UNL     1       4.095  26.804  50.634  1.00  0.00     0.163 HD
ENDROOT
BRANCH   1   5
HETATM    5  C   UNL     1       5.860  26.336  52.396  1.00  0.00     0.032 A 
HETATM    6  C   UNL     1       6.963  25.798  51.724  1.00  0.00     0.018 A 
HETATM    7  C   UNL     1       7.497  24.564  52.125  1.00  0.00     0.015 A 
HETATM    8  C   UNL     1       6.937  23.836  53.186  1.00  0.00    -0.002 A 
HETATM    9  C   UNL     1       5.815  24.370  53.831  1.00  0.00     0.015 A 
HETATM   10  C   UNL     1       5.283  25.604  53.442  1.00  0.00     0.018 A 
BRANCH   8  11
HETATM   11  C   UNL     1       7.502  22.560  53.616  1.00  0.00     0.086 A 
HETATM   12  O   UNL     1       7.559  22.344  54.966  1.00  0.00    -0.315 OA
HETATM   13  C   UNL     1       8.086  21.103  55.162  1.00  0.00     0.050 A 
HETATM   14  C   UNL     1       8.227  20.654  56.562  1.00  0.00     0.076 C 
HETATM   15  C   UNL     1       8.380  20.518  53.953  1.00  0.00     0.035 A 
HETATM   16  C   UNL     1       8.003  21.452  52.957  1.00  0.00     0.040 A 
ENDBRANCH   8  11
ENDBRANCH   1   5
BRANCH   2  17
HETATM   17  C   UNL     1       3.707  28.847  50.437  1.00  0.00     0.084 C 
HETATM   18  C   UNL     1       4.660  29.157  49.267  1.00  0.00     0.027 C 
HETATM   19  C   UNL     1       4.524  28.137  48.129  1.00  0.00     0.035 C 
HETATM   20  C   UNL     1       3.087  27.947  47.641  1.00  0.00     0.183 C 
HETATM   21  C   UNL     1       2.089  27.764  48.781  1.00  0.00     0.035 C 
HETATM   22  C   UNL     1       2.268  28.798  49.895  1.00  0.00     0.027 C 
BRANCH  20  23
HETATM   23  N   UNL     1       2.681  29.135  46.831  1.00  0.00    -0.075 N 
HETATM   24  H   UNL     1       2.101  28.892  46.019  1.00  0.00     0.274 HD
HETATM   25  H   UNL     1       2.153  29.812  47.399  1.00  0.00     0.274 HD
HETATM   26  H   UNL     1       3.509  29.631  46.474  1.00  0.00     0.274 HD
ENDBRANCH  20  23
ENDBRANCH   2  17
TORSDOF 4
ENDMDL
MODEL 3
REMARK VINA RESULT:      -8.3     15.289     17.585
REMARK  4 active torsions:
REMARK  status: ('A' for Active; 'I' for Inactive)
REMARK    1  A    between atoms: C_4  and  C_5 
REMARK    2  A    between atoms: C_8  and  C_9 
REMARK       I    between atoms: C_9  and  N_10 
REMARK    3  A    between atoms: N_10  and  C_11 
REMARK    4  A    between atoms: C_14  and  N_15 
ROOT
HETATM    1  C   UNL     1       5.579  34.612  66.601  1.00  0.00     0.252 C 
HETATM    2  N   UNL     1       6.518  34.894  67.578  1.00  0.00    -0.352 N 
HETATM    3  O   UNL     1       4.406  34.962  66.670  1.00  0.00    -0.268 OA
HETATM    4  H   UNL     1       7.373  34.356  67.503  1.00  0.00     0.163 HD
ENDROOT
BRANCH   1   5
HETATM    5  C   UNL     1       6.037  33.828  65.411  1.00  0.00     0.032 A 
HETATM    6  C   UNL     1       5.165  33.179  64.530  1.00  0.00     0.018 A 
HETATM    7  C   UNL     1       5.672  32.493  63.417  1.00  0.00     0.015 A 
HETATM    8  C   UNL     1       7.052  32.425  63.167  1.00  0.00    -0.002 A 
HETATM    9  C   UNL     1       7.917  33.053  64.072  1.00  0.00     0.015 A 
HETATM   10  C   UNL     1       7.416  33.745  65.180  1.00  0.00     0.018 A 
BRANCH   8  11
HETATM   11  C   UNL     1       7.581  31.726  61.999  1.00  0.00     0.086 A 
HETATM   12  O   UNL     1       6.912  31.918  60.821  1.00  0.00    -0.315 OA
HETATM   13  C   UNL     1       7.567  31.212  59.857  1.00  0.00     0.050 A 
HETATM   14  C   UNL     1       7.018  31.288  58.489  1.00  0.00     0.076 C 
HETATM   15  C   UNL     1       8.648  30.558  60.402  1.00  0.00     0.035 A 
HETATM   16  C   UNL     1       8.660  30.889  61.779  1.00  0.00     0.040 A 
ENDBRANCH   8  11
ENDBRANCH   1   5
BRANCH   2  17
HETATM   17  C   UNL     1       6.218  35.334  68.944  1.00  0.00     0.084 C 
HETATM   18  C   UNL     1       5.648  34.141  69.734  1.00  0.00     0.027 C 
HETATM   19  C   UNL     1       6.728  33.104  70.069  1.00  0.00     0.035 C 
HETATM   20  C   UNL     1       7.957  33.696  70.763  1.00  0.00     0.183 C 
HETATM   21  C   UNL     1       8.476  34.958  70.081  1.00  0.00     0.035 C 
HETATM   22  C   UNL     1       7.364  35.958  69.760  1.00  0.00     0.027 C 
BRANCH  20  23
HETATM   23  N   UNL     1       7.612  34.021  72.180  1.00  0.00    -0.075 N 
HETATM   24  H   UNL     1       6.731  33.594  72.490  1.00  0.00     0.274 HD
HETATM   25  H   UNL     1       8.352  33.712  72.825  1.00  0.00     0.274 HD
HETATM   26  H   UNL     1       7.516  35.038  72.306  1.00  0.00     0.274 HD
ENDBRANCH  20  23
ENDBRANCH   2  17
TORSDOF 4
ENDMDL
MODEL 4
REMARK VINA RESULT:      -8.2      7.703      9.871
REMARK  4 active torsions:
REMARK  status: ('A' for Active; 'I' for Inactive)
REMARK    1  A    between atoms: C_4  and  C_5 
REMARK    2  A    between atoms: C_8  and  C_9 
REMARK       I    between atoms: C_9  and  N_10 
REMARK    3  A    between atoms: N_10  and  C_11 
REMARK    4  A    between atoms: C_14  and  N_15 
ROOT
HETATM    1  C   UNL     1       9.466  30.278  58.053  1.00  0.00     0.252 C 
HETATM    2  N   UNL     1       8.864  30.578  59.263  1.00  0.00    -0.352 N 
HETATM    3  O   UNL     1      10.516  30.786  57.677  1.00  0.00    -0.268 OA
HETATM    4  H   UNL     1       7.903  30.267  59.340  1.00  0.00     0.163 HD
ENDROOT
BRANCH   1   5
HETATM    5  C   UNL     1       8.776  29.289  57.167  1.00  0.00     0.032 A 
HETATM    6  C   UNL     1       8.856  29.315  55.770  1.00  0.00     0.018 A 
HETATM    7  C   UNL     1       8.208  28.329  55.010  1.00  0.00     0.015 A 
HETATM    8  C   UNL     1       7.457  27.313  55.621  1.00  0.00    -0.002 A 
HETATM    9  C   UNL     1       7.359  27.315  57.018  1.00  0.00     0.015 A 
HETATM   10  C   UNL     1       8.010  28.290  57.782  1.00  0.00     0.018 A 
BRANCH   8  11
HETATM   11  C   UNL     1       6.796  26.276  54.833  1.00  0.00     0.086 A 
HETATM   12  O   UNL     1       7.591  25.261  54.375  1.00  0.00    -0.315 OA
HETATM   13  C   UNL     1       6.795  24.391  53.693  1.00  0.00     0.050 A 
HETATM   14  C   UNL     1       7.451  23.201  53.116  1.00  0.00     0.076 C 
HETATM   15  C   UNL     1       5.493  24.838  53.697  1.00  0.00     0.035 A 
HETATM   16  C   UNL     1       5.492  26.049  54.433  1.00  0.00     0.040 A 
ENDBRANCH   8  11
ENDBRANCH   1   5
BRANCH   2  17
HETATM   17  C   UNL     1       9.175  31.737  60.104  1.00  0.00     0.084 C 
HETATM   18  C   UNL     1       7.916  32.616  60.220  1.00  0.00     0.027 C 
HETATM   19  C   UNL     1       6.846  31.975  61.114  1.00  0.00     0.035 C 
HETATM   20  C   UNL     1       7.365  31.562  62.493  1.00  0.00     0.183 C 
HETATM   21  C   UNL     1       8.684  30.796  62.429  1.00  0.00     0.035 C 
HETATM   22  C   UNL     1       9.714  31.468  61.520  1.00  0.00     0.027 C 
BRANCH  20  23
HETATM   23  N   UNL     1       7.557  32.782  63.334  1.00  0.00    -0.075 N 
HETATM   24  H   UNL     1       7.048  32.743  64.225  1.00  0.00     0.274 HD
HETATM   25  H   UNL     1       8.551  32.935  63.549  1.00  0.00     0.274 HD
HETATM   26  H   UNL     1       7.230  33.621  62.835  1.00  0.00     0.274 HD
ENDBRANCH  20  23
ENDBRANCH   2  17
TORSDOF 4
ENDMDL
MODEL 5
REMARK VINA RESULT:      -8.1      9.827     11.478
REMARK  4 active torsions:
REMARK  status: ('A' for Active; 'I' for Inactive)
REMARK    1  A    between atoms: C_4  and  C_5 
REMARK    2  A    between atoms: C_8  and  C_9 
REMARK       I    between atoms: C_9  and  N_10 
REMARK    3  A    between atoms: N_10  and  C_11 
REMARK    4  A    between atoms: C_14  and  N_15 
ROOT
HETATM    1  C   UNL     1       8.956  30.232  58.612  1.00  0.00     0.252 C 
HETATM    2  N   UNL     1       8.150  29.251  58.062  1.00  0.00    -0.352 N 
HETATM    3  O   UNL     1      10.007  30.606  58.105  1.00  0.00    -0.268 OA
HETATM    4  H   UNL     1       7.446  28.886  58.692  1.00  0.00     0.163 HD
ENDROOT
BRANCH   1   5
HETATM    5  C   UNL     1       8.508  30.849  59.900  1.00  0.00     0.032 A 
HETATM    6  C   UNL     1       9.161  30.647  61.121  1.00  0.00     0.018 A 
HETATM    7  C   UNL     1       8.700  31.290  62.280  1.00  0.00     0.015 A 
HETATM    8  C   UNL     1       7.574  32.128  62.251  1.00  0.00    -0.002 A 
HETATM    9  C   UNL     1       6.911  32.298  61.029  1.00  0.00     0.015 A 
HETATM   10  C   UNL     1       7.371  31.666  59.869  1.00  0.00     0.018 A 
BRANCH   8  11
HETATM   11  C   UNL     1       7.102  32.812  63.452  1.00  0.00     0.086 A 
HETATM   12  O   UNL     1       5.753  33.018  63.543  1.00  0.00    -0.315 OA
HETATM   13  C   UNL     1       5.511  33.638  64.732  1.00  0.00     0.050 A 
HETATM   14  C   UNL     1       4.102  33.948  65.046  1.00  0.00     0.076 C 
HETATM   15  C   UNL     1       6.693  33.844  65.406  1.00  0.00     0.035 A 
HETATM   16  C   UNL     1       7.717  33.311  64.585  1.00  0.00     0.040 A 
ENDBRANCH   8  11
ENDBRANCH   1   5
BRANCH   2  17
HETATM   17  C   UNL     1       8.555  28.300  57.022  1.00  0.00     0.084 C 
HETATM   18  C   UNL     1       7.926  26.930  57.332  1.00  0.00     0.027 C 
HETATM   19  C   UNL     1       6.415  26.916  57.065  1.00  0.00     0.035 C 
HETATM   20  C   UNL     1       6.033  27.400  55.665  1.00  0.00     0.183 C 
HETATM   21  C   UNL     1       6.737  28.695  55.269  1.00  0.00     0.035 C 
HETATM   22  C   UNL     1       8.239  28.664  55.560  1.00  0.00     0.027 C 
BRANCH  20  23
HETATM   23  N   UNL     1       6.373  26.341  54.668  1.00  0.00    -0.075 N 
HETATM   24  H   UNL     1       5.958  25.428  54.890  1.00  0.00     0.274 HD
HETATM   25  H   UNL     1       6.061  26.604  53.723  1.00  0.00     0.274 HD
HETATM   26  H   UNL     1       7.392  26.206  54.616  1.00  0.00     0.274 HD
ENDBRANCH  20  23
ENDBRANCH   2  17
TORSDOF 4
ENDMDL
MODEL 6
REMARK VINA RESULT:      -8.1     12.066     13.717
REMARK  4 active torsions:
REMARK  status: ('A' for Active; 'I' for Inactive)
REMARK    1  A    between atoms: C_4  and  C_5 
REMARK    2  A    between atoms: C_8  and  C_9 
REMARK       I    between atoms: C_9  and  N_10 
REMARK    3  A    between atoms: N_10  and  C_11 
REMARK    4  A    between atoms: C_14  and  N_15 
ROOT
HETATM    1  C   UNL     1       7.268  33.076  63.431  1.00  0.00     0.252 C 
HETATM    2  N   UNL     1       6.232  33.991  63.350  1.00  0.00    -0.352 N 
HETATM    3  O   UNL     1       7.919  32.882  64.450  1.00  0.00    -0.268 OA
HETATM    4  H   UNL     1       5.941  34.210  62.405  1.00  0.00     0.163 HD
ENDROOT
BRANCH   1   5
HETATM    5  C   UNL     1       7.601  32.302  62.194  1.00  0.00     0.032 A 
HETATM    6  C   UNL     1       6.884  32.411  60.997  1.00  0.00     0.018 A 
HETATM    7  C   UNL     1       7.281  31.677  59.870  1.00  0.00     0.015 A 
HETATM    8  C   UNL     1       8.385  30.811  59.915  1.00  0.00    -0.002 A 
HETATM    9  C   UNL     1       9.076  30.686  61.127  1.00  0.00     0.015 A 
HETATM   10  C   UNL     1       8.689  31.422  62.252  1.00  0.00     0.018 A 
BRANCH   8  11
HETATM   11  C   UNL     1       8.811  30.058  58.738  1.00  0.00     0.086 A 
HETATM   12  O   UNL     1       8.113  28.914  58.462  1.00  0.00    -0.315 OA
HETATM   13  C   UNL     1       8.639  28.376  57.326  1.00  0.00     0.050 A 
HETATM   14  C   UNL     1       8.021  27.129  56.833  1.00  0.00     0.076 C 
HETATM   15  C   UNL     1       9.676  29.156  56.870  1.00  0.00     0.035 A 
HETATM   16  C   UNL     1       9.787  30.239  57.775  1.00  0.00     0.040 A 
ENDBRANCH   8  11
ENDBRANCH   1   5
BRANCH   2  17
HETATM   17  C   UNL     1       5.972  35.069  64.309  1.00  0.00     0.084 C 
HETATM   18  C   UNL     1       4.687  35.806  63.888  1.00  0.00     0.027 C 
HETATM   19  C   UNL     1       3.430  34.967  64.152  1.00  0.00     0.035 C 
HETATM   20  C   UNL     1       3.328  34.445  65.587  1.00  0.00     0.183 C 
HETATM   21  C   UNL     1       4.626  33.820  66.088  1.00  0.00     0.035 C 
HETATM   22  C   UNL     1       5.852  34.688  65.795  1.00  0.00     0.027 C 
BRANCH  20  23
HETATM   23  N   UNL     1       2.954  35.572  66.495  1.00  0.00    -0.075 N 
HETATM   24  H   UNL     1       1.942  35.644  66.655  1.00  0.00     0.274 HD
HETATM   25  H   UNL     1       3.409  35.478  67.413  1.00  0.00     0.274 HD
HETATM   26  H   UNL     1       3.263  36.472  66.102  1.00  0.00     0.274 HD
ENDBRANCH  20  23
ENDBRANCH   2  17
TORSDOF 4
ENDMDL
MODEL 7
REMARK VINA RESULT:      -7.8      8.164     10.085
REMARK  4 active torsions:
REMARK  status: ('A' for Active; 'I' for Inactive)
REMARK    1  A    between atoms: C_4  and  C_5 
REMARK    2  A    between atoms: C_8  and  C_9 
REMARK       I    between atoms: C_9  and  N_10 
REMARK    3  A    between atoms: N_10  and  C_11 
REMARK    4  A    between atoms: C_14  and  N_15 
ROOT
HETATM    1  C   UNL     1       7.570  31.103  58.902  1.00  0.00     0.252 C 
HETATM    2  N   UNL     1       6.590  31.397  59.834  1.00  0.00    -0.352 N 
HETATM    3  O   UNL     1       8.549  31.813  58.704  1.00  0.00    -0.268 OA
HETATM    4  H   UNL     1       5.739  30.857  59.732  1.00  0.00     0.163 HD
ENDROOT
BRANCH   1   5
HETATM    5  C   UNL     1       7.400  29.854  58.096  1.00  0.00     0.032 A 
HETATM    6  C   UNL     1       6.168  29.420  57.592  1.00  0.00     0.018 A 
HETATM    7  C   UNL     1       6.097  28.255  56.814  1.00  0.00     0.015 A 
HETATM    8  C   UNL     1       7.242  27.491  56.538  1.00  0.00    -0.002 A 
HETATM    9  C   UNL     1       8.464  27.917  57.074  1.00  0.00     0.015 A 
HETATM   10  C   UNL     1       8.542  29.083  57.843  1.00  0.00     0.018 A 
BRANCH   8  11
HETATM   11  C   UNL     1       7.174  26.286  55.715  1.00  0.00     0.086 A 
HETATM   12  O   UNL     1       7.602  26.410  54.421  1.00  0.00    -0.315 OA
HETATM   13  C   UNL     1       7.485  25.187  53.831  1.00  0.00     0.050 A 
HETATM   14  C   UNL     1       7.909  25.086  52.421  1.00  0.00     0.076 C 
HETATM   15  C   UNL     1       6.977  24.276  54.729  1.00  0.00     0.035 A 
HETATM   16  C   UNL     1       6.779  24.981  55.941  1.00  0.00     0.040 A 
ENDBRANCH   8  11
ENDBRANCH   1   5
BRANCH   2  17
HETATM   17  C   UNL     1       6.384  32.703  60.469  1.00  0.00     0.084 C 
HETATM   18  C   UNL     1       4.894  32.848  60.828  1.00  0.00     0.027 C 
HETATM   19  C   UNL     1       4.499  31.961  62.017  1.00  0.00     0.035 C 
HETATM   20  C   UNL     1       5.390  32.149  63.247  1.00  0.00     0.183 C 
HETATM   21  C   UNL     1       6.879  32.140  62.912  1.00  0.00     0.035 C 
HETATM   22  C   UNL     1       7.222  33.031  61.717  1.00  0.00     0.027 C 
BRANCH  20  23
HETATM   23  N   UNL     1       5.052  33.447  63.905  1.00  0.00    -0.075 N 
HETATM   24  H   UNL     1       5.791  34.153  63.810  1.00  0.00     0.274 HD
HETATM   25  H   UNL     1       4.187  33.848  63.518  1.00  0.00     0.274 HD
HETATM   26  H   UNL     1       4.890  33.312  64.913  1.00  0.00     0.274 HD
ENDBRANCH  20  23
ENDBRANCH   2  17
TORSDOF 4
ENDMDL
MODEL 8
REMARK VINA RESULT:      -7.8     11.423     13.018
REMARK  4 active torsions:
REMARK  status: ('A' for Active; 'I' for Inactive)
REMARK    1  A    between atoms: C_4  and  C_5 
REMARK    2  A    between atoms: C_8  and  C_9 
REMARK       I    between atoms: C_9  and  N_10 
REMARK    3  A    between atoms: N_10  and  C_11 
REMARK    4  A    between atoms: C_14  and  N_15 
ROOT
HETATM    1  C   UNL     1       7.320  32.734  63.062  1.00  0.00     0.252 C 
HETATM    2  N   UNL     1       5.978  33.071  63.017  1.00  0.00    -0.352 N 
HETATM    3  O   UNL     1       8.028  32.911  64.047  1.00  0.00    -0.268 OA
HETATM    4  H   UNL     1       5.582  33.085  62.085  1.00  0.00     0.163 HD
ENDROOT
BRANCH   1   5
HETATM    5  C   UNL     1       7.921  32.135  61.830  1.00  0.00     0.032 A 
HETATM    6  C   UNL     1       9.072  31.339  61.840  1.00  0.00     0.018 A 
HETATM    7  C   UNL     1       9.554  30.784  60.645  1.00  0.00     0.015 A 
HETATM    8  C   UNL     1       8.914  31.023  59.419  1.00  0.00    -0.002 A 
HETATM    9  C   UNL     1       7.781  31.847  59.416  1.00  0.00     0.015 A 
HETATM   10  C   UNL     1       7.291  32.396  60.606  1.00  0.00     0.018 A 
BRANCH   8  11
HETATM   11  C   UNL     1       9.404  30.433  58.176  1.00  0.00     0.086 A 
HETATM   12  O   UNL     1       8.466  29.847  57.370  1.00  0.00    -0.315 OA
HETATM   13  C   UNL     1       9.108  29.385  56.261  1.00  0.00     0.050 A 
HETATM   14  C   UNL     1       8.275  28.720  55.239  1.00  0.00     0.076 C 
HETATM   15  C   UNL     1      10.454  29.657  56.346  1.00  0.00     0.035 A 
HETATM   16  C   UNL     1      10.646  30.333  57.576  1.00  0.00     0.040 A 
ENDBRANCH   8  11
ENDBRANCH   1   5
BRANCH   2  17
HETATM   17  C   UNL     1       5.291  33.959  63.960  1.00  0.00     0.084 C 
HETATM   18  C   UNL     1       5.845  35.385  63.789  1.00  0.00     0.027 C 
HETATM   19  C   UNL     1       5.366  36.036  62.485  1.00  0.00     0.035 C 
HETATM   20  C   UNL     1       3.847  36.003  62.302  1.00  0.00     0.183 C 
HETATM   21  C   UNL     1       3.242  34.632  62.588  1.00  0.00     0.035 C 
HETATM   22  C   UNL     1       3.755  34.020  63.893  1.00  0.00     0.027 C 
BRANCH  20  23
HETATM   23  N   UNL     1       3.220  37.007  63.214  1.00  0.00    -0.075 N 
HETATM   24  H   UNL     1       3.750  37.884  63.275  1.00  0.00     0.274 HD
HETATM   25  H   UNL     1       2.265  37.241  62.911  1.00  0.00     0.274 HD
HETATM   26  H   UNL     1       3.144  36.632  64.169  1.00  0.00     0.274 HD
ENDBRANCH  20  23
ENDBRANCH   2  17
TORSDOF 4
ENDMDL
MODEL 9
REMARK VINA RESULT:      -7.8      2.102      3.028
REMARK  4 active torsions:
REMARK  status: ('A' for Active; 'I' for Inactive)
REMARK    1  A    between atoms: C_4  and  C_5 
REMARK    2  A    between atoms: C_8  and  C_9 
REMARK       I    between atoms: C_9  and  N_10 
REMARK    3  A    between atoms: N_10  and  C_11 
REMARK    4  A    between atoms: C_14  and  N_15 
ROOT
HETATM    1  C   UNL     1       5.049  26.400  50.474  1.00  0.00     0.252 C 
HETATM    2  N   UNL     1       5.375  27.735  50.313  1.00  0.00    -0.352 N 
HETATM    3  O   UNL     1       4.254  25.807  49.754  1.00  0.00    -0.268 OA
HETATM    4  H   UNL     1       5.857  28.146  51.104  1.00  0.00     0.163 HD
ENDROOT
BRANCH   1   5
HETATM    5  C   UNL     1       5.702  25.663  51.600  1.00  0.00     0.032 A 
HETATM    6  C   UNL     1       7.023  25.200  51.559  1.00  0.00     0.018 A 
HETATM    7  C   UNL     1       7.575  24.547  52.671  1.00  0.00     0.015 A 
HETATM    8  C   UNL     1       6.823  24.326  53.835  1.00  0.00    -0.002 A 
HETATM    9  C   UNL     1       5.493  24.765  53.854  1.00  0.00     0.015 A 
HETATM   10  C   UNL     1       4.940  25.425  52.751  1.00  0.00     0.018 A 
BRANCH   8  11
HETATM   11  C   UNL     1       7.400  23.662  55.001  1.00  0.00     0.086 A 
HETATM   12  O   UNL     1       7.449  22.295  54.959  1.00  0.00    -0.315 OA
HETATM   13  C   UNL     1       8.037  21.870  56.112  1.00  0.00     0.050 A 
HETATM   14  C   UNL     1       8.206  20.412  56.274  1.00  0.00     0.076 C 
HETATM   15  C   UNL     1       8.361  22.948  56.903  1.00  0.00     0.035 A 
HETATM   16  C   UNL     1       7.954  24.101  56.189  1.00  0.00     0.040 A 
ENDBRANCH   8  11
ENDBRANCH   1   5
BRANCH   2  17
HETATM   17  C   UNL     1       4.618  28.707  49.517  1.00  0.00     0.084 C 
HETATM   18  C   UNL     1       3.362  29.121  50.306  1.00  0.00     0.027 C 
HETATM   19  C   UNL     1       3.703  30.028  51.495  1.00  0.00     0.035 C 
HETATM   20  C   UNL     1       4.550  31.245  51.118  1.00  0.00     0.183 C 
HETATM   21  C   UNL     1       5.736  30.893  50.226  1.00  0.00     0.035 C 
HETATM   22  C   UNL     1       5.350  29.980  49.060  1.00  0.00     0.027 C 
BRANCH  20  23
HETATM   23  N   UNL     1       3.691  32.241  50.406  1.00  0.00    -0.075 N 
HETATM   24  H   UNL     1       3.274  31.871  49.544  1.00  0.00     0.274 HD
HETATM   25  H   UNL     1       2.924  32.569  51.008  1.00  0.00     0.274 HD
HETATM   26  H   UNL     1       4.239  33.071  50.145  1.00  0.00     0.274 HD
ENDBRANCH  20  23
ENDBRANCH   2  17
TORSDOF 4
ENDMDL
MODEL 10
REMARK VINA RESULT:      -7.4     15.810     17.021
REMARK  4 active torsions:
REMARK  status: ('A' for Active; 'I' for Inactive)
REMARK    1  A    between atoms: C_4  and  C_5 
REMARK    2  A    between atoms: C_8  and  C_9 
REMARK       I    between atoms: C_9  and  N_10 
REMARK    3  A    between atoms: N_10  and  C_11 
REMARK    4  A    between atoms: C_14  and  N_15 
ROOT
HETATM    1  C   UNL     1       5.055  33.076  63.898  1.00  0.00     0.252 C 
HETATM    2  N   UNL     1       4.889  33.999  62.879  1.00  0.00    -0.352 N 
HETATM    3  O   UNL     1       4.966  31.865  63.732  1.00  0.00    -0.268 OA
HETATM    4  H   UNL     1       4.762  34.953  63.196  1.00  0.00     0.163 HD
ENDROOT
BRANCH   1   5
HETATM    5  C   UNL     1       5.345  33.606  65.266  1.00  0.00     0.032 A 
HETATM    6  C   UNL     1       4.351  33.957  66.187  1.00  0.00     0.018 A 
HETATM    7  C   UNL     1       4.706  34.414  67.465  1.00  0.00     0.015 A 
HETATM    8  C   UNL     1       6.051  34.547  67.845  1.00  0.00    -0.002 A 
HETATM    9  C   UNL     1       7.037  34.223  66.905  1.00  0.00     0.015 A 
HETATM   10  C   UNL     1       6.689  33.758  65.632  1.00  0.00     0.018 A 
BRANCH   8  11
HETATM   11  C   UNL     1       6.422  35.006  69.181  1.00  0.00     0.086 A 
HETATM   12  O   UNL     1       5.610  34.609  70.208  1.00  0.00    -0.315 OA
HETATM   13  C   UNL     1       6.132  35.111  71.362  1.00  0.00     0.050 A 
HETATM   14  C   UNL     1       5.414  34.791  72.612  1.00  0.00     0.076 C 
HETATM   15  C   UNL     1       7.269  35.837  71.090  1.00  0.00     0.035 A 
HETATM   16  C   UNL     1       7.459  35.768  69.689  1.00  0.00     0.040 A 
ENDBRANCH   8  11
ENDBRANCH   1   5
BRANCH   2  17
HETATM   17  C   UNL     1       4.276  33.727  61.575  1.00  0.00     0.084 C 
HETATM   18  C   UNL     1       2.751  33.622  61.758  1.00  0.00     0.027 C 
HETATM   19  C   UNL     1       2.107  34.989  62.023  1.00  0.00     0.035 C 
HETATM   20  C   UNL     1       2.472  36.052  60.984  1.00  0.00     0.183 C 
HETATM   21  C   UNL     1       3.966  36.101  60.680  1.00  0.00     0.035 C 
HETATM   22  C   UNL     1       4.564  34.715  60.431  1.00  0.00     0.027 C 
BRANCH  20  23
HETATM   23  N   UNL     1       1.730  35.777  59.717  1.00  0.00    -0.075 N 
HETATM   24  H   UNL     1       1.289  34.849  59.700  1.00  0.00     0.274 HD
HETATM   25  H   UNL     1       0.992  36.475  59.557  1.00  0.00     0.274 HD
HETATM   26  H   UNL     1       2.364  35.825  58.907  1.00  0.00     0.274 HD
ENDBRANCH  20  23
ENDBRANCH   2  17
TORSDOF 4
ENDMDL
