MODEL 1
REMARK VINA RESULT:     -10.1      0.000      0.000
REMARK  5 active torsions:
REMARK  status: ('A' for Active; 'I' for Inactive)
REMARK    1  A    between atoms: C_4  and  C_5 
REMARK    2  A    between atoms: C_9  and  C_10 
REMARK       I    between atoms: C_10  and  N_11 
REMARK    3  A    between atoms: N_11  and  C_12 
REMARK    4  A    between atoms: C_14  and  C_15 
REMARK       I    between atoms: C_15  and  N_16 
REMARK    5  A    between atoms: N_16  and  C_17 
ROOT
HETATM    1  C   UNL     1       7.166  27.821  55.706  1.00  0.00     0.276 C 
HETATM    2  N   UNL     1       8.251  27.847  56.565  1.00  0.00    -0.322 N 
HETATM    3  O   UNL     1       6.505  28.788  55.343  1.00  0.00    -0.266 OA
HETATM    4  H   UNL     1       8.704  26.941  56.681  1.00  0.00     0.169 HD
ENDROOT
BRANCH   2   5
HETATM    5  C   UNL     1       8.810  28.972  57.197  1.00  0.00     0.036 A 
HETATM    6  C   UNL     1       8.092  29.784  58.078  1.00  0.00     0.046 A 
HETATM    7  C   UNL     1       8.671  30.932  58.635  1.00  0.00     0.034 A 
HETATM    8  C   UNL     1      10.006  31.237  58.354  1.00  0.00     0.017 A 
HETATM    9  C   UNL     1      10.743  30.413  57.502  1.00  0.00     0.003 A 
HETATM   10  C   UNL     1      10.145  29.288  56.923  1.00  0.00     0.029 A 
BRANCH   7  11
HETATM   11  C   UNL     1       7.895  31.826  59.541  1.00  0.00     0.252 C 
HETATM   12  N   UNL     1       8.287  31.827  60.869  1.00  0.00    -0.352 N 
HETATM   13  H   UNL     1       8.985  31.162  61.179  1.00  0.00     0.163 HD
HETATM   14  O   UNL     1       6.961  32.486  59.097  1.00  0.00    -0.268 OA
BRANCH  12  15
HETATM   15  C   UNL     1       7.691  32.658  61.866  1.00  0.00     0.084 A 
HETATM   16  C   UNL     1       6.646  32.102  62.793  1.00  0.00     0.027 A 
HETATM   17  C   UNL     1       8.013  32.426  63.319  1.00  0.00     0.027 A 
ENDBRANCH  12  15
ENDBRANCH   7  11
ENDBRANCH   2   5
BRANCH   1  18
HETATM   18  C   UNL     1       6.869  26.470  55.203  1.00  0.00     0.147 A 
HETATM   19  N   UNL     1       5.679  26.131  54.669  1.00  0.00    -0.169 NA
HETATM   20  N   UNL     1       5.832  24.827  54.355  1.00  0.00    -0.277 N 
HETATM   21  C   UNL     1       7.065  24.309  54.662  1.00  0.00     0.063 A 
HETATM   22  H   UNL     1       5.045  24.336  53.947  1.00  0.00     0.189 HD
HETATM   23  C   UNL     1       7.753  25.365  55.220  1.00  0.00     0.071 A 
BRANCH  21  24
HETATM   24  C   UNL     1       7.463  22.922  54.438  1.00  0.00    -0.008 A 
HETATM   25  C   UNL     1       7.762  22.444  53.156  1.00  0.00     0.014 A 
HETATM   26  C   UNL     1       8.162  21.118  52.969  1.00  0.00     0.001 A 
HETATM   27  C   UNL     1       8.268  20.256  54.059  1.00  0.00     0.000 A 
HETATM   28  C   UNL     1       7.975  20.719  55.339  1.00  0.00     0.001 A 
HETATM   29  C   UNL     1       7.576  22.044  55.526  1.00  0.00     0.014 A 
ENDBRANCH  21  24
ENDBRANCH   1  18
TORSDOF 5
ENDMDL
MODEL 2
REMARK VINA RESULT:      -9.7      1.658      2.396
REMARK  5 active torsions:
REMARK  status: ('A' for Active; 'I' for Inactive)
REMARK    1  A    between atoms: C_4  and  C_5 
REMARK    2  A    between atoms: C_9  and  C_10 
REMARK       I    between atoms: C_10  and  N_11 
REMARK    3  A    between atoms: N_11  and  C_12 
REMARK    4  A    between atoms: C_14  and  C_15 
REMARK       I    between atoms: C_15  and  N_16 
REMARK    5  A    between atoms: N_16  and  C_17 
ROOT
HETATM    1  C   UNL     1       5.719  26.805  56.155  1.00  0.00     0.276 C 
HETATM    2  N   UNL     1       6.455  27.947  55.888  1.00  0.00    -0.322 N 
HETATM    3  O   UNL     1       4.824  26.696  56.986  1.00  0.00    -0.266 OA
HETATM    4  H   UNL     1       7.103  27.844  55.108  1.00  0.00     0.169 HD
ENDROOT
BRANCH   2   5
HETATM    5  C   UNL     1       6.333  29.203  56.509  1.00  0.00     0.036 A 
HETATM    6  C   UNL     1       7.234  29.664  57.472  1.00  0.00     0.046 A 
HETATM    7  C   UNL     1       7.038  30.896  58.111  1.00  0.00     0.034 A 
HETATM    8  C   UNL     1       5.960  31.703  57.738  1.00  0.00     0.017 A 
HETATM    9  C   UNL     1       5.073  31.266  56.752  1.00  0.00     0.003 A 
HETATM   10  C   UNL     1       5.257  30.019  56.145  1.00  0.00     0.029 A 
BRANCH   7  11
HETATM   11  C   UNL     1       7.973  31.373  59.171  1.00  0.00     0.252 C 
HETATM   12  N   UNL     1       7.933  30.678  60.367  1.00  0.00    -0.352 N 
HETATM   13  H   UNL     1       7.220  29.973  60.507  1.00  0.00     0.163 HD
HETATM   14  O   UNL     1       8.698  32.338  58.956  1.00  0.00    -0.268 OA
BRANCH  12  15
HETATM   15  C   UNL     1       8.793  30.963  61.472  1.00  0.00     0.084 A 
HETATM   16  C   UNL     1       8.471  32.090  62.414  1.00  0.00     0.027 A 
HETATM   17  C   UNL     1       8.325  30.671  62.874  1.00  0.00     0.027 A 
ENDBRANCH  12  15
ENDBRANCH   7  11
ENDBRANCH   2   5
BRANCH   1  18
HETATM   18  C   UNL     1       6.090  25.672  55.291  1.00  0.00     0.147 A 
HETATM   19  N   UNL     1       5.751  25.601  53.989  1.00  0.00    -0.169 NA
HETATM   20  N   UNL     1       6.272  24.420  53.590  1.00  0.00    -0.277 N 
HETATM   21  C   UNL     1       6.930  23.728  54.574  1.00  0.00     0.063 A 
HETATM   22  H   UNL     1       6.126  24.133  52.629  1.00  0.00     0.189 HD
HETATM   23  C   UNL     1       6.818  24.527  55.692  1.00  0.00     0.071 A 
BRANCH  21  24
HETATM   24  C   UNL     1       7.556  22.421  54.394  1.00  0.00    -0.008 A 
HETATM   25  C   UNL     1       7.853  21.595  55.485  1.00  0.00     0.014 A 
HETATM   26  C   UNL     1       8.433  20.339  55.287  1.00  0.00     0.001 A 
HETATM   27  C   UNL     1       8.722  19.894  53.998  1.00  0.00     0.000 A 
HETATM   28  C   UNL     1       8.431  20.706  52.904  1.00  0.00     0.001 A 
HETATM   29  C   UNL     1       7.850  21.960  53.102  1.00  0.00     0.014 A 
ENDBRANCH  21  24
ENDBRANCH   1  18
TORSDOF 5
ENDMDL
MODEL 3
REMARK VINA RESULT:      -9.3      1.971     10.130
REMARK  5 active torsions:
REMARK  status: ('A' for Active; 'I' for Inactive)
REMARK    1  A    between atoms: C_4  and  C_5 
REMARK    2  A    between atoms: C_9  and  C_10 
REMARK       I    between atoms: C_10  and  N_11 
REMARK    3  A    between atoms: N_11  and  C_12 
REMARK    4  A    between atoms: C_14  and  C_15 
REMARK       I    between atoms: C_15  and  N_16 
REMARK    5  A    between atoms: N_16  and  C_17 
ROOT
HETATM    1  C   UNL     1       8.751  29.714  57.872  1.00  0.00     0.276 C 
HETATM    2  N   UNL     1       7.755  28.773  58.071  1.00  0.00    -0.322 N 
HETATM    3  O   UNL     1       9.500  29.783  56.903  1.00  0.00    -0.266 OA
HETATM    4  H   UNL     1       7.198  28.937  58.909  1.00  0.00     0.169 HD
ENDROOT
BRANCH   2   5
HETATM    5  C   UNL     1       7.402  27.713  57.217  1.00  0.00     0.036 A 
HETATM    6  C   UNL     1       7.928  26.425  57.349  1.00  0.00     0.046 A 
HETATM    7  C   UNL     1       7.596  25.415  56.436  1.00  0.00     0.034 A 
HETATM    8  C   UNL     1       6.679  25.681  55.416  1.00  0.00     0.017 A 
HETATM    9  C   UNL     1       6.122  26.955  55.296  1.00  0.00     0.003 A 
HETATM   10  C   UNL     1       6.486  27.967  56.191  1.00  0.00     0.029 A 
BRANCH   7  11
HETATM   11  C   UNL     1       8.188  24.050  56.546  1.00  0.00     0.252 C 
HETATM   12  N   UNL     1       8.073  23.250  55.423  1.00  0.00    -0.352 N 
HETATM   13  H   UNL     1       7.516  23.572  54.641  1.00  0.00     0.163 HD
HETATM   14  O   UNL     1       8.716  23.696  57.595  1.00  0.00    -0.268 OA
BRANCH  12  15
HETATM   15  C   UNL     1       8.626  21.936  55.331  1.00  0.00     0.084 A 
HETATM   16  C   UNL     1       7.808  20.739  55.728  1.00  0.00     0.027 A 
HETATM   17  C   UNL     1       8.116  20.985  54.281  1.00  0.00     0.027 A 
ENDBRANCH  12  15
ENDBRANCH   7  11
ENDBRANCH   2   5
BRANCH   1  18
HETATM   18  C   UNL     1       8.825  30.705  58.957  1.00  0.00     0.147 A 
HETATM   19  N   UNL     1       9.912  31.472  59.177  1.00  0.00    -0.169 NA
HETATM   20  N   UNL     1       9.564  32.213  60.251  1.00  0.00    -0.277 N 
HETATM   21  C   UNL     1       8.305  31.960  60.733  1.00  0.00     0.063 A 
HETATM   22  H   UNL     1      10.243  32.868  60.622  1.00  0.00     0.189 HD
HETATM   23  C   UNL     1       7.810  30.975  59.905  1.00  0.00     0.071 A 
BRANCH  21  24
HETATM   24  C   UNL     1       7.713  32.617  61.895  1.00  0.00    -0.008 A 
HETATM   25  C   UNL     1       8.219  32.419  63.186  1.00  0.00     0.014 A 
HETATM   26  C   UNL     1       7.650  33.076  64.280  1.00  0.00     0.001 A 
HETATM   27  C   UNL     1       6.569  33.936  64.097  1.00  0.00     0.000 A 
HETATM   28  C   UNL     1       6.056  34.143  62.820  1.00  0.00     0.001 A 
HETATM   29  C   UNL     1       6.626  33.488  61.726  1.00  0.00     0.014 A 
ENDBRANCH  21  24
ENDBRANCH   1  18
TORSDOF 5
ENDMDL
MODEL 4
REMARK VINA RESULT:      -9.2      6.804     10.230
REMARK  5 active torsions:
REMARK  status: ('A' for Active; 'I' for Inactive)
REMARK    1  A    between atoms: C_4  and  C_5 
REMARK    2  A    between atoms: C_9  and  C_10 
REMARK       I    between atoms: C_10  and  N_11 
REMARK    3  A    between atoms: N_11  and  C_12 
REMARK    4  A    between atoms: C_14  and  C_15 
REMARK       I    between atoms: C_15  and  N_16 
REMARK    5  A    between atoms: N_16  and  C_17 
ROOT
HETATM    1  C   UNL     1       5.272  26.939  51.628  1.00  0.00     0.276 C 
HETATM    2  N   UNL     1       5.447  26.775  50.264  1.00  0.00    -0.322 N 
HETATM    3  O   UNL     1       4.474  27.694  52.171  1.00  0.00    -0.266 OA
HETATM    4  H   UNL     1       6.114  26.043  50.022  1.00  0.00     0.169 HD
ENDROOT
BRANCH   2   5
HETATM    5  C   UNL     1       4.757  27.434  49.232  1.00  0.00     0.036 A 
HETATM    6  C   UNL     1       3.427  27.154  48.906  1.00  0.00     0.046 A 
HETATM    7  C   UNL     1       2.800  27.791  47.828  1.00  0.00     0.034 A 
HETATM    8  C   UNL     1       3.491  28.767  47.105  1.00  0.00     0.017 A 
HETATM    9  C   UNL     1       4.809  29.079  47.444  1.00  0.00     0.003 A 
HETATM   10  C   UNL     1       5.439  28.412  48.500  1.00  0.00     0.029 A 
BRANCH   7  11
HETATM   11  C   UNL     1       1.395  27.463  47.449  1.00  0.00     0.252 C 
HETATM   12  N   UNL     1       0.998  27.877  46.189  1.00  0.00    -0.352 N 
HETATM   13  H   UNL     1       1.618  28.460  45.641  1.00  0.00     0.163 HD
HETATM   14  O   UNL     1       0.667  26.881  48.246  1.00  0.00    -0.268 OA
BRANCH  12  15
HETATM   15  C   UNL     1      -0.293  27.604  45.641  1.00  0.00     0.084 A 
HETATM   16  C   UNL     1      -1.458  28.500  45.959  1.00  0.00     0.027 A 
HETATM   17  C   UNL     1      -0.861  28.514  44.583  1.00  0.00     0.027 A 
ENDBRANCH  12  15
ENDBRANCH   7  11
ENDBRANCH   2   5
BRANCH   1  18
HETATM   18  C   UNL     1       6.145  26.062  52.424  1.00  0.00     0.147 A 
HETATM   19  N   UNL     1       7.173  26.524  53.163  1.00  0.00    -0.169 NA
HETATM   20  N   UNL     1       7.700  25.407  53.709  1.00  0.00    -0.277 N 
HETATM   21  C   UNL     1       7.059  24.246  53.356  1.00  0.00     0.063 A 
HETATM   22  H   UNL     1       8.514  25.503  54.304  1.00  0.00     0.189 HD
HETATM   23  C   UNL     1       6.046  24.653  52.515  1.00  0.00     0.071 A 
BRANCH  21  24
HETATM   24  C   UNL     1       7.454  22.912  53.799  1.00  0.00    -0.008 A 
HETATM   25  C   UNL     1       7.796  21.908  52.885  1.00  0.00     0.014 A 
HETATM   26  C   UNL     1       8.192  20.645  53.333  1.00  0.00     0.001 A 
HETATM   27  C   UNL     1       8.252  20.371  54.698  1.00  0.00     0.000 A 
HETATM   28  C   UNL     1       7.915  21.361  55.618  1.00  0.00     0.001 A 
HETATM   29  C   UNL     1       7.521  22.624  55.170  1.00  0.00     0.014 A 
ENDBRANCH  21  24
ENDBRANCH   1  18
TORSDOF 5
ENDMDL
MODEL 5
REMARK VINA RESULT:      -9.2      2.828      5.521
REMARK  5 active torsions:
REMARK  status: ('A' for Active; 'I' for Inactive)
REMARK    1  A    between atoms: C_4  and  C_5 
REMARK    2  A    between atoms: C_9  and  C_10 
REMARK       I    between atoms: C_10  and  N_11 
REMARK    3  A    between atoms: N_11  and  C_12 
REMARK    4  A    between atoms: C_14  and  C_15 
REMARK       I    between atoms: C_15  and  N_16 
REMARK    5  A    between atoms: N_16  and  C_17 
ROOT
HETATM    1  C   UNL     1       8.509  31.232  59.418  1.00  0.00     0.276 C 
HETATM    2  N   UNL     1       7.775  30.869  60.534  1.00  0.00    -0.322 N 
HETATM    3  O   UNL     1       8.969  32.345  59.183  1.00  0.00    -0.266 OA
HETATM    4  H   UNL     1       7.549  29.876  60.570  1.00  0.00     0.169 HD
ENDROOT
BRANCH   2   5
HETATM    5  C   UNL     1       7.403  31.690  61.613  1.00  0.00     0.036 A 
HETATM    6  C   UNL     1       6.156  32.314  61.700  1.00  0.00     0.046 A 
HETATM    7  C   UNL     1       5.853  33.175  62.763  1.00  0.00     0.034 A 
HETATM    8  C   UNL     1       6.788  33.365  63.784  1.00  0.00     0.017 A 
HETATM    9  C   UNL     1       8.024  32.719  63.725  1.00  0.00     0.003 A 
HETATM   10  C   UNL     1       8.331  31.889  62.642  1.00  0.00     0.029 A 
BRANCH   7  11
HETATM   11  C   UNL     1       4.539  33.877  62.837  1.00  0.00     0.252 C 
HETATM   12  N   UNL     1       4.570  35.240  62.598  1.00  0.00    -0.352 N 
HETATM   13  H   UNL     1       5.464  35.704  62.496  1.00  0.00     0.163 HD
HETATM   14  O   UNL     1       3.525  33.247  63.117  1.00  0.00    -0.268 OA
BRANCH  12  15
HETATM   15  C   UNL     1       3.402  36.062  62.576  1.00  0.00     0.084 A 
HETATM   16  C   UNL     1       3.522  37.547  62.373  1.00  0.00     0.027 A 
HETATM   17  C   UNL     1       2.957  36.689  61.281  1.00  0.00     0.027 A 
ENDBRANCH  12  15
ENDBRANCH   7  11
ENDBRANCH   2   5
BRANCH   1  18
HETATM   18  C   UNL     1       8.741  30.108  58.497  1.00  0.00     0.147 A 
HETATM   19  N   UNL     1       9.847  30.000  57.735  1.00  0.00    -0.169 NA
HETATM   20  N   UNL     1       9.650  28.853  57.050  1.00  0.00    -0.277 N 
HETATM   21  C   UNL     1       8.468  28.218  57.334  1.00  0.00     0.063 A 
HETATM   22  H   UNL     1      10.357  28.565  56.384  1.00  0.00     0.189 HD
HETATM   23  C   UNL     1       7.859  29.024  58.272  1.00  0.00     0.071 A 
BRANCH  21  24
HETATM   24  C   UNL     1       8.020  26.977  56.708  1.00  0.00    -0.008 A 
HETATM   25  C   UNL     1       7.427  26.969  55.439  1.00  0.00     0.014 A 
HETATM   26  C   UNL     1       7.027  25.767  54.850  1.00  0.00     0.001 A 
HETATM   27  C   UNL     1       7.214  24.560  55.521  1.00  0.00     0.000 A 
HETATM   28  C   UNL     1       7.803  24.553  56.783  1.00  0.00     0.001 A 
HETATM   29  C   UNL     1       8.205  25.755  57.371  1.00  0.00     0.014 A 
ENDBRANCH  21  24
ENDBRANCH   1  18
TORSDOF 5
ENDMDL
MODEL 6
REMARK VINA RESULT:      -8.8      8.883     13.425
REMARK  5 active torsions:
REMARK  status: ('A' for Active; 'I' for Inactive)
REMARK    1  A    between atoms: C_4  and  C_5 
REMARK    2  A    between atoms: C_9  and  C_10 
REMARK       I    between atoms: C_10  and  N_11 
REMARK    3  A    between atoms: N_11  and  C_12 
REMARK    4  A    between atoms: C_14  and  C_15 
REMARK       I    between atoms: C_15  and  N_16 
REMARK    5  A    between atoms: N_16  and  C_17 
ROOT
HETATM    1  C   UNL     1       5.876  34.380  67.763  1.00  0.00     0.276 C 
HETATM    2  N   UNL     1       7.175  34.636  68.169  1.00  0.00    -0.322 N 
HETATM    3  O   UNL     1       4.861  34.551  68.429  1.00  0.00    -0.266 OA
HETATM    4  H   UNL     1       7.869  34.492  67.437  1.00  0.00     0.169 HD
ENDROOT
BRANCH   2   5
HETATM    5  C   UNL     1       7.595  35.135  69.415  1.00  0.00     0.036 A 
HETATM    6  C   UNL     1       7.562  36.494  69.740  1.00  0.00     0.046 A 
HETATM    7  C   UNL     1       8.050  36.953  70.970  1.00  0.00     0.034 A 
HETATM    8  C   UNL     1       8.520  36.034  71.912  1.00  0.00     0.017 A 
HETATM    9  C   UNL     1       8.526  34.671  71.611  1.00  0.00     0.003 A 
HETATM   10  C   UNL     1       8.069  34.225  70.366  1.00  0.00     0.029 A 
BRANCH   7  11
HETATM   11  C   UNL     1       8.056  38.407  71.304  1.00  0.00     0.252 C 
HETATM   12  N   UNL     1       8.039  39.273  70.224  1.00  0.00    -0.352 N 
HETATM   13  H   UNL     1       8.131  38.899  69.288  1.00  0.00     0.163 HD
HETATM   14  O   UNL     1       8.096  38.765  72.476  1.00  0.00    -0.268 OA
BRANCH  12  15
HETATM   15  C   UNL     1       7.990  40.694  70.356  1.00  0.00     0.084 A 
HETATM   16  C   UNL     1       7.855  41.566  69.138  1.00  0.00     0.027 A 
HETATM   17  C   UNL     1       6.701  41.424  70.084  1.00  0.00     0.027 A 
ENDBRANCH  12  15
ENDBRANCH   7  11
ENDBRANCH   2   5
BRANCH   1  18
HETATM   18  C   UNL     1       5.798  33.889  66.378  1.00  0.00     0.147 A 
HETATM   19  N   UNL     1       4.640  33.523  65.794  1.00  0.00    -0.169 NA
HETATM   20  N   UNL     1       5.018  33.137  64.556  1.00  0.00    -0.277 N 
HETATM   21  C   UNL     1       6.364  33.238  64.315  1.00  0.00     0.063 A 
HETATM   22  H   UNL     1       4.304  32.794  63.923  1.00  0.00     0.189 HD
HETATM   23  C   UNL     1       6.890  33.722  65.494  1.00  0.00     0.071 A 
BRANCH  21  24
HETATM   24  C   UNL     1       7.015  32.862  63.063  1.00  0.00    -0.008 A 
HETATM   25  C   UNL     1       8.297  32.298  63.045  1.00  0.00     0.014 A 
HETATM   26  C   UNL     1       8.890  31.925  61.836  1.00  0.00     0.001 A 
HETATM   27  C   UNL     1       8.211  32.112  60.633  1.00  0.00     0.000 A 
HETATM   28  C   UNL     1       6.936  32.672  60.637  1.00  0.00     0.001 A 
HETATM   29  C   UNL     1       6.342  33.042  61.846  1.00  0.00     0.014 A 
ENDBRANCH  21  24
ENDBRANCH   1  18
TORSDOF 5
ENDMDL
MODEL 7
REMARK VINA RESULT:      -8.7      3.798     10.158
REMARK  5 active torsions:
REMARK  status: ('A' for Active; 'I' for Inactive)
REMARK    1  A    between atoms: C_4  and  C_5 
REMARK    2  A    between atoms: C_9  and  C_10 
REMARK       I    between atoms: C_10  and  N_11 
REMARK    3  A    between atoms: N_11  and  C_12 
REMARK    4  A    between atoms: C_14  and  C_15 
REMARK       I    between atoms: C_15  and  N_16 
REMARK    5  A    between atoms: N_16  and  C_17 
ROOT
HETATM    1  C   UNL     1       7.001  28.169  55.810  1.00  0.00     0.276 C 
HETATM    2  N   UNL     1       5.798  27.826  55.218  1.00  0.00    -0.322 N 
HETATM    3  O   UNL     1       8.112  27.764  55.483  1.00  0.00    -0.266 OA
HETATM    4  H   UNL     1       4.997  28.331  55.597  1.00  0.00     0.169 HD
ENDROOT
BRANCH   2   5
HETATM    5  C   UNL     1       5.600  26.951  54.135  1.00  0.00     0.036 A 
HETATM    6  C   UNL     1       5.421  27.395  52.823  1.00  0.00     0.046 A 
HETATM    7  C   UNL     1       5.164  26.489  51.785  1.00  0.00     0.034 A 
HETATM    8  C   UNL     1       5.146  25.119  52.054  1.00  0.00     0.017 A 
HETATM    9  C   UNL     1       5.357  24.663  53.356  1.00  0.00     0.003 A 
HETATM   10  C   UNL     1       5.579  25.576  54.392  1.00  0.00     0.029 A 
BRANCH   7  11
HETATM   11  C   UNL     1       4.929  26.962  50.390  1.00  0.00     0.252 C 
HETATM   12  N   UNL     1       4.056  26.198  49.634  1.00  0.00    -0.352 N 
HETATM   13  H   UNL     1       3.712  25.323  50.008  1.00  0.00     0.163 HD
HETATM   14  O   UNL     1       5.512  27.958  49.975  1.00  0.00    -0.268 OA
BRANCH  12  15
HETATM   15  C   UNL     1       3.675  26.530  48.297  1.00  0.00     0.084 A 
HETATM   16  C   UNL     1       3.087  25.482  47.393  1.00  0.00     0.027 A 
HETATM   17  C   UNL     1       2.215  26.577  47.930  1.00  0.00     0.027 A 
ENDBRANCH  12  15
ENDBRANCH   7  11
ENDBRANCH   2   5
BRANCH   1  18
HETATM   18  C   UNL     1       6.843  29.139  56.905  1.00  0.00     0.147 A 
HETATM   19  N   UNL     1       5.757  29.926  57.037  1.00  0.00    -0.169 NA
HETATM   20  N   UNL     1       6.024  30.652  58.143  1.00  0.00    -0.277 N 
HETATM   21  C   UNL     1       7.231  30.372  58.730  1.00  0.00     0.063 A 
HETATM   22  H   UNL     1       5.344  31.344  58.439  1.00  0.00     0.189 HD
HETATM   23  C   UNL     1       7.782  29.390  57.933  1.00  0.00     0.071 A 
BRANCH  21  24
HETATM   24  C   UNL     1       7.752  31.039  59.920  1.00  0.00    -0.008 A 
HETATM   25  C   UNL     1       7.055  32.085  60.537  1.00  0.00     0.014 A 
HETATM   26  C   UNL     1       7.562  32.694  61.688  1.00  0.00     0.001 A 
HETATM   27  C   UNL     1       8.770  32.265  62.235  1.00  0.00     0.000 A 
HETATM   28  C   UNL     1       9.473  31.225  61.633  1.00  0.00     0.001 A 
HETATM   29  C   UNL     1       8.965  30.615  60.483  1.00  0.00     0.014 A 
ENDBRANCH  21  24
ENDBRANCH   1  18
TORSDOF 5
ENDMDL
MODEL 8
REMARK VINA RESULT:      -8.6      6.352      7.997
REMARK  5 active torsions:
REMARK  status: ('A' for Active; 'I' for Inactive)
REMARK    1  A    between atoms: C_4  and  C_5 
REMARK    2  A    between atoms: C_9  and  C_10 
REMARK       I    between atoms: C_10  and  N_11 
REMARK    3  A    between atoms: N_11  and  C_12 
REMARK    4  A    between atoms: C_14  and  C_15 
REMARK       I    between atoms: C_15  and  N_16 
REMARK    5  A    between atoms: N_16  and  C_17 
ROOT
HETATM    1  C   UNL     1       5.161  26.440  52.337  1.00  0.00     0.276 C 
HETATM    2  N   UNL     1       5.573  26.323  51.021  1.00  0.00    -0.322 N 
HETATM    3  O   UNL     1       4.313  27.215  52.766  1.00  0.00    -0.266 OA
HETATM    4  H   UNL     1       6.238  25.567  50.865  1.00  0.00     0.169 HD
ENDROOT
BRANCH   2   5
HETATM    5  C   UNL     1       5.114  27.063  49.916  1.00  0.00     0.036 A 
HETATM    6  C   UNL     1       5.369  28.427  49.757  1.00  0.00     0.046 A 
HETATM    7  C   UNL     1       4.838  29.138  48.672  1.00  0.00     0.034 A 
HETATM    8  C   UNL     1       4.094  28.461  47.702  1.00  0.00     0.017 A 
HETATM    9  C   UNL     1       3.862  27.091  47.834  1.00  0.00     0.003 A 
HETATM   10  C   UNL     1       4.367  26.397  48.939  1.00  0.00     0.029 A 
BRANCH   7  11
HETATM   11  C   UNL     1       5.071  30.603  48.520  1.00  0.00     0.252 C 
HETATM   12  N   UNL     1       5.506  31.264  49.655  1.00  0.00    -0.352 N 
HETATM   13  H   UNL     1       5.540  30.766  50.536  1.00  0.00     0.163 HD
HETATM   14  O   UNL     1       4.857  31.148  47.443  1.00  0.00    -0.268 OA
BRANCH  12  15
HETATM   15  C   UNL     1       5.829  32.656  49.681  1.00  0.00     0.084 A 
HETATM   16  C   UNL     1       4.744  33.684  49.851  1.00  0.00     0.027 A 
HETATM   17  C   UNL     1       5.707  33.425  50.971  1.00  0.00     0.027 A 
ENDBRANCH  12  15
ENDBRANCH   7  11
ENDBRANCH   2   5
BRANCH   1  18
HETATM   18  C   UNL     1       5.832  25.483  53.232  1.00  0.00     0.147 A 
HETATM   19  N   UNL     1       6.055  25.732  54.538  1.00  0.00    -0.169 NA
HETATM   20  N   UNL     1       6.688  24.620  54.968  1.00  0.00    -0.277 N 
HETATM   21  C   UNL     1       6.885  23.667  54.002  1.00  0.00     0.063 A 
HETATM   22  H   UNL     1       6.981  24.580  55.938  1.00  0.00     0.189 HD
HETATM   23  C   UNL     1       6.337  24.214  52.861  1.00  0.00     0.071 A 
BRANCH  21  24
HETATM   24  C   UNL     1       7.564  22.392  54.217  1.00  0.00    -0.008 A 
HETATM   25  C   UNL     1       8.008  21.609  53.145  1.00  0.00     0.014 A 
HETATM   26  C   UNL     1       8.676  20.403  53.376  1.00  0.00     0.001 A 
HETATM   27  C   UNL     1       8.906  19.966  54.679  1.00  0.00     0.000 A 
HETATM   28  C   UNL     1       8.470  20.736  55.755  1.00  0.00     0.001 A 
HETATM   29  C   UNL     1       7.804  21.942  55.524  1.00  0.00     0.014 A 
ENDBRANCH  21  24
ENDBRANCH   1  18
TORSDOF 5
ENDMDL
MODEL 9
REMARK VINA RESULT:      -8.6      8.767     13.456
REMARK  5 active torsions:
REMARK  status: ('A' for Active; 'I' for Inactive)
REMARK    1  A    between atoms: C_4  and  C_5 
REMARK    2  A    between atoms: C_9  and  C_10 
REMARK       I    between atoms: C_10  and  N_11 
REMARK    3  A    between atoms: N_11  and  C_12 
REMARK    4  A    between atoms: C_14  and  C_15 
REMARK       I    between atoms: C_15  and  N_16 
REMARK    5  A    between atoms: N_16  and  C_17 
ROOT
HETATM    1  C   UNL     1       5.531  34.513  67.445  1.00  0.00     0.276 C 
HETATM    2  N   UNL     1       6.552  34.056  68.260  1.00  0.00    -0.322 N 
HETATM    3  O   UNL     1       4.681  35.345  67.744  1.00  0.00    -0.266 OA
HETATM    4  H   UNL     1       7.194  33.416  67.793  1.00  0.00     0.169 HD
ENDROOT
BRANCH   2   5
HETATM    5  C   UNL     1       6.822  34.442  69.585  1.00  0.00     0.036 A 
HETATM    6  C   UNL     1       7.312  35.706  69.922  1.00  0.00     0.046 A 
HETATM    7  C   UNL     1       7.626  36.026  71.250  1.00  0.00     0.034 A 
HETATM    8  C   UNL     1       7.390  35.090  72.260  1.00  0.00     0.017 A 
HETATM    9  C   UNL     1       6.869  33.836  71.937  1.00  0.00     0.003 A 
HETATM   10  C   UNL     1       6.591  33.513  70.604  1.00  0.00     0.029 A 
BRANCH   7  11
HETATM   11  C   UNL     1       8.190  37.359  71.610  1.00  0.00     0.252 C 
HETATM   12  N   UNL     1       9.408  37.341  72.268  1.00  0.00    -0.352 N 
HETATM   13  H   UNL     1       9.796  36.455  72.566  1.00  0.00     0.163 HD
HETATM   14  O   UNL     1       7.567  38.380  71.337  1.00  0.00    -0.268 OA
BRANCH  12  15
HETATM   15  C   UNL     1      10.118  38.523  72.642  1.00  0.00     0.084 A 
HETATM   16  C   UNL     1       9.751  39.265  73.897  1.00  0.00     0.027 A 
HETATM   17  C   UNL     1      11.035  38.493  73.837  1.00  0.00     0.027 A 
ENDBRANCH  12  15
ENDBRANCH   7  11
ENDBRANCH   2   5
BRANCH   1  18
HETATM   18  C   UNL     1       5.563  33.915  66.100  1.00  0.00     0.147 A 
HETATM   19  N   UNL     1       4.471  33.402  65.499  1.00  0.00    -0.169 NA
HETATM   20  N   UNL     1       4.940  32.961  64.312  1.00  0.00    -0.277 N 
HETATM   21  C   UNL     1       6.283  33.165  64.121  1.00  0.00     0.063 A 
HETATM   22  H   UNL     1       4.291  32.508  63.679  1.00  0.00     0.189 HD
HETATM   23  C   UNL     1       6.707  33.782  65.279  1.00  0.00     0.071 A 
BRANCH  21  24
HETATM   24  C   UNL     1       7.024  32.757  62.930  1.00  0.00    -0.008 A 
HETATM   25  C   UNL     1       6.476  32.885  61.647  1.00  0.00     0.014 A 
HETATM   26  C   UNL     1       7.212  32.508  60.521  1.00  0.00     0.001 A 
HETATM   27  C   UNL     1       8.502  32.000  60.663  1.00  0.00     0.000 A 
HETATM   28  C   UNL     1       9.059  31.869  61.932  1.00  0.00     0.001 A 
HETATM   29  C   UNL     1       8.324  32.247  63.058  1.00  0.00     0.014 A 
ENDBRANCH  21  24
ENDBRANCH   1  18
TORSDOF 5
ENDMDL
MODEL 10
REMARK VINA RESULT:      -8.4      5.064      8.176
REMARK  5 active torsions:
REMARK  status: ('A' for Active; 'I' for Inactive)
REMARK    1  A    between atoms: C_4  and  C_5 
REMARK    2  A    between atoms: C_9  and  C_10 
REMARK       I    between atoms: C_10  and  N_11 
REMARK    3  A    between atoms: N_11  and  C_12 
REMARK    4  A    between atoms: C_14  and  C_15 
REMARK       I    between atoms: C_15  and  N_16 
REMARK    5  A    between atoms: N_16  and  C_17 
ROOT
HETATM    1  C   UNL     1       5.090  27.214  54.992  1.00  0.00     0.276 C 
HETATM    2  N   UNL     1       5.041  27.538  53.647  1.00  0.00    -0.322 N 
HETATM    3  O   UNL     1       4.495  27.788  55.898  1.00  0.00    -0.266 OA
HETATM    4  H   UNL     1       5.554  26.890  53.051  1.00  0.00     0.169 HD
ENDROOT
BRANCH   2   5
HETATM    5  C   UNL     1       4.312  28.581  53.048  1.00  0.00     0.036 A 
HETATM    6  C   UNL     1       3.442  28.380  51.973  1.00  0.00     0.046 A 
HETATM    7  C   UNL     1       2.785  29.459  51.367  1.00  0.00     0.034 A 
HETATM    8  C   UNL     1       2.953  30.747  51.882  1.00  0.00     0.017 A 
HETATM    9  C   UNL     1       3.793  30.953  52.977  1.00  0.00     0.003 A 
HETATM   10  C   UNL     1       4.473  29.875  53.554  1.00  0.00     0.029 A 
BRANCH   7  11
HETATM   11  C   UNL     1       1.889  29.255  50.192  1.00  0.00     0.252 C 
HETATM   12  N   UNL     1       2.040  28.054  49.520  1.00  0.00    -0.352 N 
HETATM   13  H   UNL     1       2.799  27.435  49.777  1.00  0.00     0.163 HD
HETATM   14  O   UNL     1       1.098  30.134  49.866  1.00  0.00    -0.268 OA
BRANCH  12  15
HETATM   15  C   UNL     1       1.233  27.667  48.406  1.00  0.00     0.084 A 
HETATM   16  C   UNL     1       1.578  28.136  47.020  1.00  0.00     0.027 A 
HETATM   17  C   UNL     1       1.780  26.698  47.392  1.00  0.00     0.027 A 
ENDBRANCH  12  15
ENDBRANCH   7  11
ENDBRANCH   2   5
BRANCH   1  18
HETATM   18  C   UNL     1       5.933  26.040  55.266  1.00  0.00     0.147 A 
HETATM   19  N   UNL     1       6.722  25.940  56.354  1.00  0.00    -0.169 NA
HETATM   20  N   UNL     1       7.313  24.735  56.208  1.00  0.00    -0.277 N 
HETATM   21  C   UNL     1       6.941  24.053  55.077  1.00  0.00     0.063 A 
HETATM   22  H   UNL     1       7.980  24.440  56.912  1.00  0.00     0.189 HD
HETATM   23  C   UNL     1       6.046  24.891  54.448  1.00  0.00     0.071 A 
BRANCH  21  24
HETATM   24  C   UNL     1       7.458  22.743  54.690  1.00  0.00    -0.008 A 
HETATM   25  C   UNL     1       7.741  22.434  53.354  1.00  0.00     0.014 A 
HETATM   26  C   UNL     1       8.256  21.181  53.009  1.00  0.00     0.001 A 
HETATM   27  C   UNL     1       8.492  20.224  53.994  1.00  0.00     0.000 A 
HETATM   28  C   UNL     1       8.216  20.519  55.327  1.00  0.00     0.001 A 
HETATM   29  C   UNL     1       7.703  21.772  55.671  1.00  0.00     0.014 A 
ENDBRANCH  21  24
ENDBRANCH   1  18
TORSDOF 5
ENDMDL
