MODEL 1
REMARK VINA RESULT:      -9.4      0.000      0.000
REMARK  12 active torsions:
REMARK  status: ('A' for Active; 'I' for Inactive)
REMARK    1  A    between atoms: C_2  and  C_3 
REMARK    2  A    between atoms: C_3  and  N_4 
REMARK    3  A    between atoms: C_3  and  C_25 
REMARK    4  A    between atoms: N_4  and  C_6 
REMARK    5  A    between atoms: N_4  and  C_21 
REMARK    6  A    between atoms: C_6  and  C_7 
REMARK    7  A    between atoms: C_8  and  O_9 
REMARK    8  A    between atoms: C_21  and  C_22 
REMARK    9  A    between atoms: C_22  and  C_23 
REMARK   10  A    between atoms: C_23  and  O_24 
REMARK   11  A    between atoms: N_26  and  C_27 
REMARK   12  A    between atoms: C_27  and  C_28 
ROOT
HETATM    1  N   UNL     1       6.583  28.360  55.368  1.00  0.00    -0.055 N 
HETATM    2  H   UNL     1       5.947  28.470  56.165  1.00  0.00     0.281 HD
ENDROOT
BRANCH   1   3
HETATM    3  C   UNL     1       6.875  26.835  55.443  1.00  0.00     0.263 C 
BRANCH   3   4
HETATM    4  C   UNL     1       6.838  26.235  56.883  1.00  0.00     0.016 C 
HETATM    5  C   UNL     1       8.238  25.763  57.314  1.00  0.00     0.012 C 
HETATM    6  C   UNL     1       5.851  25.097  57.127  1.00  0.00     0.012 C 
ENDBRANCH   3   4
BRANCH   3   7
HETATM    7  C   UNL     1       6.148  26.017  54.417  1.00  0.00     0.168 A 
HETATM    8  N   UNL     1       6.676  25.033  53.609  1.00  0.00    -0.257 N 
HETATM    9  N   UNL     1       5.721  24.576  52.784  1.00  0.00    -0.003 NA
HETATM   10  N   UNL     1       4.625  25.242  53.098  1.00  0.00     0.018 NA
HETATM   11  N   UNL     1       4.872  26.130  54.103  1.00  0.00    -0.145 NA
BRANCH   8  12
HETATM   12  C   UNL     1       8.003  24.444  53.539  1.00  0.00     0.186 C 
BRANCH  12  13
HETATM   13  C   UNL     1       8.025  22.997  53.962  1.00  0.00    -0.039 A 
HETATM   14  C   UNL     1       7.894  22.665  55.320  1.00  0.00     0.009 A 
HETATM   15  C   UNL     1       7.865  21.330  55.725  1.00  0.00     0.001 A 
HETATM   16  C   UNL     1       7.952  20.313  54.778  1.00  0.00     0.000 A 
HETATM   17  C   UNL     1       8.062  20.628  53.426  1.00  0.00     0.001 A 
HETATM   18  C   UNL     1       8.092  21.961  53.016  1.00  0.00     0.009 A 
ENDBRANCH  12  13
ENDBRANCH   8  12
ENDBRANCH   3   7
ENDBRANCH   1   3
BRANCH   1  19
HETATM   19  C   UNL     1       7.664  29.378  55.756  1.00  0.00     0.278 C 
BRANCH  19  20
HETATM   20  C   UNL     1       7.975  29.748  57.173  1.00  0.00     0.021 A 
HETATM   21  C   UNL     1       9.211  29.548  57.759  1.00  0.00     0.170 A 
HETATM   22  N   UNL     1       9.587  29.937  58.987  1.00  0.00    -0.224 NA
HETATM   23  C   UNL     1       8.709  30.646  59.714  1.00  0.00     0.072 A 
HETATM   24  C   UNL     1       7.415  30.961  59.220  1.00  0.00    -0.004 A 
HETATM   25  C   UNL     1       9.086  31.113  60.968  1.00  0.00     0.072 A 
HETATM   26  C   UNL     1       7.068  30.487  57.942  1.00  0.00     0.027 A 
HETATM   27  C   UNL     1       6.529  31.747  59.978  1.00  0.00     0.053 A 
HETATM   28  C   UNL     1       6.961  32.208  61.200  1.00  0.00     0.106 A 
HETATM   29  C   UNL     1       8.203  31.894  61.685  1.00  0.00     0.107 A 
HETATM   30  O   UNL     1       6.259  33.005  62.047  1.00  0.00    -0.323 OA
HETATM   31  O   UNL     1       8.443  32.454  62.900  1.00  0.00    -0.323 OA
HETATM   32  C   UNL     1       7.220  33.193  63.108  1.00  0.00     0.352 A 
BRANCH  21  33
HETATM   33  O   UNL     1      10.220  28.947  57.091  1.00  0.00    -0.344 OA
HETATM   34  H   UNL     1       9.835  28.917  56.190  1.00  0.00     0.219 HD
ENDBRANCH  21  33
ENDBRANCH  19  20
ENDBRANCH   1  19
BRANCH   1  35
HETATM   35  C   UNL     1       5.703  28.745  54.184  1.00  0.00     0.238 C 
BRANCH  35  36
HETATM   36  C   UNL     1       4.529  29.633  54.604  1.00  0.00     0.054 C 
BRANCH  36  37
HETATM   37  C   UNL     1       4.120  29.374  56.050  1.00  0.00     0.165 C 
BRANCH  37  38
HETATM   38  O   UNL     1       3.748  28.014  56.192  1.00  0.00    -0.401 OA
HETATM   39  H   UNL     1       4.520  27.534  56.552  1.00  0.00     0.209 HD
ENDBRANCH  37  38
ENDBRANCH  36  37
ENDBRANCH  35  36
ENDBRANCH   1  35
TORSDOF 12
ENDMDL
MODEL 2
REMARK VINA RESULT:      -9.3      1.484      2.082
REMARK  12 active torsions:
REMARK  status: ('A' for Active; 'I' for Inactive)
REMARK    1  A    between atoms: C_2  and  C_3 
REMARK    2  A    between atoms: C_3  and  N_4 
REMARK    3  A    between atoms: C_3  and  C_25 
REMARK    4  A    between atoms: N_4  and  C_6 
REMARK    5  A    between atoms: N_4  and  C_21 
REMARK    6  A    between atoms: C_6  and  C_7 
REMARK    7  A    between atoms: C_8  and  O_9 
REMARK    8  A    between atoms: C_21  and  C_22 
REMARK    9  A    between atoms: C_22  and  C_23 
REMARK   10  A    between atoms: C_23  and  O_24 
REMARK   11  A    between atoms: N_26  and  C_27 
REMARK   12  A    between atoms: C_27  and  C_28 
ROOT
HETATM    1  N   UNL     1       7.147  27.870  54.848  1.00  0.00    -0.055 N 
HETATM    2  H   UNL     1       6.279  28.315  55.166  1.00  0.00     0.281 HD
ENDROOT
BRANCH   1   3
HETATM    3  C   UNL     1       6.890  26.400  55.282  1.00  0.00     0.263 C 
BRANCH   3   4
HETATM    4  C   UNL     1       6.391  26.233  56.751  1.00  0.00     0.016 C 
HETATM    5  C   UNL     1       7.555  25.853  57.684  1.00  0.00     0.012 C 
HETATM    6  C   UNL     1       5.251  25.244  56.980  1.00  0.00     0.012 C 
ENDBRANCH   3   4
BRANCH   3   7
HETATM    7  C   UNL     1       6.131  25.584  54.278  1.00  0.00     0.168 A 
HETATM    8  N   UNL     1       6.638  24.617  53.437  1.00  0.00    -0.257 N 
HETATM    9  N   UNL     1       5.654  24.157  52.647  1.00  0.00    -0.003 NA
HETATM   10  N   UNL     1       4.564  24.805  53.014  1.00  0.00     0.018 NA
HETATM   11  N   UNL     1       4.842  25.685  54.019  1.00  0.00    -0.145 NA
BRANCH   8  12
HETATM   12  C   UNL     1       7.967  24.046  53.304  1.00  0.00     0.186 C 
BRANCH  12  13
HETATM   13  C   UNL     1       8.110  22.721  54.010  1.00  0.00    -0.039 A 
HETATM   14  C   UNL     1       8.027  22.664  55.411  1.00  0.00     0.009 A 
HETATM   15  C   UNL     1       8.109  21.442  56.078  1.00  0.00     0.001 A 
HETATM   16  C   UNL     1       8.262  20.262  55.354  1.00  0.00     0.000 A 
HETATM   17  C   UNL     1       8.325  20.302  53.963  1.00  0.00     0.001 A 
HETATM   18  C   UNL     1       8.243  21.522  53.291  1.00  0.00     0.009 A 
ENDBRANCH  12  13
ENDBRANCH   8  12
ENDBRANCH   3   7
ENDBRANCH   1   3
BRANCH   1  19
HETATM   19  C   UNL     1       8.170  28.735  55.598  1.00  0.00     0.278 C 
BRANCH  19  20
HETATM   20  C   UNL     1       7.800  29.680  56.697  1.00  0.00     0.021 A 
HETATM   21  C   UNL     1       6.649  30.447  56.689  1.00  0.00     0.170 A 
HETATM   22  N   UNL     1       6.210  31.242  57.677  1.00  0.00    -0.224 NA
HETATM   23  C   UNL     1       6.912  31.263  58.821  1.00  0.00     0.072 A 
HETATM   24  C   UNL     1       8.093  30.492  58.984  1.00  0.00    -0.004 A 
HETATM   25  C   UNL     1       6.454  32.031  59.885  1.00  0.00     0.072 A 
HETATM   26  C   UNL     1       8.524  29.713  57.896  1.00  0.00     0.027 A 
HETATM   27  C   UNL     1       8.786  30.491  60.208  1.00  0.00     0.053 A 
HETATM   28  C   UNL     1       8.276  31.247  61.239  1.00  0.00     0.106 A 
HETATM   29  C   UNL     1       7.143  32.002  61.079  1.00  0.00     0.107 A 
HETATM   30  O   UNL     1       8.788  31.337  62.494  1.00  0.00    -0.323 OA
HETATM   31  O   UNL     1       6.797  32.664  62.214  1.00  0.00    -0.323 OA
HETATM   32  C   UNL     1       7.822  32.207  63.122  1.00  0.00     0.352 A 
BRANCH  21  33
HETATM   33  O   UNL     1       5.796  30.427  55.642  1.00  0.00    -0.344 OA
HETATM   34  H   UNL     1       5.544  29.480  55.645  1.00  0.00     0.219 HD
ENDBRANCH  21  33
ENDBRANCH  19  20
ENDBRANCH   1  19
BRANCH   1  35
HETATM   35  C   UNL     1       7.090  28.069  53.337  1.00  0.00     0.238 C 
BRANCH  35  36
HETATM   36  C   UNL     1       5.777  28.715  52.891  1.00  0.00     0.054 C 
BRANCH  36  37
HETATM   37  C   UNL     1       5.465  28.400  51.433  1.00  0.00     0.165 C 
BRANCH  37  38
HETATM   38  O   UNL     1       5.527  26.999  51.235  1.00  0.00    -0.401 OA
HETATM   39  H   UNL     1       4.622  26.646  51.342  1.00  0.00     0.209 HD
ENDBRANCH  37  38
ENDBRANCH  36  37
ENDBRANCH  35  36
ENDBRANCH   1  35
TORSDOF 12
ENDMDL
MODEL 3
REMARK VINA RESULT:      -9.2      1.052      1.477
REMARK  12 active torsions:
REMARK  status: ('A' for Active; 'I' for Inactive)
REMARK    1  A    between atoms: C_2  and  C_3 
REMARK    2  A    between atoms: C_3  and  N_4 
REMARK    3  A    between atoms: C_3  and  C_25 
REMARK    4  A    between atoms: N_4  and  C_6 
REMARK    5  A    between atoms: N_4  and  C_21 
REMARK    6  A    between atoms: C_6  and  C_7 
REMARK    7  A    between atoms: C_8  and  O_9 
REMARK    8  A    between atoms: C_21  and  C_22 
REMARK    9  A    between atoms: C_22  and  C_23 
REMARK   10  A    between atoms: C_23  and  O_24 
REMARK   11  A    between atoms: N_26  and  C_27 
REMARK   12  A    between atoms: C_27  and  C_28 
ROOT
HETATM    1  N   UNL     1       6.994  27.798  54.995  1.00  0.00    -0.055 N 
HETATM    2  H   UNL     1       6.356  27.993  55.774  1.00  0.00     0.281 HD
ENDROOT
BRANCH   1   3
HETATM    3  C   UNL     1       7.099  26.250  55.092  1.00  0.00     0.263 C 
BRANCH   3   4
HETATM    4  C   UNL     1       7.013  25.682  56.543  1.00  0.00     0.016 C 
HETATM    5  C   UNL     1       5.959  26.442  57.366  1.00  0.00     0.012 C 
HETATM    6  C   UNL     1       8.312  25.646  57.343  1.00  0.00     0.012 C 
ENDBRANCH   3   4
BRANCH   3   7
HETATM    7  C   UNL     1       6.259  25.511  54.092  1.00  0.00     0.168 A 
HETATM    8  N   UNL     1       6.694  24.611  53.143  1.00  0.00    -0.257 N 
HETATM    9  N   UNL     1       5.649  24.211  52.401  1.00  0.00    -0.003 NA
HETATM   10  N   UNL     1       4.594  24.828  52.901  1.00  0.00     0.018 NA
HETATM   11  N   UNL     1       4.954  25.629  53.944  1.00  0.00    -0.145 NA
BRANCH   8  12
HETATM   12  C   UNL     1       8.006  24.054  52.863  1.00  0.00     0.186 C 
BRANCH  12  13
HETATM   13  C   UNL     1       8.259  22.757  53.590  1.00  0.00    -0.039 A 
HETATM   14  C   UNL     1       8.073  21.535  52.922  1.00  0.00     0.009 A 
HETATM   15  C   UNL     1       8.348  20.327  53.564  1.00  0.00     0.001 A 
HETATM   16  C   UNL     1       8.823  20.326  54.873  1.00  0.00     0.000 A 
HETATM   17  C   UNL     1       9.030  21.531  55.540  1.00  0.00     0.001 A 
HETATM   18  C   UNL     1       8.757  22.742  54.903  1.00  0.00     0.009 A 
ENDBRANCH  12  13
ENDBRANCH   8  12
ENDBRANCH   3   7
ENDBRANCH   1   3
BRANCH   1  19
HETATM   19  C   UNL     1       8.179  28.684  55.403  1.00  0.00     0.278 C 
BRANCH  19  20
HETATM   20  C   UNL     1       8.258  29.399  56.715  1.00  0.00     0.021 A 
HETATM   21  C   UNL     1       9.445  29.633  57.385  1.00  0.00     0.170 A 
HETATM   22  N   UNL     1       9.600  30.344  58.513  1.00  0.00    -0.224 NA
HETATM   23  C   UNL     1       8.516  30.947  59.026  1.00  0.00     0.072 A 
HETATM   24  C   UNL     1       7.239  30.826  58.418  1.00  0.00    -0.004 A 
HETATM   25  C   UNL     1       8.652  31.738  60.162  1.00  0.00     0.072 A 
HETATM   26  C   UNL     1       7.135  30.032  57.262  1.00  0.00     0.027 A 
HETATM   27  C   UNL     1       6.126  31.506  58.944  1.00  0.00     0.053 A 
HETATM   28  C   UNL     1       6.319  32.298  60.053  1.00  0.00     0.106 A 
HETATM   29  C   UNL     1       7.548  32.406  60.649  1.00  0.00     0.107 A 
HETATM   30  O   UNL     1       5.374  33.052  60.672  1.00  0.00    -0.323 OA
HETATM   31  O   UNL     1       7.534  33.242  61.721  1.00  0.00    -0.323 OA
HETATM   32  C   UNL     1       6.159  33.682  61.707  1.00  0.00     0.352 A 
BRANCH  21  33
HETATM   33  O   UNL     1      10.625  29.177  56.911  1.00  0.00    -0.344 OA
HETATM   34  H   UNL     1      11.244  29.692  57.470  1.00  0.00     0.219 HD
ENDBRANCH  21  33
ENDBRANCH  19  20
ENDBRANCH   1  19
BRANCH   1  35
HETATM   35  C   UNL     1       6.198  28.271  53.784  1.00  0.00     0.238 C 
BRANCH  35  36
HETATM   36  C   UNL     1       4.977  29.102  54.187  1.00  0.00     0.054 C 
BRANCH  36  37
HETATM   37  C   UNL     1       3.867  29.008  53.147  1.00  0.00     0.165 C 
BRANCH  37  38
HETATM   38  O   UNL     1       3.251  27.736  53.237  1.00  0.00    -0.401 OA
HETATM   39  H   UNL     1       2.782  27.576  52.395  1.00  0.00     0.209 HD
ENDBRANCH  37  38
ENDBRANCH  36  37
ENDBRANCH  35  36
ENDBRANCH   1  35
TORSDOF 12
ENDMDL
MODEL 4
REMARK VINA RESULT:      -9.2      2.307      3.934
REMARK  12 active torsions:
REMARK  status: ('A' for Active; 'I' for Inactive)
REMARK    1  A    between atoms: C_2  and  C_3 
REMARK    2  A    between atoms: C_3  and  N_4 
REMARK    3  A    between atoms: C_3  and  C_25 
REMARK    4  A    between atoms: N_4  and  C_6 
REMARK    5  A    between atoms: N_4  and  C_21 
REMARK    6  A    between atoms: C_6  and  C_7 
REMARK    7  A    between atoms: C_8  and  O_9 
REMARK    8  A    between atoms: C_21  and  C_22 
REMARK    9  A    between atoms: C_22  and  C_23 
REMARK   10  A    between atoms: C_23  and  O_24 
REMARK   11  A    between atoms: N_26  and  C_27 
REMARK   12  A    between atoms: C_27  and  C_28 
ROOT
HETATM    1  N   UNL     1       8.051  29.325  56.953  1.00  0.00    -0.055 N 
HETATM    2  H   UNL     1       7.451  30.143  56.798  1.00  0.00     0.281 HD
ENDROOT
BRANCH   1   3
HETATM    3  C   UNL     1       7.204  28.216  56.268  1.00  0.00     0.263 C 
BRANCH   3   4
HETATM    4  C   UNL     1       7.025  26.917  57.114  1.00  0.00     0.016 C 
HETATM    5  C   UNL     1       8.314  26.076  57.103  1.00  0.00     0.012 C 
HETATM    6  C   UNL     1       5.857  26.010  56.740  1.00  0.00     0.012 C 
ENDBRANCH   3   4
BRANCH   3   7
HETATM    7  C   UNL     1       5.941  28.711  55.628  1.00  0.00     0.168 A 
HETATM    8  N   UNL     1       5.638  28.722  54.283  1.00  0.00    -0.257 N 
HETATM    9  N   UNL     1       4.438  29.297  54.104  1.00  0.00    -0.003 NA
HETATM   10  N   UNL     1       4.002  29.605  55.311  1.00  0.00     0.018 NA
HETATM   11  N   UNL     1       4.916  29.248  56.259  1.00  0.00    -0.145 NA
BRANCH   8  12
HETATM   12  C   UNL     1       6.354  28.220  53.123  1.00  0.00     0.186 C 
BRANCH  12  13
HETATM   13  C   UNL     1       6.477  26.717  53.114  1.00  0.00    -0.039 A 
HETATM   14  C   UNL     1       7.738  26.119  53.278  1.00  0.00     0.009 A 
HETATM   15  C   UNL     1       7.864  24.731  53.320  1.00  0.00     0.001 A 
HETATM   16  C   UNL     1       6.733  23.924  53.212  1.00  0.00     0.000 A 
HETATM   17  C   UNL     1       5.475  24.505  53.069  1.00  0.00     0.001 A 
HETATM   18  C   UNL     1       5.344  25.894  53.026  1.00  0.00     0.009 A 
ENDBRANCH  12  13
ENDBRANCH   8  12
ENDBRANCH   3   7
ENDBRANCH   1   3
BRANCH   1  19
HETATM   19  C   UNL     1       8.171  29.378  58.482  1.00  0.00     0.278 C 
BRANCH  19  20
HETATM   20  C   UNL     1       7.750  30.559  59.300  1.00  0.00     0.021 A 
HETATM   21  C   UNL     1       6.806  31.479  58.882  1.00  0.00     0.170 A 
HETATM   22  N   UNL     1       6.315  32.503  59.597  1.00  0.00    -0.224 NA
HETATM   23  C   UNL     1       6.723  32.629  60.870  1.00  0.00     0.072 A 
HETATM   24  C   UNL     1       7.660  31.730  61.444  1.00  0.00    -0.004 A 
HETATM   25  C   UNL     1       6.192  33.645  61.656  1.00  0.00     0.072 A 
HETATM   26  C   UNL     1       8.169  30.703  60.629  1.00  0.00     0.027 A 
HETATM   27  C   UNL     1       8.037  31.851  62.794  1.00  0.00     0.053 A 
HETATM   28  C   UNL     1       7.460  32.856  63.536  1.00  0.00     0.106 A 
HETATM   29  C   UNL     1       6.567  33.733  62.980  1.00  0.00     0.107 A 
HETATM   30  O   UNL     1       7.676  33.099  64.855  1.00  0.00    -0.323 OA
HETATM   31  O   UNL     1       6.104  34.642  63.879  1.00  0.00    -0.323 OA
HETATM   32  C   UNL     1       6.781  34.211  65.079  1.00  0.00     0.352 A 
BRANCH  21  33
HETATM   33  O   UNL     1       6.231  31.395  57.662  1.00  0.00    -0.344 OA
HETATM   34  H   UNL     1       5.645  30.623  57.802  1.00  0.00     0.219 HD
ENDBRANCH  21  33
ENDBRANCH  19  20
ENDBRANCH   1  19
BRANCH   1  35
HETATM   35  C   UNL     1       9.312  29.685  56.175  1.00  0.00     0.238 C 
BRANCH  35  36
HETATM   36  C   UNL     1      10.574  29.127  56.835  1.00  0.00     0.054 C 
BRANCH  36  37
HETATM   37  C   UNL     1      11.443  30.239  57.411  1.00  0.00     0.165 C 
BRANCH  37  38
HETATM   38  O   UNL     1      10.656  31.405  57.582  1.00  0.00    -0.401 OA
HETATM   39  H   UNL     1      10.691  31.647  58.528  1.00  0.00     0.209 HD
ENDBRANCH  37  38
ENDBRANCH  36  37
ENDBRANCH  35  36
ENDBRANCH   1  35
TORSDOF 12
ENDMDL
MODEL 5
REMARK VINA RESULT:      -8.8      1.876      2.968
REMARK  12 active torsions:
REMARK  status: ('A' for Active; 'I' for Inactive)
REMARK    1  A    between atoms: C_2  and  C_3 
REMARK    2  A    between atoms: C_3  and  N_4 
REMARK    3  A    between atoms: C_3  and  C_25 
REMARK    4  A    between atoms: N_4  and  C_6 
REMARK    5  A    between atoms: N_4  and  C_21 
REMARK    6  A    between atoms: C_6  and  C_7 
REMARK    7  A    between atoms: C_8  and  O_9 
REMARK    8  A    between atoms: C_21  and  C_22 
REMARK    9  A    between atoms: C_22  and  C_23 
REMARK   10  A    between atoms: C_23  and  O_24 
REMARK   11  A    between atoms: N_26  and  C_27 
REMARK   12  A    between atoms: C_27  and  C_28 
ROOT
HETATM    1  N   UNL     1       5.669  29.558  56.826  1.00  0.00    -0.055 N 
HETATM    2  H   UNL     1       5.452  29.125  57.730  1.00  0.00     0.281 HD
ENDROOT
BRANCH   1   3
HETATM    3  C   UNL     1       5.992  28.298  55.975  1.00  0.00     0.263 C 
BRANCH   3   4
HETATM    4  C   UNL     1       6.581  28.599  54.562  1.00  0.00     0.016 C 
HETATM    5  C   UNL     1       5.642  28.084  53.458  1.00  0.00     0.012 C 
HETATM    6  C   UNL     1       7.986  28.077  54.279  1.00  0.00     0.012 C 
ENDBRANCH   3   4
BRANCH   3   7
HETATM    7  C   UNL     1       6.713  27.217  56.724  1.00  0.00     0.168 A 
HETATM    8  N   UNL     1       6.576  25.856  56.559  1.00  0.00    -0.257 N 
HETATM    9  N   UNL     1       7.347  25.220  57.455  1.00  0.00    -0.003 NA
HETATM   10  N   UNL     1       7.966  26.169  58.135  1.00  0.00     0.018 NA
HETATM   11  N   UNL     1       7.587  27.402  57.694  1.00  0.00    -0.145 NA
BRANCH   8  12
HETATM   12  C   UNL     1       5.801  25.065  55.618  1.00  0.00     0.186 C 
BRANCH  12  13
HETATM   13  C   UNL     1       6.662  24.217  54.716  1.00  0.00    -0.039 A 
HETATM   14  C   UNL     1       6.972  24.666  53.422  1.00  0.00     0.009 A 
HETATM   15  C   UNL     1       7.805  23.917  52.592  1.00  0.00     0.001 A 
HETATM   16  C   UNL     1       8.350  22.719  53.048  1.00  0.00     0.000 A 
HETATM   17  C   UNL     1       8.067  22.272  54.337  1.00  0.00     0.001 A 
HETATM   18  C   UNL     1       7.234  23.018  55.171  1.00  0.00     0.009 A 
ENDBRANCH  12  13
ENDBRANCH   8  12
ENDBRANCH   3   7
ENDBRANCH   1   3
BRANCH   1  19
HETATM   19  C   UNL     1       6.791  30.512  57.258  1.00  0.00     0.278 C 
BRANCH  19  20
HETATM   20  C   UNL     1       7.112  30.811  58.689  1.00  0.00     0.021 A 
HETATM   21  C   UNL     1       8.269  30.386  59.316  1.00  0.00     0.170 A 
HETATM   22  N   UNL     1       8.663  30.693  60.562  1.00  0.00    -0.224 NA
HETATM   23  C   UNL     1       7.901  31.545  61.266  1.00  0.00     0.072 A 
HETATM   24  C   UNL     1       6.706  32.092  60.731  1.00  0.00    -0.004 A 
HETATM   25  C   UNL     1       8.310  31.929  62.538  1.00  0.00     0.072 A 
HETATM   26  C   UNL     1       6.325  31.697  59.436  1.00  0.00     0.027 A 
HETATM   27  C   UNL     1       5.949  33.021  61.468  1.00  0.00     0.053 A 
HETATM   28  C   UNL     1       6.411  33.389  62.710  1.00  0.00     0.106 A 
HETATM   29  C   UNL     1       7.558  32.852  63.234  1.00  0.00     0.107 A 
HETATM   30  O   UNL     1       5.835  34.295  63.542  1.00  0.00    -0.323 OA
HETATM   31  O   UNL     1       7.851  33.351  64.464  1.00  0.00    -0.323 OA
HETATM   32  C   UNL     1       6.775  34.298  64.639  1.00  0.00     0.352 A 
BRANCH  21  33
HETATM   33  O   UNL     1       9.176  29.617  58.676  1.00  0.00    -0.344 OA
HETATM   34  H   UNL     1       9.821  29.476  59.400  1.00  0.00     0.219 HD
ENDBRANCH  21  33
ENDBRANCH  19  20
ENDBRANCH   1  19
BRANCH   1  35
HETATM   35  C   UNL     1       4.347  30.217  56.446  1.00  0.00     0.238 C 
BRANCH  35  36
HETATM   36  C   UNL     1       4.555  31.555  55.733  1.00  0.00     0.054 C 
BRANCH  36  37
HETATM   37  C   UNL     1       4.007  31.522  54.311  1.00  0.00     0.165 C 
BRANCH  37  38
HETATM   38  O   UNL     1       3.061  30.474  54.199  1.00  0.00    -0.401 OA
HETATM   39  H   UNL     1       2.389  30.608  54.897  1.00  0.00     0.209 HD
ENDBRANCH  37  38
ENDBRANCH  36  37
ENDBRANCH  35  36
ENDBRANCH   1  35
TORSDOF 12
ENDMDL
MODEL 6
REMARK VINA RESULT:      -8.8      2.335      3.751
REMARK  12 active torsions:
REMARK  status: ('A' for Active; 'I' for Inactive)
REMARK    1  A    between atoms: C_2  and  C_3 
REMARK    2  A    between atoms: C_3  and  N_4 
REMARK    3  A    between atoms: C_3  and  C_25 
REMARK    4  A    between atoms: N_4  and  C_6 
REMARK    5  A    between atoms: N_4  and  C_21 
REMARK    6  A    between atoms: C_6  and  C_7 
REMARK    7  A    between atoms: C_8  and  O_9 
REMARK    8  A    between atoms: C_21  and  C_22 
REMARK    9  A    between atoms: C_22  and  C_23 
REMARK   10  A    between atoms: C_23  and  O_24 
REMARK   11  A    between atoms: N_26  and  C_27 
REMARK   12  A    between atoms: C_27  and  C_28 
ROOT
HETATM    1  N   UNL     1       7.065  28.346  55.936  1.00  0.00    -0.055 N 
HETATM    2  H   UNL     1       6.617  28.592  55.046  1.00  0.00     0.281 HD
ENDROOT
BRANCH   1   3
HETATM    3  C   UNL     1       7.202  26.807  55.772  1.00  0.00     0.263 C 
BRANCH   3   4
HETATM    4  C   UNL     1       7.092  25.999  57.102  1.00  0.00     0.016 C 
HETATM    5  C   UNL     1       8.393  25.226  57.381  1.00  0.00     0.012 C 
HETATM    6  C   UNL     1       5.922  25.026  57.221  1.00  0.00     0.012 C 
ENDBRANCH   3   4
BRANCH   3   7
HETATM    7  C   UNL     1       6.405  26.234  54.638  1.00  0.00     0.168 A 
HETATM    8  N   UNL     1       6.832  25.322  53.697  1.00  0.00    -0.257 N 
HETATM    9  N   UNL     1       5.846  25.102  52.813  1.00  0.00    -0.003 NA
HETATM   10  N   UNL     1       4.828  25.839  53.218  1.00  0.00     0.018 NA
HETATM   11  N   UNL     1       5.157  26.539  54.341  1.00  0.00    -0.145 NA
BRANCH   8  12
HETATM   12  C   UNL     1       8.083  24.599  53.545  1.00  0.00     0.186 C 
BRANCH  12  13
HETATM   13  C   UNL     1       7.955  23.132  53.868  1.00  0.00    -0.039 A 
HETATM   14  C   UNL     1       8.086  22.177  52.846  1.00  0.00     0.009 A 
HETATM   15  C   UNL     1       8.018  20.814  53.135  1.00  0.00     0.001 A 
HETATM   16  C   UNL     1       7.831  20.389  54.448  1.00  0.00     0.000 A 
HETATM   17  C   UNL     1       7.720  21.324  55.474  1.00  0.00     0.001 A 
HETATM   18  C   UNL     1       7.788  22.689  55.190  1.00  0.00     0.009 A 
ENDBRANCH  12  13
ENDBRANCH   8  12
ENDBRANCH   3   7
ENDBRANCH   1   3
BRANCH   1  19
HETATM   19  C   UNL     1       6.038  28.936  56.912  1.00  0.00     0.278 C 
BRANCH  19  20
HETATM   20  C   UNL     1       5.691  30.391  56.962  1.00  0.00     0.021 A 
HETATM   21  C   UNL     1       5.260  31.110  55.862  1.00  0.00     0.170 A 
HETATM   22  N   UNL     1       4.845  32.387  55.853  1.00  0.00    -0.224 NA
HETATM   23  C   UNL     1       4.777  33.030  57.029  1.00  0.00     0.072 A 
HETATM   24  C   UNL     1       5.150  32.400  58.245  1.00  0.00    -0.004 A 
HETATM   25  C   UNL     1       4.297  34.335  57.062  1.00  0.00     0.072 A 
HETATM   26  C   UNL     1       5.617  31.075  58.182  1.00  0.00     0.027 A 
HETATM   27  C   UNL     1       5.024  33.076  59.472  1.00  0.00     0.053 A 
HETATM   28  C   UNL     1       4.518  34.356  59.454  1.00  0.00     0.106 A 
HETATM   29  C   UNL     1       4.170  34.971  58.280  1.00  0.00     0.107 A 
HETATM   30  O   UNL     1       4.293  35.142  60.539  1.00  0.00    -0.323 OA
HETATM   31  O   UNL     1       3.682  36.224  58.475  1.00  0.00    -0.323 OA
HETATM   32  C   UNL     1       3.724  36.314  59.915  1.00  0.00     0.352 A 
BRANCH  21  33
HETATM   33  O   UNL     1       5.172  30.544  54.638  1.00  0.00    -0.344 OA
HETATM   34  H   UNL     1       4.971  31.335  54.098  1.00  0.00     0.219 HD
ENDBRANCH  21  33
ENDBRANCH  19  20
ENDBRANCH   1  19
BRANCH   1  35
HETATM   35  C   UNL     1       8.399  29.080  55.852  1.00  0.00     0.238 C 
BRANCH  35  36
HETATM   36  C   UNL     1       9.234  28.902  57.121  1.00  0.00     0.054 C 
BRANCH  36  37
HETATM   37  C   UNL     1      10.543  29.681  57.044  1.00  0.00     0.165 C 
BRANCH  37  38
HETATM   38  O   UNL     1      10.604  30.369  55.808  1.00  0.00    -0.401 OA
HETATM   39  H   UNL     1      10.293  31.282  55.963  1.00  0.00     0.209 HD
ENDBRANCH  37  38
ENDBRANCH  36  37
ENDBRANCH  35  36
ENDBRANCH   1  35
TORSDOF 12
ENDMDL
MODEL 7
REMARK VINA RESULT:      -8.7      2.077      2.937
REMARK  12 active torsions:
REMARK  status: ('A' for Active; 'I' for Inactive)
REMARK    1  A    between atoms: C_2  and  C_3 
REMARK    2  A    between atoms: C_3  and  N_4 
REMARK    3  A    between atoms: C_3  and  C_25 
REMARK    4  A    between atoms: N_4  and  C_6 
REMARK    5  A    between atoms: N_4  and  C_21 
REMARK    6  A    between atoms: C_6  and  C_7 
REMARK    7  A    between atoms: C_8  and  O_9 
REMARK    8  A    between atoms: C_21  and  C_22 
REMARK    9  A    between atoms: C_22  and  C_23 
REMARK   10  A    between atoms: C_23  and  O_24 
REMARK   11  A    between atoms: N_26  and  C_27 
REMARK   12  A    between atoms: C_27  and  C_28 
ROOT
HETATM    1  N   UNL     1       6.374  28.200  54.981  1.00  0.00    -0.055 N 
HETATM    2  H   UNL     1       5.362  28.278  55.125  1.00  0.00     0.281 HD
ENDROOT
BRANCH   1   3
HETATM    3  C   UNL     1       6.589  26.688  55.269  1.00  0.00     0.263 C 
BRANCH   3   4
HETATM    4  C   UNL     1       6.343  26.267  56.751  1.00  0.00     0.016 C 
HETATM    5  C   UNL     1       7.646  25.773  57.403  1.00  0.00     0.012 C 
HETATM    6  C   UNL     1       5.258  25.223  56.997  1.00  0.00     0.012 C 
ENDBRANCH   3   4
BRANCH   3   7
HETATM    7  C   UNL     1       5.964  25.773  54.258  1.00  0.00     0.168 A 
HETATM    8  N   UNL     1       6.582  24.758  53.560  1.00  0.00    -0.257 N 
HETATM    9  N   UNL     1       5.703  24.207  52.707  1.00  0.00    -0.003 NA
HETATM   10  N   UNL     1       4.565  24.849  52.898  1.00  0.00     0.018 NA
HETATM   11  N   UNL     1       4.710  25.814  53.852  1.00  0.00    -0.145 NA
BRANCH   8  12
HETATM   12  C   UNL     1       7.930  24.219  53.621  1.00  0.00     0.186 C 
BRANCH  12  13
HETATM   13  C   UNL     1       7.971  22.800  54.129  1.00  0.00    -0.039 A 
HETATM   14  C   UNL     1       8.288  21.752  53.249  1.00  0.00     0.009 A 
HETATM   15  C   UNL     1       8.377  20.439  53.712  1.00  0.00     0.001 A 
HETATM   16  C   UNL     1       8.164  20.159  55.060  1.00  0.00     0.000 A 
HETATM   17  C   UNL     1       7.868  21.191  55.947  1.00  0.00     0.001 A 
HETATM   18  C   UNL     1       7.778  22.506  55.489  1.00  0.00     0.009 A 
ENDBRANCH  12  13
ENDBRANCH   8  12
ENDBRANCH   3   7
ENDBRANCH   1   3
BRANCH   1  19
HETATM   19  C   UNL     1       6.860  29.259  55.980  1.00  0.00     0.278 C 
BRANCH  19  20
HETATM   20  C   UNL     1       5.938  30.041  56.863  1.00  0.00     0.021 A 
HETATM   21  C   UNL     1       4.587  29.771  56.985  1.00  0.00     0.170 A 
HETATM   22  N   UNL     1       3.724  30.368  57.822  1.00  0.00    -0.224 NA
HETATM   23  C   UNL     1       4.213  31.279  58.678  1.00  0.00     0.072 A 
HETATM   24  C   UNL     1       5.590  31.625  58.692  1.00  0.00    -0.004 A 
HETATM   25  C   UNL     1       3.357  31.875  59.597  1.00  0.00     0.072 A 
HETATM   26  C   UNL     1       6.434  30.995  57.761  1.00  0.00     0.027 A 
HETATM   27  C   UNL     1       6.089  32.546  59.631  1.00  0.00     0.053 A 
HETATM   28  C   UNL     1       5.205  33.086  60.536  1.00  0.00     0.106 A 
HETATM   29  C   UNL     1       3.874  32.764  60.516  1.00  0.00     0.107 A 
HETATM   30  O   UNL     1       5.514  33.958  61.532  1.00  0.00    -0.323 OA
HETATM   31  O   UNL     1       3.172  33.393  61.496  1.00  0.00    -0.323 OA
HETATM   32  C   UNL     1       4.226  34.119  62.165  1.00  0.00     0.352 A 
BRANCH  21  33
HETATM   33  O   UNL     1       3.994  28.797  56.261  1.00  0.00    -0.344 OA
HETATM   34  H   UNL     1       4.271  29.062  55.359  1.00  0.00     0.219 HD
ENDBRANCH  21  33
ENDBRANCH  19  20
ENDBRANCH   1  19
BRANCH   1  35
HETATM   35  C   UNL     1       6.530  28.559  53.507  1.00  0.00     0.238 C 
BRANCH  35  36
HETATM   36  C   UNL     1       5.204  28.986  52.875  1.00  0.00     0.054 C 
BRANCH  36  37
HETATM   37  C   UNL     1       5.069  28.466  51.449  1.00  0.00     0.165 C 
BRANCH  37  38
HETATM   38  O   UNL     1       4.008  27.529  51.392  1.00  0.00    -0.401 OA
HETATM   39  H   UNL     1       3.368  27.766  52.091  1.00  0.00     0.209 HD
ENDBRANCH  37  38
ENDBRANCH  36  37
ENDBRANCH  35  36
ENDBRANCH   1  35
TORSDOF 12
ENDMDL
MODEL 8
REMARK VINA RESULT:      -8.6      3.196      5.011
REMARK  12 active torsions:
REMARK  status: ('A' for Active; 'I' for Inactive)
REMARK    1  A    between atoms: C_2  and  C_3 
REMARK    2  A    between atoms: C_3  and  N_4 
REMARK    3  A    between atoms: C_3  and  C_25 
REMARK    4  A    between atoms: N_4  and  C_6 
REMARK    5  A    between atoms: N_4  and  C_21 
REMARK    6  A    between atoms: C_6  and  C_7 
REMARK    7  A    between atoms: C_8  and  O_9 
REMARK    8  A    between atoms: C_21  and  C_22 
REMARK    9  A    between atoms: C_22  and  C_23 
REMARK   10  A    between atoms: C_23  and  O_24 
REMARK   11  A    between atoms: N_26  and  C_27 
REMARK   12  A    between atoms: C_27  and  C_28 
ROOT
HETATM    1  N   UNL     1       7.229  27.081  54.634  1.00  0.00    -0.055 N 
HETATM    2  H   UNL     1       8.050  26.467  54.602  1.00  0.00     0.281 HD
ENDROOT
BRANCH   1   3
HETATM    3  C   UNL     1       6.549  26.721  53.284  1.00  0.00     0.263 C 
BRANCH   3   4
HETATM    4  C   UNL     1       6.443  25.191  52.996  1.00  0.00     0.016 C 
HETATM    5  C   UNL     1       7.535  24.744  52.009  1.00  0.00     0.012 C 
HETATM    6  C   UNL     1       5.098  24.680  52.487  1.00  0.00     0.012 C 
ENDBRANCH   3   4
BRANCH   3   7
HETATM    7  C   UNL     1       5.290  27.487  53.004  1.00  0.00     0.168 A 
HETATM    8  N   UNL     1       4.923  28.080  51.815  1.00  0.00    -0.257 N 
HETATM    9  N   UNL     1       3.755  28.720  51.980  1.00  0.00    -0.003 NA
HETATM   10  N   UNL     1       3.399  28.502  53.233  1.00  0.00     0.018 NA
HETATM   11  N   UNL     1       4.333  27.743  53.874  1.00  0.00    -0.145 NA
BRANCH   8  12
HETATM   12  C   UNL     1       5.549  28.093  50.503  1.00  0.00     0.186 C 
BRANCH  12  13
HETATM   13  C   UNL     1       4.638  27.584  49.414  1.00  0.00    -0.039 A 
HETATM   14  C   UNL     1       4.175  28.464  48.423  1.00  0.00     0.009 A 
HETATM   15  C   UNL     1       3.371  28.000  47.382  1.00  0.00     0.001 A 
HETATM   16  C   UNL     1       3.031  26.651  47.312  1.00  0.00     0.000 A 
HETATM   17  C   UNL     1       3.499  25.764  48.277  1.00  0.00     0.001 A 
HETATM   18  C   UNL     1       4.304  26.223  49.321  1.00  0.00     0.009 A 
ENDBRANCH  12  13
ENDBRANCH   8  12
ENDBRANCH   3   7
ENDBRANCH   1   3
BRANCH   1  19
HETATM   19  C   UNL     1       7.927  28.436  54.816  1.00  0.00     0.278 C 
BRANCH  19  20
HETATM   20  C   UNL     1       7.649  29.359  55.961  1.00  0.00     0.021 A 
HETATM   21  C   UNL     1       6.456  30.041  56.118  1.00  0.00     0.170 A 
HETATM   22  N   UNL     1       6.105  30.808  57.162  1.00  0.00    -0.224 NA
HETATM   23  C   UNL     1       6.958  30.886  58.196  1.00  0.00     0.072 A 
HETATM   24  C   UNL     1       8.202  30.203  58.187  1.00  0.00    -0.004 A 
HETATM   25  C   UNL     1       6.600  31.625  59.317  1.00  0.00     0.072 A 
HETATM   26  C   UNL     1       8.531  29.450  57.046  1.00  0.00     0.027 A 
HETATM   27  C   UNL     1       9.059  30.258  59.302  1.00  0.00     0.053 A 
HETATM   28  C   UNL     1       8.646  30.981  60.397  1.00  0.00     0.106 A 
HETATM   29  C   UNL     1       7.451  31.652  60.402  1.00  0.00     0.107 A 
HETATM   30  O   UNL     1       9.322  31.115  61.568  1.00  0.00    -0.323 OA
HETATM   31  O   UNL     1       7.222  32.295  61.577  1.00  0.00    -0.323 OA
HETATM   32  C   UNL     1       8.394  31.917  62.330  1.00  0.00     0.352 A 
BRANCH  21  33
HETATM   33  O   UNL     1       5.468  29.954  55.202  1.00  0.00    -0.344 OA
HETATM   34  H   UNL     1       4.839  29.376  55.683  1.00  0.00     0.219 HD
ENDBRANCH  21  33
ENDBRANCH  19  20
ENDBRANCH   1  19
BRANCH   1  35
HETATM   35  C   UNL     1       6.469  26.558  55.848  1.00  0.00     0.238 C 
BRANCH  35  36
HETATM   36  C   UNL     1       7.157  25.347  56.480  1.00  0.00     0.054 C 
BRANCH  36  37
HETATM   37  C   UNL     1       8.325  25.764  57.366  1.00  0.00     0.165 C 
BRANCH  37  38
HETATM   38  O   UNL     1       8.345  24.951  58.526  1.00  0.00    -0.401 OA
HETATM   39  H   UNL     1       8.918  24.182  58.336  1.00  0.00     0.209 HD
ENDBRANCH  37  38
ENDBRANCH  36  37
ENDBRANCH  35  36
ENDBRANCH   1  35
TORSDOF 12
ENDMDL
MODEL 9
REMARK VINA RESULT:      -8.6      3.694      7.819
REMARK  12 active torsions:
REMARK  status: ('A' for Active; 'I' for Inactive)
REMARK    1  A    between atoms: C_2  and  C_3 
REMARK    2  A    between atoms: C_3  and  N_4 
REMARK    3  A    between atoms: C_3  and  C_25 
REMARK    4  A    between atoms: N_4  and  C_6 
REMARK    5  A    between atoms: N_4  and  C_21 
REMARK    6  A    between atoms: C_6  and  C_7 
REMARK    7  A    between atoms: C_8  and  O_9 
REMARK    8  A    between atoms: C_21  and  C_22 
REMARK    9  A    between atoms: C_22  and  C_23 
REMARK   10  A    between atoms: C_23  and  O_24 
REMARK   11  A    between atoms: N_26  and  C_27 
REMARK   12  A    between atoms: C_27  and  C_28 
ROOT
HETATM    1  N   UNL     1       6.787  28.064  54.843  1.00  0.00    -0.055 N 
HETATM    2  H   UNL     1       7.667  28.446  55.205  1.00  0.00     0.281 HD
ENDROOT
BRANCH   1   3
HETATM    3  C   UNL     1       6.974  26.556  55.171  1.00  0.00     0.263 C 
BRANCH   3   4
HETATM    4  C   UNL     1       6.913  26.207  56.691  1.00  0.00     0.016 C 
HETATM    5  C   UNL     1       8.300  25.794  57.212  1.00  0.00     0.012 C 
HETATM    6  C   UNL     1       5.905  25.141  57.110  1.00  0.00     0.012 C 
ENDBRANCH   3   4
BRANCH   3   7
HETATM    7  C   UNL     1       6.180  25.632  54.296  1.00  0.00     0.168 A 
HETATM    8  N   UNL     1       6.664  24.602  53.517  1.00  0.00    -0.257 N 
HETATM    9  N   UNL     1       5.649  24.047  52.836  1.00  0.00    -0.003 NA
HETATM   10  N   UNL     1       4.564  24.700  53.210  1.00  0.00     0.018 NA
HETATM   11  N   UNL     1       4.876  25.676  54.110  1.00  0.00    -0.145 NA
BRANCH   8  12
HETATM   12  C   UNL     1       7.999  24.054  53.353  1.00  0.00     0.186 C 
BRANCH  12  13
HETATM   13  C   UNL     1       8.153  22.690  53.978  1.00  0.00    -0.039 A 
HETATM   14  C   UNL     1       7.965  22.530  55.361  1.00  0.00     0.009 A 
HETATM   15  C   UNL     1       8.057  21.268  55.948  1.00  0.00     0.001 A 
HETATM   16  C   UNL     1       8.325  20.151  55.161  1.00  0.00     0.000 A 
HETATM   17  C   UNL     1       8.494  20.292  53.786  1.00  0.00     0.001 A 
HETATM   18  C   UNL     1       8.403  21.552  53.194  1.00  0.00     0.009 A 
ENDBRANCH  12  13
ENDBRANCH   8  12
ENDBRANCH   3   7
ENDBRANCH   1   3
BRANCH   1  19
HETATM   19  C   UNL     1       6.867  28.560  53.393  1.00  0.00     0.278 C 
BRANCH  19  20
HETATM   20  C   UNL     1       5.730  28.460  52.425  1.00  0.00     0.021 A 
HETATM   21  C   UNL     1       4.755  29.432  52.290  1.00  0.00     0.170 A 
HETATM   22  N   UNL     1       3.765  29.452  51.384  1.00  0.00    -0.224 NA
HETATM   23  C   UNL     1       3.734  28.470  50.470  1.00  0.00     0.072 A 
HETATM   24  C   UNL     1       4.698  27.427  50.464  1.00  0.00    -0.004 A 
HETATM   25  C   UNL     1       2.756  28.491  49.483  1.00  0.00     0.072 A 
HETATM   26  C   UNL     1       5.685  27.440  51.466  1.00  0.00     0.027 A 
HETATM   27  C   UNL     1       4.677  26.435  49.467  1.00  0.00     0.053 A 
HETATM   28  C   UNL     1       3.705  26.518  48.497  1.00  0.00     0.106 A 
HETATM   29  C   UNL     1       2.766  27.515  48.508  1.00  0.00     0.107 A 
HETATM   30  O   UNL     1       3.554  25.675  47.442  1.00  0.00    -0.323 OA
HETATM   31  O   UNL     1       1.903  27.428  47.461  1.00  0.00    -0.323 OA
HETATM   32  C   UNL     1       2.433  26.281  46.764  1.00  0.00     0.352 A 
BRANCH  21  33
HETATM   33  O   UNL     1       4.741  30.531  53.076  1.00  0.00    -0.344 OA
HETATM   34  H   UNL     1       4.973  31.216  52.415  1.00  0.00     0.219 HD
ENDBRANCH  21  33
ENDBRANCH  19  20
ENDBRANCH   1  19
BRANCH   1  35
HETATM   35  C   UNL     1       5.742  28.744  55.721  1.00  0.00     0.238 C 
BRANCH  35  36
HETATM   36  C   UNL     1       6.288  30.004  56.394  1.00  0.00     0.054 C 
BRANCH  36  37
HETATM   37  C   UNL     1       6.960  29.683  57.724  1.00  0.00     0.165 C 
BRANCH  37  38
HETATM   38  O   UNL     1       6.474  30.568  58.718  1.00  0.00    -0.401 OA
HETATM   39  H   UNL     1       5.588  30.869  58.436  1.00  0.00     0.209 HD
ENDBRANCH  37  38
ENDBRANCH  36  37
ENDBRANCH  35  36
ENDBRANCH   1  35
TORSDOF 12
ENDMDL
MODEL 10
REMARK VINA RESULT:      -8.4      3.006      9.336
REMARK  12 active torsions:
REMARK  status: ('A' for Active; 'I' for Inactive)
REMARK    1  A    between atoms: C_2  and  C_3 
REMARK    2  A    between atoms: C_3  and  N_4 
REMARK    3  A    between atoms: C_3  and  C_25 
REMARK    4  A    between atoms: N_4  and  C_6 
REMARK    5  A    between atoms: N_4  and  C_21 
REMARK    6  A    between atoms: C_6  and  C_7 
REMARK    7  A    between atoms: C_8  and  O_9 
REMARK    8  A    between atoms: C_21  and  C_22 
REMARK    9  A    between atoms: C_22  and  C_23 
REMARK   10  A    between atoms: C_23  and  O_24 
REMARK   11  A    between atoms: N_26  and  C_27 
REMARK   12  A    between atoms: C_27  and  C_28 
ROOT
HETATM    1  N   UNL     1       6.666  30.004  57.281  1.00  0.00    -0.055 N 
HETATM    2  H   UNL     1       6.000  29.250  57.485  1.00  0.00     0.281 HD
ENDROOT
BRANCH   1   3
HETATM    3  C   UNL     1       5.697  31.212  57.145  1.00  0.00     0.263 C 
BRANCH   3   4
HETATM    4  C   UNL     1       5.058  31.377  55.731  1.00  0.00     0.016 C 
HETATM    5  C   UNL     1       4.408  32.764  55.584  1.00  0.00     0.012 C 
HETATM    6  C   UNL     1       4.039  30.322  55.311  1.00  0.00     0.012 C 
ENDBRANCH   3   4
BRANCH   3   7
HETATM    7  C   UNL     1       4.726  31.354  58.279  1.00  0.00     0.168 A 
HETATM    8  N   UNL     1       4.835  32.191  59.369  1.00  0.00    -0.257 N 
HETATM    9  N   UNL     1       3.795  31.985  60.192  1.00  0.00    -0.003 NA
HETATM   10  N   UNL     1       3.049  31.066  59.607  1.00  0.00     0.018 NA
HETATM   11  N   UNL     1       3.608  30.670  58.428  1.00  0.00    -0.145 NA
BRANCH   8  12
HETATM   12  C   UNL     1       5.818  33.201  59.722  1.00  0.00     0.186 C 
BRANCH  12  13
HETATM   13  C   UNL     1       6.287  33.089  61.151  1.00  0.00    -0.039 A 
HETATM   14  C   UNL     1       7.135  32.034  61.527  1.00  0.00     0.009 A 
HETATM   15  C   UNL     1       7.616  31.941  62.832  1.00  0.00     0.001 A 
HETATM   16  C   UNL     1       7.267  32.906  63.774  1.00  0.00     0.000 A 
HETATM   17  C   UNL     1       6.443  33.968  63.410  1.00  0.00     0.001 A 
HETATM   18  C   UNL     1       5.960  34.066  62.105  1.00  0.00     0.009 A 
ENDBRANCH  12  13
ENDBRANCH   8  12
ENDBRANCH   3   7
ENDBRANCH   1   3
BRANCH   1  19
HETATM   19  C   UNL     1       7.352  29.414  56.042  1.00  0.00     0.278 C 
BRANCH  19  20
HETATM   20  C   UNL     1       7.209  27.984  55.624  1.00  0.00     0.021 A 
HETATM   21  C   UNL     1       6.900  27.594  54.334  1.00  0.00     0.170 A 
HETATM   22  N   UNL     1       6.847  26.335  53.869  1.00  0.00    -0.224 NA
HETATM   23  C   UNL     1       7.182  25.344  54.710  1.00  0.00     0.072 A 
HETATM   24  C   UNL     1       7.560  25.604  56.054  1.00  0.00    -0.004 A 
HETATM   25  C   UNL     1       7.193  24.034  54.246  1.00  0.00     0.072 A 
HETATM   26  C   UNL     1       7.554  26.940  56.491  1.00  0.00     0.027 A 
HETATM   27  C   UNL     1       7.955  24.554  56.904  1.00  0.00     0.053 A 
HETATM   28  C   UNL     1       7.975  23.279  56.387  1.00  0.00     0.106 A 
HETATM   29  C   UNL     1       7.598  23.025  55.095  1.00  0.00     0.107 A 
HETATM   30  O   UNL     1       8.362  22.156  57.046  1.00  0.00    -0.323 OA
HETATM   31  O   UNL     1       7.698  21.708  54.774  1.00  0.00    -0.323 OA
HETATM   32  C   UNL     1       8.223  21.165  56.004  1.00  0.00     0.352 A 
BRANCH  21  33
HETATM   33  O   UNL     1       6.654  28.499  53.362  1.00  0.00    -0.344 OA
HETATM   34  H   UNL     1       7.544  28.564  52.960  1.00  0.00     0.219 HD
ENDBRANCH  21  33
ENDBRANCH  19  20
ENDBRANCH   1  19
BRANCH   1  35
HETATM   35  C   UNL     1       7.513  30.053  58.548  1.00  0.00     0.238 C 
BRANCH  35  36
HETATM   36  C   UNL     1       9.007  30.164  58.238  1.00  0.00     0.054 C 
BRANCH  36  37
HETATM   37  C   UNL     1       9.704  31.138  59.179  1.00  0.00     0.165 C 
BRANCH  37  38
HETATM   38  O   UNL     1      10.227  32.219  58.428  1.00  0.00    -0.401 OA
HETATM   39  H   UNL     1      10.610  31.850  57.608  1.00  0.00     0.209 HD
ENDBRANCH  37  38
ENDBRANCH  36  37
ENDBRANCH  35  36
ENDBRANCH   1  35
TORSDOF 12
ENDMDL
