MODEL 1
REMARK VINA RESULT:      -9.5      0.000      0.000
REMARK  8 active torsions:
REMARK  status: ('A' for Active; 'I' for Inactive)
REMARK    1  A    between atoms: C_2  and  O_3 
REMARK    2  A    between atoms: O_3  and  C_4 
REMARK    3  A    between atoms: C_5  and  O_6 
REMARK    4  A    between atoms: O_6  and  C_7 
REMARK    5  A    between atoms: C_7  and  C_8 
REMARK       I    between atoms: C_8  and  N_9 
REMARK    6  A    between atoms: C_13  and  C_14 
REMARK    7  A    between atoms: C_21  and  C_22 
REMARK       I    between atoms: C_22  and  N_23 
REMARK    8  A    between atoms: N_23  and  C_24 
ROOT
HETATM    1  C   UNL     1       7.005  27.550  53.819  1.00  0.00     0.160 C 
HETATM    2  N   UNL     1       6.429  28.677  53.111  1.00  0.00    -0.330 N 
HETATM    3  C   UNL     1       5.776  28.563  51.929  1.00  0.00     0.321 C 
HETATM    4  O   UNL     1       5.567  29.534  51.211  1.00  0.00    -0.247 OA
HETATM    5  N   UNL     1       5.337  27.315  51.609  1.00  0.00    -0.312 N 
HETATM    6  C   UNL     1       5.478  26.197  52.403  1.00  0.00     0.024 C 
HETATM    7  C   UNL     1       4.770  24.967  51.902  1.00  0.00     0.069 C 
HETATM    8  C   UNL     1       6.251  26.283  53.506  1.00  0.00     0.059 C 
HETATM    9  H   UNL     1       6.766  29.609  53.310  1.00  0.00     0.165 HD
HETATM   10  H   UNL     1       4.781  27.269  50.763  1.00  0.00     0.170 HD
ENDROOT
BRANCH   1  11
HETATM   11  C   UNL     1       7.215  27.957  55.268  1.00  0.00    -0.028 A 
HETATM   12  C   UNL     1       8.347  27.466  55.944  1.00  0.00     0.012 A 
HETATM   13  C   UNL     1       8.672  27.903  57.232  1.00  0.00     0.040 A 
HETATM   14  C   UNL     1       7.858  28.828  57.888  1.00  0.00     0.102 A 
HETATM   15  C   UNL     1       6.701  29.289  57.246  1.00  0.00     0.102 A 
HETATM   16  C   UNL     1       6.405  28.887  55.933  1.00  0.00     0.049 A 
BRANCH  14  17
HETATM   17  O   UNL     1       8.187  29.395  59.091  1.00  0.00    -0.339 OA
BRANCH  17  18
HETATM   18  C   UNL     1       9.072  30.511  59.047  1.00  0.00     0.278 C 
BRANCH  18  19
HETATM   19  C   UNL     1       8.422  31.708  59.732  1.00  0.00     0.239 C 
HETATM   20  N   UNL     1       7.160  31.500  60.213  1.00  0.00    -0.368 N 
HETATM   21  H   UNL     1       6.803  30.554  60.296  1.00  0.00     0.159 HD
HETATM   22  H   UNL     1       6.712  32.245  60.728  1.00  0.00     0.159 HD
HETATM   23  O   UNL     1       8.954  32.812  59.808  1.00  0.00    -0.271 OA
ENDBRANCH  18  19
ENDBRANCH  17  18
ENDBRANCH  14  17
BRANCH  15  24
HETATM   24  O   UNL     1       5.843  30.214  57.791  1.00  0.00    -0.349 OA
BRANCH  24  25
HETATM   25  C   UNL     1       4.473  30.073  57.395  1.00  0.00     0.171 C 
HETATM   26  C   UNL     1       3.543  30.895  58.269  1.00  0.00     0.034 C 
ENDBRANCH  24  25
ENDBRANCH  15  24
ENDBRANCH   1  11
BRANCH   8  27
HETATM   27  C   UNL     1       6.379  25.091  54.392  1.00  0.00     0.256 C 
HETATM   28  N   UNL     1       7.380  24.229  54.006  1.00  0.00    -0.323 N 
HETATM   29  H   UNL     1       7.788  24.418  53.102  1.00  0.00     0.169 HD
HETATM   30  O   UNL     1       5.576  24.950  55.304  1.00  0.00    -0.267 OA
BRANCH  28  31
HETATM   31  C   UNL     1       7.817  23.012  54.590  1.00  0.00     0.041 A 
HETATM   32  C   UNL     1       8.342  22.807  55.879  1.00  0.00    -0.035 A 
HETATM   33  C   UNL     1       8.614  23.877  56.896  1.00  0.00     0.050 C 
HETATM   34  C   UNL     1       8.668  21.491  56.282  1.00  0.00     0.009 A 
HETATM   35  C   UNL     1       8.530  20.405  55.422  1.00  0.00     0.001 A 
HETATM   36  C   UNL     1       8.063  20.611  54.135  1.00  0.00     0.002 A 
HETATM   37  C   UNL     1       7.714  21.900  53.727  1.00  0.00     0.030 A 
ENDBRANCH  28  31
ENDBRANCH   8  27
TORSDOF 8
ENDMDL
MODEL 2
REMARK VINA RESULT:      -9.3      1.078      2.210
REMARK  8 active torsions:
REMARK  status: ('A' for Active; 'I' for Inactive)
REMARK    1  A    between atoms: C_2  and  O_3 
REMARK    2  A    between atoms: O_3  and  C_4 
REMARK    3  A    between atoms: C_5  and  O_6 
REMARK    4  A    between atoms: O_6  and  C_7 
REMARK    5  A    between atoms: C_7  and  C_8 
REMARK       I    between atoms: C_8  and  N_9 
REMARK    6  A    between atoms: C_13  and  C_14 
REMARK    7  A    between atoms: C_21  and  C_22 
REMARK       I    between atoms: C_22  and  N_23 
REMARK    8  A    between atoms: N_23  and  C_24 
ROOT
HETATM    1  C   UNL     1       6.740  27.829  53.467  1.00  0.00     0.160 C 
HETATM    2  N   UNL     1       6.157  28.748  52.508  1.00  0.00    -0.330 N 
HETATM    3  C   UNL     1       5.565  28.349  51.356  1.00  0.00     0.321 C 
HETATM    4  O   UNL     1       5.355  29.130  50.435  1.00  0.00    -0.247 OA
HETATM    5  N   UNL     1       5.189  27.042  51.302  1.00  0.00    -0.312 N 
HETATM    6  C   UNL     1       5.333  26.131  52.325  1.00  0.00     0.024 C 
HETATM    7  C   UNL     1       4.696  24.790  52.079  1.00  0.00     0.069 C 
HETATM    8  C   UNL     1       6.050  26.491  53.412  1.00  0.00     0.059 C 
HETATM    9  H   UNL     1       6.448  29.715  52.512  1.00  0.00     0.165 HD
HETATM   10  H   UNL     1       4.675  26.788  50.465  1.00  0.00     0.170 HD
ENDROOT
BRANCH   1  11
HETATM   11  C   UNL     1       6.866  28.551  54.800  1.00  0.00    -0.028 A 
HETATM   12  C   UNL     1       5.772  29.308  55.257  1.00  0.00     0.012 A 
HETATM   13  C   UNL     1       5.769  29.888  56.529  1.00  0.00     0.040 A 
HETATM   14  C   UNL     1       6.872  29.742  57.372  1.00  0.00     0.102 A 
HETATM   15  C   UNL     1       7.989  29.030  56.912  1.00  0.00     0.102 A 
HETATM   16  C   UNL     1       7.968  28.407  55.653  1.00  0.00     0.049 A 
BRANCH  14  17
HETATM   17  O   UNL     1       6.883  30.169  58.673  1.00  0.00    -0.339 OA
BRANCH  17  18
HETATM   18  C   UNL     1       7.173  31.548  58.888  1.00  0.00     0.278 C 
BRANCH  18  19
HETATM   19  C   UNL     1       8.492  31.682  59.642  1.00  0.00     0.239 C 
HETATM   20  N   UNL     1       8.892  30.575  60.334  1.00  0.00    -0.368 N 
HETATM   21  H   UNL     1       8.446  29.681  60.156  1.00  0.00     0.159 HD
HETATM   22  H   UNL     1       9.789  30.596  60.799  1.00  0.00     0.159 HD
HETATM   23  O   UNL     1       9.140  32.724  59.686  1.00  0.00    -0.271 OA
ENDBRANCH  18  19
ENDBRANCH  17  18
ENDBRANCH  14  17
BRANCH  15  24
HETATM   24  O   UNL     1       9.116  28.810  57.665  1.00  0.00    -0.349 OA
BRANCH  24  25
HETATM   25  C   UNL     1      10.351  29.128  57.010  1.00  0.00     0.171 C 
HETATM   26  C   UNL     1      10.729  30.587  57.194  1.00  0.00     0.034 C 
ENDBRANCH  24  25
ENDBRANCH  15  24
ENDBRANCH   1  11
BRANCH   8  27
HETATM   27  C   UNL     1       6.180  25.527  54.542  1.00  0.00     0.256 C 
HETATM   28  N   UNL     1       7.201  24.620  54.370  1.00  0.00    -0.323 N 
HETATM   29  H   UNL     1       7.622  24.612  53.452  1.00  0.00     0.169 HD
HETATM   30  O   UNL     1       5.363  25.576  55.451  1.00  0.00    -0.267 OA
BRANCH  28  31
HETATM   31  C   UNL     1       7.645  23.570  55.215  1.00  0.00     0.041 A 
HETATM   32  C   UNL     1       8.185  23.669  56.511  1.00  0.00    -0.035 A 
HETATM   33  C   UNL     1       8.466  24.945  57.249  1.00  0.00     0.050 C 
HETATM   34  C   UNL     1       8.517  22.482  57.204  1.00  0.00     0.009 A 
HETATM   35  C   UNL     1       8.371  21.226  56.620  1.00  0.00     0.001 A 
HETATM   36  C   UNL     1       7.889  21.130  55.326  1.00  0.00     0.002 A 
HETATM   37  C   UNL     1       7.534  22.289  54.634  1.00  0.00     0.030 A 
ENDBRANCH  28  31
ENDBRANCH   8  27
TORSDOF 8
ENDMDL
MODEL 3
REMARK VINA RESULT:      -9.2      2.855      7.057
REMARK  8 active torsions:
REMARK  status: ('A' for Active; 'I' for Inactive)
REMARK    1  A    between atoms: C_2  and  O_3 
REMARK    2  A    between atoms: O_3  and  C_4 
REMARK    3  A    between atoms: C_5  and  O_6 
REMARK    4  A    between atoms: O_6  and  C_7 
REMARK    5  A    between atoms: C_7  and  C_8 
REMARK       I    between atoms: C_8  and  N_9 
REMARK    6  A    between atoms: C_13  and  C_14 
REMARK    7  A    between atoms: C_21  and  C_22 
REMARK       I    between atoms: C_22  and  N_23 
REMARK    8  A    between atoms: N_23  and  C_24 
ROOT
HETATM    1  C   UNL     1       5.186  26.316  54.566  1.00  0.00     0.160 C 
HETATM    2  N   UNL     1       4.697  27.596  55.042  1.00  0.00    -0.330 N 
HETATM    3  C   UNL     1       4.908  28.057  56.299  1.00  0.00     0.321 C 
HETATM    4  O   UNL     1       4.248  28.976  56.768  1.00  0.00    -0.247 OA
HETATM    5  N   UNL     1       5.918  27.461  56.989  1.00  0.00    -0.312 N 
HETATM    6  C   UNL     1       6.742  26.472  56.496  1.00  0.00     0.024 C 
HETATM    7  C   UNL     1       7.884  26.086  57.396  1.00  0.00     0.069 C 
HETATM    8  C   UNL     1       6.439  25.918  55.302  1.00  0.00     0.059 C 
HETATM    9  H   UNL     1       3.926  28.039  54.562  1.00  0.00     0.165 HD
HETATM   10  H   UNL     1       6.111  27.877  57.894  1.00  0.00     0.170 HD
ENDROOT
BRANCH   1  11
HETATM   11  C   UNL     1       5.190  26.344  53.046  1.00  0.00    -0.028 A 
HETATM   12  C   UNL     1       4.820  25.176  52.354  1.00  0.00     0.012 A 
HETATM   13  C   UNL     1       4.674  25.170  50.964  1.00  0.00     0.040 A 
HETATM   14  C   UNL     1       4.916  26.329  50.225  1.00  0.00     0.102 A 
HETATM   15  C   UNL     1       5.331  27.488  50.896  1.00  0.00     0.102 A 
HETATM   16  C   UNL     1       5.428  27.505  52.297  1.00  0.00     0.049 A 
BRANCH  14  17
HETATM   17  O   UNL     1       4.665  26.428  48.882  1.00  0.00    -0.339 OA
BRANCH  17  18
HETATM   18  C   UNL     1       3.297  26.517  48.495  1.00  0.00     0.278 C 
BRANCH  18  19
HETATM   19  C   UNL     1       2.950  25.357  47.567  1.00  0.00     0.239 C 
HETATM   20  N   UNL     1       2.853  24.132  48.163  1.00  0.00    -0.368 N 
HETATM   21  H   UNL     1       2.796  24.067  49.174  1.00  0.00     0.159 HD
HETATM   22  H   UNL     1       2.566  23.344  47.600  1.00  0.00     0.159 HD
HETATM   23  O   UNL     1       2.818  25.482  46.353  1.00  0.00    -0.271 OA
ENDBRANCH  18  19
ENDBRANCH  17  18
ENDBRANCH  14  17
BRANCH  15  24
HETATM   24  O   UNL     1       5.576  28.685  50.270  1.00  0.00    -0.349 OA
BRANCH  24  25
HETATM   25  C   UNL     1       4.607  29.710  50.529  1.00  0.00     0.171 C 
HETATM   26  C   UNL     1       5.176  31.098  50.297  1.00  0.00     0.034 C 
ENDBRANCH  24  25
ENDBRANCH  15  24
ENDBRANCH   1  11
BRANCH   8  27
HETATM   27  C   UNL     1       7.344  24.874  54.742  1.00  0.00     0.256 C 
HETATM   28  N   UNL     1       7.021  23.598  55.143  1.00  0.00    -0.323 N 
HETATM   29  H   UNL     1       6.331  23.538  55.879  1.00  0.00     0.169 HD
HETATM   30  O   UNL     1       8.295  25.229  54.060  1.00  0.00    -0.267 OA
BRANCH  28  31
HETATM   31  C   UNL     1       7.624  22.355  54.819  1.00  0.00     0.041 A 
HETATM   32  C   UNL     1       8.177  21.404  55.697  1.00  0.00    -0.035 A 
HETATM   33  C   UNL     1       8.299  21.551  57.185  1.00  0.00     0.050 C 
HETATM   34  C   UNL     1       8.684  20.197  55.163  1.00  0.00     0.009 A 
HETATM   35  C   UNL     1       8.696  19.948  53.793  1.00  0.00     0.001 A 
HETATM   36  C   UNL     1       8.201  20.905  52.924  1.00  0.00     0.002 A 
HETATM   37  C   UNL     1       7.674  22.093  53.433  1.00  0.00     0.030 A 
ENDBRANCH  28  31
ENDBRANCH   8  27
TORSDOF 8
ENDMDL
MODEL 4
REMARK VINA RESULT:      -8.8      1.981      4.930
REMARK  8 active torsions:
REMARK  status: ('A' for Active; 'I' for Inactive)
REMARK    1  A    between atoms: C_2  and  O_3 
REMARK    2  A    between atoms: O_3  and  C_4 
REMARK    3  A    between atoms: C_5  and  O_6 
REMARK    4  A    between atoms: O_6  and  C_7 
REMARK    5  A    between atoms: C_7  and  C_8 
REMARK       I    between atoms: C_8  and  N_9 
REMARK    6  A    between atoms: C_13  and  C_14 
REMARK    7  A    between atoms: C_21  and  C_22 
REMARK       I    between atoms: C_22  and  N_23 
REMARK    8  A    between atoms: N_23  and  C_24 
ROOT
HETATM    1  C   UNL     1       6.912  24.943  56.147  1.00  0.00     0.160 C 
HETATM    2  N   UNL     1       7.620  24.010  57.002  1.00  0.00    -0.330 N 
HETATM    3  C   UNL     1       8.016  22.778  56.599  1.00  0.00     0.321 C 
HETATM    4  O   UNL     1       8.333  21.908  57.402  1.00  0.00    -0.247 OA
HETATM    5  N   UNL     1       8.072  22.582  55.253  1.00  0.00    -0.312 N 
HETATM    6  C   UNL     1       7.796  23.538  54.300  1.00  0.00     0.024 C 
HETATM    7  C   UNL     1       8.083  23.124  52.882  1.00  0.00     0.069 C 
HETATM    8  C   UNL     1       7.266  24.713  54.700  1.00  0.00     0.059 C 
HETATM    9  H   UNL     1       7.563  24.120  58.005  1.00  0.00     0.165 HD
HETATM   10  H   UNL     1       8.450  21.683  54.976  1.00  0.00     0.170 HD
ENDROOT
BRANCH   1  11
HETATM   11  C   UNL     1       7.056  26.335  56.740  1.00  0.00    -0.028 A 
HETATM   12  C   UNL     1       8.352  26.843  56.947  1.00  0.00     0.012 A 
HETATM   13  C   UNL     1       8.558  28.162  57.364  1.00  0.00     0.040 A 
HETATM   14  C   UNL     1       7.471  29.003  57.606  1.00  0.00     0.102 A 
HETATM   15  C   UNL     1       6.173  28.496  57.449  1.00  0.00     0.102 A 
HETATM   16  C   UNL     1       5.970  27.187  56.982  1.00  0.00     0.049 A 
BRANCH  14  17
HETATM   17  O   UNL     1       7.602  30.336  57.887  1.00  0.00    -0.339 OA
BRANCH  17  18
HETATM   18  C   UNL     1       8.120  30.667  59.173  1.00  0.00     0.278 C 
BRANCH  18  19
HETATM   19  C   UNL     1       9.238  31.694  59.026  1.00  0.00     0.239 C 
HETATM   20  N   UNL     1      10.242  31.354  58.165  1.00  0.00    -0.368 N 
HETATM   21  H   UNL     1      10.112  30.581  57.520  1.00  0.00     0.159 HD
HETATM   22  H   UNL     1      10.974  32.028  57.989  1.00  0.00     0.159 HD
HETATM   23  O   UNL     1       9.284  32.737  59.671  1.00  0.00    -0.271 OA
ENDBRANCH  18  19
ENDBRANCH  17  18
ENDBRANCH  14  17
BRANCH  15  24
HETATM   24  O   UNL     1       5.035  29.241  57.640  1.00  0.00    -0.349 OA
BRANCH  24  25
HETATM   25  C   UNL     1       4.648  30.049  56.521  1.00  0.00     0.171 C 
HETATM   26  C   UNL     1       3.276  30.668  56.717  1.00  0.00     0.034 C 
ENDBRANCH  24  25
ENDBRANCH  15  24
ENDBRANCH   1  11
BRANCH   8  27
HETATM   27  C   UNL     1       6.999  25.768  53.681  1.00  0.00     0.256 C 
HETATM   28  N   UNL     1       5.742  25.686  53.127  1.00  0.00    -0.323 N 
HETATM   29  H   UNL     1       5.225  24.847  53.350  1.00  0.00     0.169 HD
HETATM   30  O   UNL     1       7.901  26.540  53.387  1.00  0.00    -0.267 OA
BRANCH  28  31
HETATM   31  C   UNL     1       5.117  26.502  52.149  1.00  0.00     0.041 A 
HETATM   32  C   UNL     1       4.358  27.671  52.351  1.00  0.00    -0.035 A 
HETATM   33  C   UNL     1       3.996  28.263  53.682  1.00  0.00     0.050 C 
HETATM   34  C   UNL     1       3.865  28.367  51.223  1.00  0.00     0.009 A 
HETATM   35  C   UNL     1       4.067  27.901  49.926  1.00  0.00     0.001 A 
HETATM   36  C   UNL     1       4.768  26.723  49.729  1.00  0.00     0.002 A 
HETATM   37  C   UNL     1       5.283  26.034  50.828  1.00  0.00     0.030 A 
ENDBRANCH  28  31
ENDBRANCH   8  27
TORSDOF 8
ENDMDL
MODEL 5
REMARK VINA RESULT:      -8.5      2.120      5.379
REMARK  8 active torsions:
REMARK  status: ('A' for Active; 'I' for Inactive)
REMARK    1  A    between atoms: C_2  and  O_3 
REMARK    2  A    between atoms: O_3  and  C_4 
REMARK    3  A    between atoms: C_5  and  O_6 
REMARK    4  A    between atoms: O_6  and  C_7 
REMARK    5  A    between atoms: C_7  and  C_8 
REMARK       I    between atoms: C_8  and  N_9 
REMARK    6  A    between atoms: C_13  and  C_14 
REMARK    7  A    between atoms: C_21  and  C_22 
REMARK       I    between atoms: C_22  and  N_23 
REMARK    8  A    between atoms: N_23  and  C_24 
ROOT
HETATM    1  C   UNL     1       6.828  25.377  56.114  1.00  0.00     0.160 C 
HETATM    2  N   UNL     1       7.542  24.541  57.060  1.00  0.00    -0.330 N 
HETATM    3  C   UNL     1       8.012  23.305  56.759  1.00  0.00     0.321 C 
HETATM    4  O   UNL     1       8.336  22.509  57.632  1.00  0.00    -0.247 OA
HETATM    5  N   UNL     1       8.134  23.022  55.434  1.00  0.00    -0.312 N 
HETATM    6  C   UNL     1       7.854  23.896  54.406  1.00  0.00     0.024 C 
HETATM    7  C   UNL     1       8.220  23.402  53.032  1.00  0.00     0.069 C 
HETATM    8  C   UNL     1       7.253  25.068  54.703  1.00  0.00     0.059 C 
HETATM    9  H   UNL     1       7.437  24.715  58.050  1.00  0.00     0.165 HD
HETATM   10  H   UNL     1       8.565  22.126  55.234  1.00  0.00     0.170 HD
ENDROOT
BRANCH   1  11
HETATM   11  C   UNL     1       6.882  26.812  56.614  1.00  0.00    -0.028 A 
HETATM   12  C   UNL     1       5.669  27.497  56.815  1.00  0.00     0.012 A 
HETATM   13  C   UNL     1       5.639  28.768  57.395  1.00  0.00     0.040 A 
HETATM   14  C   UNL     1       6.826  29.399  57.772  1.00  0.00     0.102 A 
HETATM   15  C   UNL     1       8.046  28.748  57.534  1.00  0.00     0.102 A 
HETATM   16  C   UNL     1       8.069  27.451  56.997  1.00  0.00     0.049 A 
BRANCH  14  17
HETATM   17  O   UNL     1       6.861  30.581  58.462  1.00  0.00    -0.339 OA
BRANCH  17  18
HETATM   18  C   UNL     1       5.812  31.507  58.192  1.00  0.00     0.278 C 
BRANCH  18  19
HETATM   19  C   UNL     1       5.560  32.370  59.424  1.00  0.00     0.239 C 
HETATM   20  N   UNL     1       6.038  31.870  60.603  1.00  0.00    -0.368 N 
HETATM   21  H   UNL     1       6.699  31.101  60.592  1.00  0.00     0.159 HD
HETATM   22  H   UNL     1       5.948  32.435  61.436  1.00  0.00     0.159 HD
HETATM   23  O   UNL     1       4.923  33.418  59.393  1.00  0.00    -0.271 OA
ENDBRANCH  18  19
ENDBRANCH  17  18
ENDBRANCH  14  17
BRANCH  15  24
HETATM   24  O   UNL     1       9.268  29.268  57.884  1.00  0.00    -0.349 OA
BRANCH  24  25
HETATM   25  C   UNL     1      10.248  29.259  56.837  1.00  0.00     0.171 C 
HETATM   26  C   UNL     1      11.549  29.907  57.276  1.00  0.00     0.034 C 
ENDBRANCH  24  25
ENDBRANCH  15  24
ENDBRANCH   1  11
BRANCH   8  27
HETATM   27  C   UNL     1       6.980  26.037  53.602  1.00  0.00     0.256 C 
HETATM   28  N   UNL     1       5.731  25.890  53.044  1.00  0.00    -0.323 N 
HETATM   29  H   UNL     1       5.226  25.062  53.325  1.00  0.00     0.169 HD
HETATM   30  O   UNL     1       7.872  26.799  53.259  1.00  0.00    -0.267 OA
BRANCH  28  31
HETATM   31  C   UNL     1       5.104  26.618  52.000  1.00  0.00     0.041 A 
HETATM   32  C   UNL     1       4.450  27.862  52.081  1.00  0.00    -0.035 A 
HETATM   33  C   UNL     1       4.224  28.654  53.336  1.00  0.00     0.050 C 
HETATM   34  C   UNL     1       3.935  28.441  50.898  1.00  0.00     0.009 A 
HETATM   35  C   UNL     1       4.013  27.791  49.669  1.00  0.00     0.001 A 
HETATM   36  C   UNL     1       4.609  26.544  49.596  1.00  0.00     0.002 A 
HETATM   37  C   UNL     1       5.144  25.966  50.749  1.00  0.00     0.030 A 
ENDBRANCH  28  31
ENDBRANCH   8  27
TORSDOF 8
ENDMDL
MODEL 6
REMARK VINA RESULT:      -8.2      2.791      6.944
REMARK  8 active torsions:
REMARK  status: ('A' for Active; 'I' for Inactive)
REMARK    1  A    between atoms: C_2  and  O_3 
REMARK    2  A    between atoms: O_3  and  C_4 
REMARK    3  A    between atoms: C_5  and  O_6 
REMARK    4  A    between atoms: O_6  and  C_7 
REMARK    5  A    between atoms: C_7  and  C_8 
REMARK       I    between atoms: C_8  and  N_9 
REMARK    6  A    between atoms: C_13  and  C_14 
REMARK    7  A    between atoms: C_21  and  C_22 
REMARK       I    between atoms: C_22  and  N_23 
REMARK    8  A    between atoms: N_23  and  C_24 
ROOT
HETATM    1  C   UNL     1       4.551  28.036  54.911  1.00  0.00     0.160 C 
HETATM    2  N   UNL     1       3.887  29.200  55.465  1.00  0.00    -0.330 N 
HETATM    3  C   UNL     1       4.022  29.594  56.755  1.00  0.00     0.321 C 
HETATM    4  O   UNL     1       3.238  30.378  57.275  1.00  0.00    -0.247 OA
HETATM    5  N   UNL     1       5.099  29.093  57.421  1.00  0.00    -0.312 N 
HETATM    6  C   UNL     1       6.054  28.263  56.875  1.00  0.00     0.024 C 
HETATM    7  C   UNL     1       7.231  27.974  57.767  1.00  0.00     0.069 C 
HETATM    8  C   UNL     1       5.841  27.760  55.640  1.00  0.00     0.059 C 
HETATM    9  H   UNL     1       3.066  29.566  55.004  1.00  0.00     0.165 HD
HETATM   10  H   UNL     1       5.225  29.465  58.355  1.00  0.00     0.170 HD
ENDROOT
BRANCH   1  11
HETATM   11  C   UNL     1       4.564  28.173  53.397  1.00  0.00    -0.028 A 
HETATM   12  C   UNL     1       4.812  27.025  52.622  1.00  0.00     0.012 A 
HETATM   13  C   UNL     1       4.708  27.051  51.229  1.00  0.00     0.040 A 
HETATM   14  C   UNL     1       4.374  28.235  50.569  1.00  0.00     0.102 A 
HETATM   15  C   UNL     1       4.172  29.399  51.324  1.00  0.00     0.102 A 
HETATM   16  C   UNL     1       4.227  29.357  52.727  1.00  0.00     0.049 A 
BRANCH  14  17
HETATM   17  O   UNL     1       4.128  28.300  49.223  1.00  0.00    -0.339 OA
BRANCH  17  18
HETATM   18  C   UNL     1       3.082  27.468  48.727  1.00  0.00     0.278 C 
BRANCH  18  19
HETATM   19  C   UNL     1       3.581  26.682  47.519  1.00  0.00     0.239 C 
HETATM   20  N   UNL     1       2.610  26.146  46.721  1.00  0.00    -0.368 N 
HETATM   21  H   UNL     1       1.649  26.455  46.821  1.00  0.00     0.159 HD
HETATM   22  H   UNL     1       2.891  25.669  45.876  1.00  0.00     0.159 HD
HETATM   23  O   UNL     1       4.770  26.483  47.290  1.00  0.00    -0.271 OA
ENDBRANCH  18  19
ENDBRANCH  17  18
ENDBRANCH  14  17
BRANCH  15  24
HETATM   24  O   UNL     1       3.820  30.609  50.779  1.00  0.00    -0.349 OA
BRANCH  24  25
HETATM   25  C   UNL     1       2.484  31.038  51.074  1.00  0.00     0.171 C 
HETATM   26  C   UNL     1       1.521  30.701  49.950  1.00  0.00     0.034 C 
ENDBRANCH  24  25
ENDBRANCH  15  24
ENDBRANCH   1  11
BRANCH   8  27
HETATM   27  C   UNL     1       6.886  26.892  55.025  1.00  0.00     0.256 C 
HETATM   28  N   UNL     1       6.688  25.551  55.260  1.00  0.00    -0.323 N 
HETATM   29  H   UNL     1       5.973  25.331  55.938  1.00  0.00     0.169 HD
HETATM   30  O   UNL     1       7.824  27.425  54.448  1.00  0.00    -0.267 OA
BRANCH  28  31
HETATM   31  C   UNL     1       7.444  24.426  54.837  1.00  0.00     0.041 A 
HETATM   32  C   UNL     1       8.427  23.722  55.557  1.00  0.00    -0.035 A 
HETATM   33  C   UNL     1       8.929  24.070  56.928  1.00  0.00     0.050 C 
HETATM   34  C   UNL     1       9.025  22.586  54.962  1.00  0.00     0.009 A 
HETATM   35  C   UNL     1       8.705  22.180  53.669  1.00  0.00     0.001 A 
HETATM   36  C   UNL     1       7.777  22.904  52.940  1.00  0.00     0.002 A 
HETATM   37  C   UNL     1       7.158  24.013  53.518  1.00  0.00     0.030 A 
ENDBRANCH  28  31
ENDBRANCH   8  27
TORSDOF 8
ENDMDL
MODEL 7
REMARK VINA RESULT:      -8.0      2.931      7.271
REMARK  8 active torsions:
REMARK  status: ('A' for Active; 'I' for Inactive)
REMARK    1  A    between atoms: C_2  and  O_3 
REMARK    2  A    between atoms: O_3  and  C_4 
REMARK    3  A    between atoms: C_5  and  O_6 
REMARK    4  A    between atoms: O_6  and  C_7 
REMARK    5  A    between atoms: C_7  and  C_8 
REMARK       I    between atoms: C_8  and  N_9 
REMARK    6  A    between atoms: C_13  and  C_14 
REMARK    7  A    between atoms: C_21  and  C_22 
REMARK       I    between atoms: C_22  and  N_23 
REMARK    8  A    between atoms: N_23  and  C_24 
ROOT
HETATM    1  C   UNL     1       4.001  28.937  54.087  1.00  0.00     0.160 C 
HETATM    2  N   UNL     1       3.359  30.172  54.496  1.00  0.00    -0.330 N 
HETATM    3  C   UNL     1       3.334  30.612  55.777  1.00  0.00     0.321 C 
HETATM    4  O   UNL     1       2.548  31.477  56.146  1.00  0.00    -0.247 OA
HETATM    5  N   UNL     1       4.255  30.061  56.614  1.00  0.00    -0.312 N 
HETATM    6  C   UNL     1       5.210  29.137  56.247  1.00  0.00     0.024 C 
HETATM    7  C   UNL     1       6.214  28.799  57.315  1.00  0.00     0.069 C 
HETATM    8  C   UNL     1       5.141  28.597  55.011  1.00  0.00     0.059 C 
HETATM    9  H   UNL     1       2.649  30.578  53.903  1.00  0.00     0.165 HD
HETATM   10  H   UNL     1       4.272  30.465  57.544  1.00  0.00     0.170 HD
ENDROOT
BRANCH   1  11
HETATM   11  C   UNL     1       4.248  29.004  52.588  1.00  0.00    -0.028 A 
HETATM   12  C   UNL     1       3.377  28.304  51.733  1.00  0.00     0.012 A 
HETATM   13  C   UNL     1       3.466  28.428  50.344  1.00  0.00     0.040 A 
HETATM   14  C   UNL     1       4.445  29.241  49.770  1.00  0.00     0.102 A 
HETATM   15  C   UNL     1       5.351  29.907  50.608  1.00  0.00     0.102 A 
HETATM   16  C   UNL     1       5.227  29.820  52.004  1.00  0.00     0.049 A 
BRANCH  14  17
HETATM   17  O   UNL     1       4.505  29.510  48.429  1.00  0.00    -0.339 OA
BRANCH  17  18
HETATM   18  C   UNL     1       3.938  28.534  47.558  1.00  0.00     0.278 C 
BRANCH  18  19
HETATM   19  C   UNL     1       4.906  27.366  47.399  1.00  0.00     0.239 C 
HETATM   20  N   UNL     1       6.185  27.701  47.056  1.00  0.00    -0.368 N 
HETATM   21  H   UNL     1       6.490  28.665  47.132  1.00  0.00     0.159 HD
HETATM   22  H   UNL     1       6.876  26.966  46.999  1.00  0.00     0.159 HD
HETATM   23  O   UNL     1       4.568  26.191  47.511  1.00  0.00    -0.271 OA
ENDBRANCH  18  19
ENDBRANCH  17  18
ENDBRANCH  14  17
BRANCH  15  24
HETATM   24  O   UNL     1       6.337  30.746  50.151  1.00  0.00    -0.349 OA
BRANCH  24  25
HETATM   25  C   UNL     1       5.972  32.131  50.093  1.00  0.00     0.171 C 
HETATM   26  C   UNL     1       6.162  32.709  48.702  1.00  0.00     0.034 C 
ENDBRANCH  24  25
ENDBRANCH  15  24
ENDBRANCH   1  11
BRANCH   8  27
HETATM   27  C   UNL     1       6.190  27.625  54.590  1.00  0.00     0.256 C 
HETATM   28  N   UNL     1       5.781  26.313  54.665  1.00  0.00    -0.323 N 
HETATM   29  H   UNL     1       4.902  26.161  55.138  1.00  0.00     0.169 HD
HETATM   30  O   UNL     1       7.297  28.051  54.293  1.00  0.00    -0.267 OA
BRANCH  28  31
HETATM   31  C   UNL     1       6.475  25.118  54.342  1.00  0.00     0.041 A 
HETATM   32  C   UNL     1       6.928  24.691  53.080  1.00  0.00    -0.035 A 
HETATM   33  C   UNL     1       6.703  25.406  51.780  1.00  0.00     0.050 C 
HETATM   34  C   UNL     1       7.651  23.479  52.989  1.00  0.00     0.009 A 
HETATM   35  C   UNL     1       7.881  22.676  54.103  1.00  0.00     0.001 A 
HETATM   36  C   UNL     1       7.390  23.068  55.337  1.00  0.00     0.002 A 
HETATM   37  C   UNL     1       6.695  24.273  55.452  1.00  0.00     0.030 A 
ENDBRANCH  28  31
ENDBRANCH   8  27
TORSDOF 8
ENDMDL
MODEL 8
REMARK VINA RESULT:      -7.8      2.849      7.207
REMARK  8 active torsions:
REMARK  status: ('A' for Active; 'I' for Inactive)
REMARK    1  A    between atoms: C_2  and  O_3 
REMARK    2  A    between atoms: O_3  and  C_4 
REMARK    3  A    between atoms: C_5  and  O_6 
REMARK    4  A    between atoms: O_6  and  C_7 
REMARK    5  A    between atoms: C_7  and  C_8 
REMARK       I    between atoms: C_8  and  N_9 
REMARK    6  A    between atoms: C_13  and  C_14 
REMARK    7  A    between atoms: C_21  and  C_22 
REMARK       I    between atoms: C_22  and  N_23 
REMARK    8  A    between atoms: N_23  and  C_24 
ROOT
HETATM    1  C   UNL     1       4.030  28.901  55.231  1.00  0.00     0.160 C 
HETATM    2  N   UNL     1       3.543  30.022  56.011  1.00  0.00    -0.330 N 
HETATM    3  C   UNL     1       3.840  30.207  57.320  1.00  0.00     0.321 C 
HETATM    4  O   UNL     1       3.192  30.971  58.027  1.00  0.00    -0.247 OA
HETATM    5  N   UNL     1       4.920  29.524  57.788  1.00  0.00    -0.312 N 
HETATM    6  C   UNL     1       5.730  28.706  57.031  1.00  0.00     0.024 C 
HETATM    7  C   UNL     1       6.953  28.188  57.740  1.00  0.00     0.069 C 
HETATM    8  C   UNL     1       5.350  28.411  55.769  1.00  0.00     0.059 C 
HETATM    9  H   UNL     1       2.722  30.521  55.697  1.00  0.00     0.165 HD
HETATM   10  H   UNL     1       5.172  29.742  58.746  1.00  0.00     0.170 HD
ENDROOT
BRANCH   1  11
HETATM   11  C   UNL     1       3.911  29.259  53.758  1.00  0.00    -0.028 A 
HETATM   12  C   UNL     1       4.021  30.611  53.387  1.00  0.00     0.012 A 
HETATM   13  C   UNL     1       4.053  30.997  52.044  1.00  0.00     0.040 A 
HETATM   14  C   UNL     1       3.953  30.039  51.033  1.00  0.00     0.102 A 
HETATM   15  C   UNL     1       3.794  28.692  51.388  1.00  0.00     0.102 A 
HETATM   16  C   UNL     1       3.814  28.303  52.738  1.00  0.00     0.049 A 
BRANCH  14  17
HETATM   17  O   UNL     1       4.109  30.331  49.704  1.00  0.00    -0.339 OA
BRANCH  17  18
HETATM   18  C   UNL     1       2.954  30.809  49.019  1.00  0.00     0.278 C 
BRANCH  18  19
HETATM   19  C   UNL     1       2.501  29.773  47.995  1.00  0.00     0.239 C 
HETATM   20  N   UNL     1       1.639  28.821  48.461  1.00  0.00    -0.368 N 
HETATM   21  H   UNL     1       1.179  28.952  49.355  1.00  0.00     0.159 HD
HETATM   22  H   UNL     1       1.264  28.149  47.805  1.00  0.00     0.159 HD
HETATM   23  O   UNL     1       2.913  29.743  46.840  1.00  0.00    -0.271 OA
ENDBRANCH  18  19
ENDBRANCH  17  18
ENDBRANCH  14  17
BRANCH  15  24
HETATM   24  O   UNL     1       3.707  27.668  50.477  1.00  0.00    -0.349 OA
BRANCH  24  25
HETATM   25  C   UNL     1       4.946  27.312  49.850  1.00  0.00     0.171 C 
HETATM   26  C   UNL     1       4.738  26.799  48.436  1.00  0.00     0.034 C 
ENDBRANCH  24  25
ENDBRANCH  15  24
ENDBRANCH   1  11
BRANCH   8  27
HETATM   27  C   UNL     1       6.238  27.558  54.929  1.00  0.00     0.256 C 
HETATM   28  N   UNL     1       6.048  26.209  55.129  1.00  0.00    -0.323 N 
HETATM   29  H   UNL     1       5.464  25.967  55.916  1.00  0.00     0.169 HD
HETATM   30  O   UNL     1       7.070  28.102  54.217  1.00  0.00    -0.267 OA
BRANCH  28  31
HETATM   31  C   UNL     1       6.681  25.095  54.519  1.00  0.00     0.041 A 
HETATM   32  C   UNL     1       6.342  24.461  53.309  1.00  0.00    -0.035 A 
HETATM   33  C   UNL     1       5.172  24.806  52.434  1.00  0.00     0.050 C 
HETATM   34  C   UNL     1       7.145  23.389  52.853  1.00  0.00     0.009 A 
HETATM   35  C   UNL     1       8.226  22.915  53.591  1.00  0.00     0.001 A 
HETATM   36  C   UNL     1       8.529  23.504  54.807  1.00  0.00     0.002 A 
HETATM   37  C   UNL     1       7.763  24.578  55.264  1.00  0.00     0.030 A 
ENDBRANCH  28  31
ENDBRANCH   8  27
TORSDOF 8
ENDMDL
MODEL 9
REMARK VINA RESULT:      -7.8      2.394      3.909
REMARK  8 active torsions:
REMARK  status: ('A' for Active; 'I' for Inactive)
REMARK    1  A    between atoms: C_2  and  O_3 
REMARK    2  A    between atoms: O_3  and  C_4 
REMARK    3  A    between atoms: C_5  and  O_6 
REMARK    4  A    between atoms: O_6  and  C_7 
REMARK    5  A    between atoms: C_7  and  C_8 
REMARK       I    between atoms: C_8  and  N_9 
REMARK    6  A    between atoms: C_13  and  C_14 
REMARK    7  A    between atoms: C_21  and  C_22 
REMARK       I    between atoms: C_22  and  N_23 
REMARK    8  A    between atoms: N_23  and  C_24 
ROOT
HETATM    1  C   UNL     1       5.443  30.553  55.078  1.00  0.00     0.160 C 
HETATM    2  N   UNL     1       4.296  31.350  55.469  1.00  0.00    -0.330 N 
HETATM    3  C   UNL     1       3.123  31.355  54.789  1.00  0.00     0.321 C 
HETATM    4  O   UNL     1       2.289  32.239  54.948  1.00  0.00    -0.247 OA
HETATM    5  N   UNL     1       2.916  30.302  53.951  1.00  0.00    -0.312 N 
HETATM    6  C   UNL     1       3.781  29.243  53.779  1.00  0.00     0.024 C 
HETATM    7  C   UNL     1       3.256  28.127  52.917  1.00  0.00     0.069 C 
HETATM    8  C   UNL     1       5.005  29.313  54.344  1.00  0.00     0.059 C 
HETATM    9  H   UNL     1       4.433  32.155  56.064  1.00  0.00     0.165 HD
HETATM   10  H   UNL     1       2.000  30.285  53.518  1.00  0.00     0.170 HD
ENDROOT
BRANCH   1  11
HETATM   11  C   UNL     1       6.363  30.424  56.282  1.00  0.00    -0.028 A 
HETATM   12  C   UNL     1       5.967  31.018  57.494  1.00  0.00     0.012 A 
HETATM   13  C   UNL     1       6.698  30.827  58.670  1.00  0.00     0.040 A 
HETATM   14  C   UNL     1       7.859  30.053  58.661  1.00  0.00     0.102 A 
HETATM   15  C   UNL     1       8.292  29.494  57.450  1.00  0.00     0.102 A 
HETATM   16  C   UNL     1       7.529  29.645  56.281  1.00  0.00     0.049 A 
BRANCH  14  17
HETATM   17  O   UNL     1       8.547  29.718  59.797  1.00  0.00    -0.339 OA
BRANCH  17  18
HETATM   18  C   UNL     1       9.104  30.796  60.544  1.00  0.00     0.278 C 
BRANCH  18  19
HETATM   19  C   UNL     1       8.548  30.777  61.964  1.00  0.00     0.239 C 
HETATM   20  N   UNL     1       8.931  29.716  62.734  1.00  0.00    -0.368 N 
HETATM   21  H   UNL     1       9.702  29.128  62.434  1.00  0.00     0.159 HD
HETATM   22  H   UNL     1       8.637  29.691  63.700  1.00  0.00     0.159 HD
HETATM   23  O   UNL     1       7.762  31.618  62.391  1.00  0.00    -0.271 OA
ENDBRANCH  18  19
ENDBRANCH  17  18
ENDBRANCH  14  17
BRANCH  15  24
HETATM   24  O   UNL     1       9.407  28.700  57.332  1.00  0.00    -0.349 OA
BRANCH  24  25
HETATM   25  C   UNL     1      10.500  29.297  56.622  1.00  0.00     0.171 C 
HETATM   26  C   UNL     1      11.265  30.283  57.487  1.00  0.00     0.034 C 
ENDBRANCH  24  25
ENDBRANCH  15  24
ENDBRANCH   1  11
BRANCH   8  27
HETATM   27  C   UNL     1       5.934  28.155  54.196  1.00  0.00     0.256 C 
HETATM   28  N   UNL     1       5.693  27.144  55.097  1.00  0.00    -0.323 N 
HETATM   29  H   UNL     1       5.042  27.369  55.836  1.00  0.00     0.169 HD
HETATM   30  O   UNL     1       6.833  28.228  53.370  1.00  0.00    -0.267 OA
BRANCH  28  31
HETATM   31  C   UNL     1       6.342  25.893  55.264  1.00  0.00     0.041 A 
HETATM   32  C   UNL     1       6.321  24.783  54.399  1.00  0.00    -0.035 A 
HETATM   33  C   UNL     1       5.535  24.677  53.125  1.00  0.00     0.050 C 
HETATM   34  C   UNL     1       7.088  23.642  54.735  1.00  0.00     0.009 A 
HETATM   35  C   UNL     1       7.817  23.570  55.919  1.00  0.00     0.001 A 
HETATM   36  C   UNL     1       7.796  24.641  56.797  1.00  0.00     0.002 A 
HETATM   37  C   UNL     1       7.065  25.785  56.472  1.00  0.00     0.030 A 
ENDBRANCH  28  31
ENDBRANCH   8  27
TORSDOF 8
ENDMDL
MODEL 10
REMARK VINA RESULT:      -7.6      1.638      2.929
REMARK  8 active torsions:
REMARK  status: ('A' for Active; 'I' for Inactive)
REMARK    1  A    between atoms: C_2  and  O_3 
REMARK    2  A    between atoms: O_3  and  C_4 
REMARK    3  A    between atoms: C_5  and  O_6 
REMARK    4  A    between atoms: O_6  and  C_7 
REMARK    5  A    between atoms: C_7  and  C_8 
REMARK       I    between atoms: C_8  and  N_9 
REMARK    6  A    between atoms: C_13  and  C_14 
REMARK    7  A    between atoms: C_21  and  C_22 
REMARK       I    between atoms: C_22  and  N_23 
REMARK    8  A    between atoms: N_23  and  C_24 
ROOT
HETATM    1  C   UNL     1       5.841  27.873  53.012  1.00  0.00     0.160 C 
HETATM    2  N   UNL     1       5.168  28.576  51.937  1.00  0.00    -0.330 N 
HETATM    3  C   UNL     1       4.803  27.989  50.772  1.00  0.00     0.321 C 
HETATM    4  O   UNL     1       4.518  28.648  49.779  1.00  0.00    -0.247 OA
HETATM    5  N   UNL     1       4.740  26.629  50.785  1.00  0.00    -0.312 N 
HETATM    6  C   UNL     1       4.981  25.834  51.885  1.00  0.00     0.024 C 
HETATM    7  C   UNL     1       4.692  24.370  51.688  1.00  0.00     0.069 C 
HETATM    8  C   UNL     1       5.481  26.410  52.999  1.00  0.00     0.059 C 
HETATM    9  H   UNL     1       5.231  29.584  51.892  1.00  0.00     0.165 HD
HETATM   10  H   UNL     1       4.386  26.217  49.929  1.00  0.00     0.170 HD
ENDROOT
BRANCH   1  11
HETATM   11  C   UNL     1       5.663  28.675  54.291  1.00  0.00    -0.028 A 
HETATM   12  C   UNL     1       4.385  29.183  54.589  1.00  0.00     0.012 A 
HETATM   13  C   UNL     1       4.120  29.814  55.808  1.00  0.00     0.040 A 
HETATM   14  C   UNL     1       5.134  29.975  56.754  1.00  0.00     0.102 A 
HETATM   15  C   UNL     1       6.424  29.517  56.450  1.00  0.00     0.102 A 
HETATM   16  C   UNL     1       6.675  28.838  55.247  1.00  0.00     0.049 A 
BRANCH  14  17
HETATM   17  O   UNL     1       4.913  30.463  58.014  1.00  0.00    -0.339 OA
BRANCH  17  18
HETATM   18  C   UNL     1       3.639  31.056  58.253  1.00  0.00     0.278 C 
BRANCH  18  19
HETATM   19  C   UNL     1       3.709  31.937  59.496  1.00  0.00     0.239 C 
HETATM   20  N   UNL     1       4.899  31.919  60.166  1.00  0.00    -0.368 N 
HETATM   21  H   UNL     1       5.721  31.523  59.723  1.00  0.00     0.159 HD
HETATM   22  H   UNL     1       5.013  32.533  60.961  1.00  0.00     0.159 HD
HETATM   23  O   UNL     1       2.755  32.583  59.918  1.00  0.00    -0.271 OA
ENDBRANCH  18  19
ENDBRANCH  17  18
ENDBRANCH  14  17
BRANCH  15  24
HETATM   24  O   UNL     1       7.487  29.605  57.315  1.00  0.00    -0.349 OA
BRANCH  24  25
HETATM   25  C   UNL     1       8.743  29.913  56.696  1.00  0.00     0.171 C 
HETATM   26  C   UNL     1       9.875  29.078  57.268  1.00  0.00     0.034 C 
ENDBRANCH  24  25
ENDBRANCH  15  24
ENDBRANCH   1  11
BRANCH   8  27
HETATM   27  C   UNL     1       5.708  25.565  54.207  1.00  0.00     0.256 C 
HETATM   28  N   UNL     1       6.881  24.847  54.157  1.00  0.00    -0.323 N 
HETATM   29  H   UNL     1       7.353  24.851  53.264  1.00  0.00     0.169 HD
HETATM   30  O   UNL     1       4.842  25.530  55.069  1.00  0.00    -0.267 OA
BRANCH  28  31
HETATM   31  C   UNL     1       7.450  23.955  55.103  1.00  0.00     0.041 A 
HETATM   32  C   UNL     1       7.989  24.260  56.367  1.00  0.00    -0.035 A 
HETATM   33  C   UNL     1       8.133  25.634  56.952  1.00  0.00     0.050 C 
HETATM   34  C   UNL     1       8.460  23.203  57.180  1.00  0.00     0.009 A 
HETATM   35  C   UNL     1       8.451  21.880  56.744  1.00  0.00     0.001 A 
HETATM   36  C   UNL     1       7.969  21.585  55.479  1.00  0.00     0.002 A 
HETATM   37  C   UNL     1       7.478  22.612  54.671  1.00  0.00     0.030 A 
ENDBRANCH  28  31
ENDBRANCH   8  27
TORSDOF 8
ENDMDL
