MODEL 1
REMARK VINA RESULT:      -9.5      0.000      0.000
REMARK  9 active torsions:
REMARK  status: ('A' for Active; 'I' for Inactive)
REMARK    1  A    between atoms: C_2  and  C_3 
REMARK    2  A    between atoms: C_3  and  O_4 
REMARK    3  A    between atoms: O_4  and  C_5 
REMARK    4  A    between atoms: C_8  and  C_9 
REMARK    5  A    between atoms: C_13  and  C_14 
REMARK       I    between atoms: C_14  and  N_15 
REMARK    6  A    between atoms: N_15  and  N_16 
REMARK    7  A    between atoms: C_17  and  C_18 
REMARK    8  A    between atoms: C_21  and  O_22 
REMARK    9  A    between atoms: O_22  and  C_23 
ROOT
HETATM    1  C   UNL     1       8.463  28.272  57.224  1.00  0.00     0.089 A 
HETATM    2  N   UNL     1       9.655  28.846  57.001  1.00  0.00    -0.174 NA
HETATM    3  N   UNL     1       9.644  29.954  57.757  1.00  0.00    -0.272 N 
HETATM    4  H   UNL     1      10.458  30.561  57.757  1.00  0.00     0.189 HD
HETATM    5  C   UNL     1       8.504  30.120  58.493  1.00  0.00     0.121 A 
HETATM    6  C   UNL     1       7.704  29.050  58.144  1.00  0.00     0.071 A 
ENDROOT
BRANCH   5   7
HETATM    7  C   UNL     1       8.362  31.227  59.406  1.00  0.00     0.289 C 
HETATM    8  N   UNL     1       7.524  30.983  60.484  1.00  0.00    -0.242 N 
HETATM    9  H   UNL     1       7.062  30.089  60.582  1.00  0.00     0.192 HD
HETATM   10  O   UNL     1       8.962  32.282  59.219  1.00  0.00    -0.264 OA
BRANCH   8  11
HETATM   11  N   UNL     1       7.395  31.910  61.478  1.00  0.00    -0.184 NA
HETATM   12  C   UNL     1       6.564  31.607  62.423  1.00  0.00     0.150 C 
BRANCH  12  13
HETATM   13  C   UNL     1       6.349  32.495  63.582  1.00  0.00    -0.017 A 
HETATM   14  C   UNL     1       5.060  32.811  64.012  1.00  0.00     0.016 A 
HETATM   15  C   UNL     1       4.886  33.667  65.101  1.00  0.00     0.037 A 
HETATM   16  C   UNL     1       5.989  34.204  65.771  1.00  0.00     0.068 A 
HETATM   17  C   UNL     1       7.277  33.883  65.336  1.00  0.00     0.037 A 
HETATM   18  C   UNL     1       7.458  33.029  64.241  1.00  0.00     0.016 A 
BRANCH  16  19
HETATM   19  O   UNL     1       5.674  35.025  66.818  1.00  0.00    -0.352 OA
BRANCH  19  20
HETATM   20  C   UNL     1       5.534  34.420  68.101  1.00  0.00     0.171 C 
HETATM   21  C   UNL     1       6.772  34.757  68.914  1.00  0.00     0.034 C 
ENDBRANCH  19  20
ENDBRANCH  16  19
ENDBRANCH  12  13
ENDBRANCH   8  11
ENDBRANCH   5   7
BRANCH   1  22
HETATM   22  C   UNL     1       8.090  26.999  56.603  1.00  0.00    -0.005 A 
HETATM   23  C   UNL     1       8.301  25.791  57.282  1.00  0.00     0.016 A 
HETATM   24  C   UNL     1       7.900  24.569  56.726  1.00  0.00     0.037 A 
HETATM   25  C   UNL     1       7.283  24.540  55.477  1.00  0.00     0.068 A 
HETATM   26  C   UNL     1       7.100  25.734  54.779  1.00  0.00     0.037 A 
HETATM   27  C   UNL     1       7.495  26.956  55.336  1.00  0.00     0.016 A 
BRANCH  25  28
HETATM   28  O   UNL     1       6.827  23.423  54.833  1.00  0.00    -0.351 OA
BRANCH  28  29
HETATM   29  C   UNL     1       7.743  22.333  54.714  1.00  0.00     0.175 C 
BRANCH  29  30
HETATM   30  C   UNL     1       7.929  22.042  53.228  1.00  0.00     0.022 C 
HETATM   31  C   UNL     1       8.269  20.583  52.977  1.00  0.00     0.007 C 
ENDBRANCH  29  30
ENDBRANCH  28  29
ENDBRANCH  25  28
ENDBRANCH   1  22
TORSDOF 9
ENDMDL
MODEL 2
REMARK VINA RESULT:      -9.3      1.702     12.282
REMARK  9 active torsions:
REMARK  status: ('A' for Active; 'I' for Inactive)
REMARK    1  A    between atoms: C_2  and  C_3 
REMARK    2  A    between atoms: C_3  and  O_4 
REMARK    3  A    between atoms: O_4  and  C_5 
REMARK    4  A    between atoms: C_8  and  C_9 
REMARK    5  A    between atoms: C_13  and  C_14 
REMARK       I    between atoms: C_14  and  N_15 
REMARK    6  A    between atoms: N_15  and  N_16 
REMARK    7  A    between atoms: C_17  and  C_18 
REMARK    8  A    between atoms: C_21  and  O_22 
REMARK    9  A    between atoms: O_22  and  C_23 
ROOT
HETATM    1  C   UNL     1       8.231  32.080  60.793  1.00  0.00     0.089 A 
HETATM    2  N   UNL     1       9.150  32.705  60.043  1.00  0.00    -0.174 NA
HETATM    3  N   UNL     1       9.416  31.847  59.047  1.00  0.00    -0.272 N 
HETATM    4  H   UNL     1      10.092  32.108  58.336  1.00  0.00     0.189 HD
HETATM    5  C   UNL     1       8.688  30.691  59.093  1.00  0.00     0.121 A 
HETATM    6  C   UNL     1       7.925  30.804  60.238  1.00  0.00     0.071 A 
ENDROOT
BRANCH   5   7
HETATM    7  C   UNL     1       8.808  29.693  58.059  1.00  0.00     0.289 C 
HETATM    8  N   UNL     1       7.691  28.886  57.901  1.00  0.00    -0.242 N 
HETATM    9  H   UNL     1       6.879  29.015  58.490  1.00  0.00     0.192 HD
HETATM   10  O   UNL     1       9.829  29.604  57.382  1.00  0.00    -0.264 OA
BRANCH   8  11
HETATM   11  N   UNL     1       7.637  27.978  56.883  1.00  0.00    -0.184 NA
HETATM   12  C   UNL     1       7.803  26.741  57.225  1.00  0.00     0.150 C 
BRANCH  12  13
HETATM   13  C   UNL     1       7.732  25.647  56.238  1.00  0.00    -0.017 A 
HETATM   14  C   UNL     1       8.217  24.375  56.544  1.00  0.00     0.016 A 
HETATM   15  C   UNL     1       8.153  23.362  55.585  1.00  0.00     0.037 A 
HETATM   16  C   UNL     1       7.600  23.606  54.324  1.00  0.00     0.068 A 
HETATM   17  C   UNL     1       7.115  24.881  54.025  1.00  0.00     0.037 A 
HETATM   18  C   UNL     1       7.182  25.903  54.980  1.00  0.00     0.016 A 
BRANCH  16  19
HETATM   19  O   UNL     1       7.600  22.528  53.484  1.00  0.00    -0.352 OA
BRANCH  19  20
HETATM   20  C   UNL     1       8.040  21.283  54.022  1.00  0.00     0.171 C 
HETATM   21  C   UNL     1       8.372  20.363  52.860  1.00  0.00     0.034 C 
ENDBRANCH  19  20
ENDBRANCH  16  19
ENDBRANCH  12  13
ENDBRANCH   8  11
ENDBRANCH   5   7
BRANCH   1  22
HETATM   22  C   UNL     1       7.642  32.709  61.977  1.00  0.00    -0.005 A 
HETATM   23  C   UNL     1       6.502  33.516  61.858  1.00  0.00     0.016 A 
HETATM   24  C   UNL     1       5.894  34.080  62.986  1.00  0.00     0.037 A 
HETATM   25  C   UNL     1       6.421  33.846  64.254  1.00  0.00     0.068 A 
HETATM   26  C   UNL     1       7.576  33.072  64.379  1.00  0.00     0.037 A 
HETATM   27  C   UNL     1       8.181  32.503  63.253  1.00  0.00     0.016 A 
BRANCH  25  28
HETATM   28  O   UNL     1       5.916  34.317  65.434  1.00  0.00    -0.351 OA
BRANCH  28  29
HETATM   29  C   UNL     1       4.631  33.828  65.822  1.00  0.00     0.175 C 
BRANCH  29  30
HETATM   30  C   UNL     1       3.723  35.033  66.049  1.00  0.00     0.022 C 
HETATM   31  C   UNL     1       4.515  36.275  66.418  1.00  0.00     0.007 C 
ENDBRANCH  29  30
ENDBRANCH  28  29
ENDBRANCH  25  28
ENDBRANCH   1  22
TORSDOF 9
ENDMDL
MODEL 3
REMARK VINA RESULT:      -9.0      1.274     12.479
REMARK  9 active torsions:
REMARK  status: ('A' for Active; 'I' for Inactive)
REMARK    1  A    between atoms: C_2  and  C_3 
REMARK    2  A    between atoms: C_3  and  O_4 
REMARK    3  A    between atoms: O_4  and  C_5 
REMARK    4  A    between atoms: C_8  and  C_9 
REMARK    5  A    between atoms: C_13  and  C_14 
REMARK       I    between atoms: C_14  and  N_15 
REMARK    6  A    between atoms: N_15  and  N_16 
REMARK    7  A    between atoms: C_17  and  C_18 
REMARK    8  A    between atoms: C_21  and  O_22 
REMARK    9  A    between atoms: O_22  and  C_23 
ROOT
HETATM    1  C   UNL     1       7.033  32.212  61.449  1.00  0.00     0.089 A 
HETATM    2  N   UNL     1       6.432  32.628  60.324  1.00  0.00    -0.174 NA
HETATM    3  N   UNL     1       6.965  31.869  59.355  1.00  0.00    -0.272 N 
HETATM    4  H   UNL     1       6.655  32.001  58.396  1.00  0.00     0.189 HD
HETATM    5  C   UNL     1       7.873  30.949  59.798  1.00  0.00     0.121 A 
HETATM    6  C   UNL     1       7.957  31.168  61.158  1.00  0.00     0.071 A 
ENDROOT
BRANCH   5   7
HETATM    7  C   UNL     1       8.489  30.013  58.890  1.00  0.00     0.289 C 
HETATM    8  N   UNL     1       7.765  28.849  58.680  1.00  0.00    -0.242 N 
HETATM    9  H   UNL     1       6.883  28.703  59.151  1.00  0.00     0.192 HD
HETATM   10  O   UNL     1       9.564  30.268  58.352  1.00  0.00    -0.264 OA
BRANCH   8  11
HETATM   11  N   UNL     1       8.185  27.935  57.757  1.00  0.00    -0.184 NA
HETATM   12  C   UNL     1       7.381  26.944  57.543  1.00  0.00     0.150 C 
BRANCH  12  13
HETATM   13  C   UNL     1       7.684  25.899  56.546  1.00  0.00    -0.017 A 
HETATM   14  C   UNL     1       7.240  26.017  55.228  1.00  0.00     0.016 A 
HETATM   15  C   UNL     1       7.526  25.006  54.310  1.00  0.00     0.037 A 
HETATM   16  C   UNL     1       8.261  23.880  54.693  1.00  0.00     0.068 A 
HETATM   17  C   UNL     1       8.704  23.769  56.013  1.00  0.00     0.037 A 
HETATM   18  C   UNL     1       8.415  24.777  56.940  1.00  0.00     0.016 A 
BRANCH  16  19
HETATM   19  O   UNL     1       8.470  22.969  53.695  1.00  0.00    -0.352 OA
BRANCH  19  20
HETATM   20  C   UNL     1       8.778  21.633  54.086  1.00  0.00     0.171 C 
HETATM   21  C   UNL     1       8.164  20.693  53.063  1.00  0.00     0.034 C 
ENDBRANCH  19  20
ENDBRANCH  16  19
ENDBRANCH  12  13
ENDBRANCH   8  11
ENDBRANCH   5   7
BRANCH   1  22
HETATM   22  C   UNL     1       6.695  32.775  62.758  1.00  0.00    -0.005 A 
HETATM   23  C   UNL     1       5.364  33.078  63.077  1.00  0.00     0.016 A 
HETATM   24  C   UNL     1       5.016  33.564  64.343  1.00  0.00     0.037 A 
HETATM   25  C   UNL     1       6.000  33.757  65.311  1.00  0.00     0.068 A 
HETATM   26  C   UNL     1       7.332  33.491  64.991  1.00  0.00     0.037 A 
HETATM   27  C   UNL     1       7.680  32.999  63.728  1.00  0.00     0.016 A 
BRANCH  25  28
HETATM   28  O   UNL     1       5.794  34.205  66.586  1.00  0.00    -0.351 OA
BRANCH  28  29
HETATM   29  C   UNL     1       6.934  34.233  67.447  1.00  0.00     0.175 C 
BRANCH  29  30
HETATM   30  C   UNL     1       6.530  34.950  68.732  1.00  0.00     0.022 C 
HETATM   31  C   UNL     1       6.201  33.971  69.846  1.00  0.00     0.007 C 
ENDBRANCH  29  30
ENDBRANCH  28  29
ENDBRANCH  25  28
ENDBRANCH   1  22
TORSDOF 9
ENDMDL
MODEL 4
REMARK VINA RESULT:      -8.2      1.984      2.397
REMARK  9 active torsions:
REMARK  status: ('A' for Active; 'I' for Inactive)
REMARK    1  A    between atoms: C_2  and  C_3 
REMARK    2  A    between atoms: C_3  and  O_4 
REMARK    3  A    between atoms: O_4  and  C_5 
REMARK    4  A    between atoms: C_8  and  C_9 
REMARK    5  A    between atoms: C_13  and  C_14 
REMARK       I    between atoms: C_14  and  N_15 
REMARK    6  A    between atoms: N_15  and  N_16 
REMARK    7  A    between atoms: C_17  and  C_18 
REMARK    8  A    between atoms: C_21  and  O_22 
REMARK    9  A    between atoms: O_22  and  C_23 
ROOT
HETATM    1  C   UNL     1       7.386  27.589  56.379  1.00  0.00     0.089 A 
HETATM    2  N   UNL     1       7.830  28.471  55.471  1.00  0.00    -0.174 NA
HETATM    3  N   UNL     1       7.402  29.661  55.917  1.00  0.00    -0.272 N 
HETATM    4  H   UNL     1       7.625  30.498  55.387  1.00  0.00     0.189 HD
HETATM    5  C   UNL     1       6.717  29.604  57.099  1.00  0.00     0.121 A 
HETATM    6  C   UNL     1       6.668  28.260  57.410  1.00  0.00     0.071 A 
ENDROOT
BRANCH   5   7
HETATM    7  C   UNL     1       6.245  30.804  57.745  1.00  0.00     0.289 C 
HETATM    8  N   UNL     1       6.519  30.875  59.103  1.00  0.00    -0.242 N 
HETATM    9  H   UNL     1       7.007  30.120  59.567  1.00  0.00     0.192 HD
HETATM   10  O   UNL     1       5.664  31.678  57.109  1.00  0.00    -0.264 OA
BRANCH   8  11
HETATM   11  N   UNL     1       6.225  32.008  59.805  1.00  0.00    -0.184 NA
HETATM   12  C   UNL     1       6.480  31.963  61.074  1.00  0.00     0.150 C 
BRANCH  12  13
HETATM   13  C   UNL     1       6.250  33.126  61.953  1.00  0.00    -0.017 A 
HETATM   14  C   UNL     1       5.501  34.218  61.513  1.00  0.00     0.016 A 
HETATM   15  C   UNL     1       5.313  35.312  62.359  1.00  0.00     0.037 A 
HETATM   16  C   UNL     1       5.860  35.322  63.646  1.00  0.00     0.068 A 
HETATM   17  C   UNL     1       6.607  34.225  64.081  1.00  0.00     0.037 A 
HETATM   18  C   UNL     1       6.804  33.127  63.235  1.00  0.00     0.016 A 
BRANCH  16  19
HETATM   19  O   UNL     1       5.598  36.453  64.368  1.00  0.00    -0.352 OA
BRANCH  19  20
HETATM   20  C   UNL     1       4.332  36.532  65.020  1.00  0.00     0.171 C 
HETATM   21  C   UNL     1       4.527  36.120  66.468  1.00  0.00     0.034 C 
ENDBRANCH  19  20
ENDBRANCH  16  19
ENDBRANCH  12  13
ENDBRANCH   8  11
ENDBRANCH   5   7
BRANCH   1  22
HETATM   22  C   UNL     1       7.681  26.158  56.273  1.00  0.00    -0.005 A 
HETATM   23  C   UNL     1       7.159  25.404  55.213  1.00  0.00     0.016 A 
HETATM   24  C   UNL     1       7.475  24.048  55.066  1.00  0.00     0.037 A 
HETATM   25  C   UNL     1       8.319  23.424  55.983  1.00  0.00     0.068 A 
HETATM   26  C   UNL     1       8.815  24.158  57.061  1.00  0.00     0.037 A 
HETATM   27  C   UNL     1       8.505  25.515  57.206  1.00  0.00     0.016 A 
BRANCH  25  28
HETATM   28  O   UNL     1       8.722  22.118  55.944  1.00  0.00    -0.351 OA
BRANCH  28  29
HETATM   29  C   UNL     1       7.828  21.190  55.326  1.00  0.00     0.175 C 
BRANCH  29  30
HETATM   30  C   UNL     1       8.636  20.354  54.338  1.00  0.00     0.022 C 
HETATM   31  C   UNL     1       8.135  20.522  52.914  1.00  0.00     0.007 C 
ENDBRANCH  29  30
ENDBRANCH  28  29
ENDBRANCH  25  28
ENDBRANCH   1  22
TORSDOF 9
ENDMDL
MODEL 5
REMARK VINA RESULT:      -7.9      3.186     12.648
REMARK  9 active torsions:
REMARK  status: ('A' for Active; 'I' for Inactive)
REMARK    1  A    between atoms: C_2  and  C_3 
REMARK    2  A    between atoms: C_3  and  O_4 
REMARK    3  A    between atoms: O_4  and  C_5 
REMARK    4  A    between atoms: C_8  and  C_9 
REMARK    5  A    between atoms: C_13  and  C_14 
REMARK       I    between atoms: C_14  and  N_15 
REMARK    6  A    between atoms: N_15  and  N_16 
REMARK    7  A    between atoms: C_17  and  C_18 
REMARK    8  A    between atoms: C_21  and  O_22 
REMARK    9  A    between atoms: O_22  and  C_23 
ROOT
HETATM    1  C   UNL     1       3.822  32.356  59.735  1.00  0.00     0.089 A 
HETATM    2  N   UNL     1       2.943  31.346  59.815  1.00  0.00    -0.174 NA
HETATM    3  N   UNL     1       3.366  30.456  58.905  1.00  0.00    -0.272 N 
HETATM    4  H   UNL     1       2.852  29.588  58.785  1.00  0.00     0.189 HD
HETATM    5  C   UNL     1       4.506  30.824  58.247  1.00  0.00     0.121 A 
HETATM    6  C   UNL     1       4.811  32.074  58.749  1.00  0.00     0.071 A 
ENDROOT
BRANCH   5   7
HETATM    7  C   UNL     1       5.126  29.949  57.283  1.00  0.00     0.289 C 
HETATM    8  N   UNL     1       4.984  28.597  57.556  1.00  0.00    -0.242 N 
HETATM    9  H   UNL     1       4.484  28.289  58.379  1.00  0.00     0.192 HD
HETATM   10  O   UNL     1       5.713  30.401  56.304  1.00  0.00    -0.264 OA
BRANCH   8  11
HETATM   11  N   UNL     1       5.429  27.665  56.662  1.00  0.00    -0.184 NA
HETATM   12  C   UNL     1       6.352  26.867  57.096  1.00  0.00     0.150 C 
BRANCH  12  13
HETATM   13  C   UNL     1       6.901  25.786  56.255  1.00  0.00    -0.017 A 
HETATM   14  C   UNL     1       7.099  25.975  54.886  1.00  0.00     0.016 A 
HETATM   15  C   UNL     1       7.605  24.929  54.112  1.00  0.00     0.037 A 
HETATM   16  C   UNL     1       7.922  23.698  54.693  1.00  0.00     0.068 A 
HETATM   17  C   UNL     1       7.722  23.517  56.063  1.00  0.00     0.037 A 
HETATM   18  C   UNL     1       7.211  24.559  56.845  1.00  0.00     0.016 A 
BRANCH  16  19
HETATM   19  O   UNL     1       8.408  22.765  53.820  1.00  0.00    -0.352 OA
BRANCH  19  20
HETATM   20  C   UNL     1       8.157  21.394  54.125  1.00  0.00     0.171 C 
HETATM   21  C   UNL     1       8.269  20.601  52.835  1.00  0.00     0.034 C 
ENDBRANCH  19  20
ENDBRANCH  16  19
ENDBRANCH  12  13
ENDBRANCH   8  11
ENDBRANCH   5   7
BRANCH   1  22
HETATM   22  C   UNL     1       3.731  33.530  60.606  1.00  0.00    -0.005 A 
HETATM   23  C   UNL     1       2.481  34.003  61.029  1.00  0.00     0.016 A 
HETATM   24  C   UNL     1       2.378  35.089  61.906  1.00  0.00     0.037 A 
HETATM   25  C   UNL     1       3.528  35.722  62.372  1.00  0.00     0.068 A 
HETATM   26  C   UNL     1       4.776  35.280  61.929  1.00  0.00     0.037 A 
HETATM   27  C   UNL     1       4.880  34.190  61.057  1.00  0.00     0.016 A 
BRANCH  25  28
HETATM   28  O   UNL     1       3.569  36.775  63.243  1.00  0.00    -0.351 OA
BRANCH  28  29
HETATM   29  C   UNL     1       4.462  36.656  64.352  1.00  0.00     0.175 C 
BRANCH  29  30
HETATM   30  C   UNL     1       3.838  35.686  65.350  1.00  0.00     0.022 C 
HETATM   31  C   UNL     1       4.248  36.003  66.778  1.00  0.00     0.007 C 
ENDBRANCH  29  30
ENDBRANCH  28  29
ENDBRANCH  25  28
ENDBRANCH   1  22
TORSDOF 9
ENDMDL
MODEL 6
REMARK VINA RESULT:      -7.8      9.405     14.415
REMARK  9 active torsions:
REMARK  status: ('A' for Active; 'I' for Inactive)
REMARK    1  A    between atoms: C_2  and  C_3 
REMARK    2  A    between atoms: C_3  and  O_4 
REMARK    3  A    between atoms: O_4  and  C_5 
REMARK    4  A    between atoms: C_8  and  C_9 
REMARK    5  A    between atoms: C_13  and  C_14 
REMARK       I    between atoms: C_14  and  N_15 
REMARK    6  A    between atoms: N_15  and  N_16 
REMARK    7  A    between atoms: C_17  and  C_18 
REMARK    8  A    between atoms: C_21  and  O_22 
REMARK    9  A    between atoms: O_22  and  C_23 
ROOT
HETATM    1  C   UNL     1       5.713  25.786  52.553  1.00  0.00     0.089 A 
HETATM    2  N   UNL     1       4.673  26.493  53.022  1.00  0.00    -0.174 NA
HETATM    3  N   UNL     1       4.165  27.105  51.942  1.00  0.00    -0.272 N 
HETATM    4  H   UNL     1       3.352  27.704  52.049  1.00  0.00     0.189 HD
HETATM    5  C   UNL     1       4.810  26.809  50.773  1.00  0.00     0.121 A 
HETATM    6  C   UNL     1       5.842  25.971  51.146  1.00  0.00     0.071 A 
ENDROOT
BRANCH   5   7
HETATM    7  C   UNL     1       4.347  27.336  49.513  1.00  0.00     0.289 C 
HETATM    8  N   UNL     1       3.151  26.796  49.066  1.00  0.00    -0.242 N 
HETATM    9  H   UNL     1       2.674  26.087  49.606  1.00  0.00     0.192 HD
HETATM   10  O   UNL     1       4.982  28.203  48.919  1.00  0.00    -0.264 OA
BRANCH   8  11
HETATM   11  N   UNL     1       2.550  27.291  47.944  1.00  0.00    -0.184 NA
HETATM   12  C   UNL     1       1.285  27.545  48.050  1.00  0.00     0.150 C 
BRANCH  12  13
HETATM   13  C   UNL     1       0.512  28.119  46.931  1.00  0.00    -0.017 A 
HETATM   14  C   UNL     1      -0.019  27.299  45.934  1.00  0.00     0.016 A 
HETATM   15  C   UNL     1      -0.731  27.871  44.879  1.00  0.00     0.037 A 
HETATM   16  C   UNL     1      -0.926  29.254  44.814  1.00  0.00     0.068 A 
HETATM   17  C   UNL     1      -0.393  30.068  45.815  1.00  0.00     0.037 A 
HETATM   18  C   UNL     1       0.328  29.502  46.874  1.00  0.00     0.016 A 
BRANCH  16  19
HETATM   19  O   UNL     1      -1.641  29.677  43.728  1.00  0.00    -0.352 OA
BRANCH  19  20
HETATM   20  C   UNL     1      -1.802  28.755  42.653  1.00  0.00     0.171 C 
HETATM   21  C   UNL     1      -3.121  29.062  41.967  1.00  0.00     0.034 C 
ENDBRANCH  19  20
ENDBRANCH  16  19
ENDBRANCH  12  13
ENDBRANCH   8  11
ENDBRANCH   5   7
BRANCH   1  22
HETATM   22  C   UNL     1       6.524  24.934  53.425  1.00  0.00    -0.005 A 
HETATM   23  C   UNL     1       7.585  24.185  52.896  1.00  0.00     0.016 A 
HETATM   24  C   UNL     1       8.405  23.409  53.725  1.00  0.00     0.037 A 
HETATM   25  C   UNL     1       8.173  23.369  55.098  1.00  0.00     0.068 A 
HETATM   26  C   UNL     1       7.098  24.084  55.628  1.00  0.00     0.037 A 
HETATM   27  C   UNL     1       6.281  24.865  54.802  1.00  0.00     0.016 A 
BRANCH  25  28
HETATM   28  O   UNL     1       8.907  22.671  56.016  1.00  0.00    -0.351 OA
BRANCH  28  29
HETATM   29  C   UNL     1       8.289  21.517  56.587  1.00  0.00     0.175 C 
BRANCH  29  30
HETATM   30  C   UNL     1       9.080  20.293  56.135  1.00  0.00     0.022 C 
HETATM   31  C   UNL     1       8.767  19.918  54.697  1.00  0.00     0.007 C 
ENDBRANCH  29  30
ENDBRANCH  28  29
ENDBRANCH  25  28
ENDBRANCH   1  22
TORSDOF 9
ENDMDL
MODEL 7
REMARK VINA RESULT:      -7.7      2.635      3.358
REMARK  9 active torsions:
REMARK  status: ('A' for Active; 'I' for Inactive)
REMARK    1  A    between atoms: C_2  and  C_3 
REMARK    2  A    between atoms: C_3  and  O_4 
REMARK    3  A    between atoms: O_4  and  C_5 
REMARK    4  A    between atoms: C_8  and  C_9 
REMARK    5  A    between atoms: C_13  and  C_14 
REMARK       I    between atoms: C_14  and  N_15 
REMARK    6  A    between atoms: N_15  and  N_16 
REMARK    7  A    between atoms: C_17  and  C_18 
REMARK    8  A    between atoms: C_21  and  O_22 
REMARK    9  A    between atoms: O_22  and  C_23 
ROOT
HETATM    1  C   UNL     1       6.087  27.345  55.195  1.00  0.00     0.089 A 
HETATM    2  N   UNL     1       6.267  28.444  54.447  1.00  0.00    -0.174 NA
HETATM    3  N   UNL     1       5.880  29.458  55.236  1.00  0.00    -0.272 N 
HETATM    4  H   UNL     1       5.932  30.408  54.882  1.00  0.00     0.189 HD
HETATM    5  C   UNL     1       5.479  29.075  56.486  1.00  0.00     0.121 A 
HETATM    6  C   UNL     1       5.578  27.698  56.478  1.00  0.00     0.071 A 
ENDROOT
BRANCH   5   7
HETATM    7  C   UNL     1       5.094  30.050  57.476  1.00  0.00     0.289 C 
HETATM    8  N   UNL     1       6.154  30.690  58.100  1.00  0.00    -0.242 N 
HETATM    9  H   UNL     1       7.108  30.457  57.857  1.00  0.00     0.192 HD
HETATM   10  O   UNL     1       3.910  30.280  57.710  1.00  0.00    -0.264 OA
BRANCH   8  11
HETATM   11  N   UNL     1       5.922  31.712  58.974  1.00  0.00    -0.184 NA
HETATM   12  C   UNL     1       6.492  31.601  60.131  1.00  0.00     0.150 C 
BRANCH  12  13
HETATM   13  C   UNL     1       6.362  32.648  61.164  1.00  0.00    -0.017 A 
HETATM   14  C   UNL     1       7.183  32.644  62.293  1.00  0.00     0.016 A 
HETATM   15  C   UNL     1       7.027  33.636  63.262  1.00  0.00     0.037 A 
HETATM   16  C   UNL     1       6.063  34.638  63.111  1.00  0.00     0.068 A 
HETATM   17  C   UNL     1       5.246  34.636  61.979  1.00  0.00     0.037 A 
HETATM   18  C   UNL     1       5.394  33.641  61.005  1.00  0.00     0.016 A 
BRANCH  16  19
HETATM   19  O   UNL     1       6.020  35.544  64.134  1.00  0.00    -0.352 OA
BRANCH  19  20
HETATM   20  C   UNL     1       4.898  36.424  64.177  1.00  0.00     0.171 C 
HETATM   21  C   UNL     1       4.014  35.998  65.336  1.00  0.00     0.034 C 
ENDBRANCH  19  20
ENDBRANCH  16  19
ENDBRANCH  12  13
ENDBRANCH   8  11
ENDBRANCH   5   7
BRANCH   1  22
HETATM   22  C   UNL     1       6.433  26.010  54.702  1.00  0.00    -0.005 A 
HETATM   23  C   UNL     1       6.074  25.621  53.403  1.00  0.00     0.016 A 
HETATM   24  C   UNL     1       6.445  24.369  52.896  1.00  0.00     0.037 A 
HETATM   25  C   UNL     1       7.179  23.485  53.685  1.00  0.00     0.068 A 
HETATM   26  C   UNL     1       7.511  23.851  54.990  1.00  0.00     0.037 A 
HETATM   27  C   UNL     1       7.146  25.104  55.496  1.00  0.00     0.016 A 
BRANCH  25  28
HETATM   28  O   UNL     1       7.620  22.248  53.306  1.00  0.00    -0.351 OA
BRANCH  28  29
HETATM   29  C   UNL     1       8.756  21.732  54.003  1.00  0.00     0.175 C 
BRANCH  29  30
HETATM   30  C   UNL     1       8.399  20.336  54.505  1.00  0.00     0.022 C 
HETATM   31  C   UNL     1       8.094  20.333  55.993  1.00  0.00     0.007 C 
ENDBRANCH  29  30
ENDBRANCH  28  29
ENDBRANCH  25  28
ENDBRANCH   1  22
TORSDOF 9
ENDMDL
MODEL 8
REMARK VINA RESULT:      -7.6      2.699      3.213
REMARK  9 active torsions:
REMARK  status: ('A' for Active; 'I' for Inactive)
REMARK    1  A    between atoms: C_2  and  C_3 
REMARK    2  A    between atoms: C_3  and  O_4 
REMARK    3  A    between atoms: O_4  and  C_5 
REMARK    4  A    between atoms: C_8  and  C_9 
REMARK    5  A    between atoms: C_13  and  C_14 
REMARK       I    between atoms: C_14  and  N_15 
REMARK    6  A    between atoms: N_15  and  N_16 
REMARK    7  A    between atoms: C_17  and  C_18 
REMARK    8  A    between atoms: C_21  and  O_22 
REMARK    9  A    between atoms: O_22  and  C_23 
ROOT
HETATM    1  C   UNL     1       7.433  27.431  56.574  1.00  0.00     0.089 A 
HETATM    2  N   UNL     1       7.649  27.275  57.889  1.00  0.00    -0.174 NA
HETATM    3  N   UNL     1       7.347  28.467  58.425  1.00  0.00    -0.272 N 
HETATM    4  H   UNL     1       7.431  28.594  59.429  1.00  0.00     0.189 HD
HETATM    5  C   UNL     1       6.913  29.396  57.521  1.00  0.00     0.121 A 
HETATM    6  C   UNL     1       6.984  28.755  56.300  1.00  0.00     0.071 A 
ENDROOT
BRANCH   5   7
HETATM    7  C   UNL     1       6.487  30.707  57.945  1.00  0.00     0.289 C 
HETATM    8  N   UNL     1       6.931  31.079  59.205  1.00  0.00    -0.242 N 
HETATM    9  H   UNL     1       7.500  30.449  59.755  1.00  0.00     0.192 HD
HETATM   10  O   UNL     1       5.800  31.415  57.215  1.00  0.00    -0.264 OA
BRANCH   8  11
HETATM   11  N   UNL     1       6.691  32.338  59.675  1.00  0.00    -0.184 NA
HETATM   12  C   UNL     1       5.858  32.419  60.663  1.00  0.00     0.150 C 
BRANCH  12  13
HETATM   13  C   UNL     1       5.531  33.710  61.298  1.00  0.00    -0.017 A 
HETATM   14  C   UNL     1       6.210  34.137  62.440  1.00  0.00     0.016 A 
HETATM   15  C   UNL     1       5.868  35.355  63.031  1.00  0.00     0.037 A 
HETATM   16  C   UNL     1       4.859  36.155  62.486  1.00  0.00     0.068 A 
HETATM   17  C   UNL     1       4.184  35.722  61.343  1.00  0.00     0.037 A 
HETATM   18  C   UNL     1       4.519  34.499  60.748  1.00  0.00     0.016 A 
BRANCH  16  19
HETATM   19  O   UNL     1       4.628  37.320  63.164  1.00  0.00    -0.352 OA
BRANCH  19  20
HETATM   20  C   UNL     1       4.788  38.538  62.440  1.00  0.00     0.171 C 
HETATM   21  C   UNL     1       6.269  38.874  62.412  1.00  0.00     0.034 C 
ENDBRANCH  19  20
ENDBRANCH  16  19
ENDBRANCH  12  13
ENDBRANCH   8  11
ENDBRANCH   5   7
BRANCH   1  22
HETATM   22  C   UNL     1       7.615  26.329  55.626  1.00  0.00    -0.005 A 
HETATM   23  C   UNL     1       7.858  25.029  56.090  1.00  0.00     0.016 A 
HETATM   24  C   UNL     1       7.979  23.955  55.199  1.00  0.00     0.037 A 
HETATM   25  C   UNL     1       7.861  24.168  53.828  1.00  0.00     0.068 A 
HETATM   26  C   UNL     1       7.652  25.464  53.355  1.00  0.00     0.037 A 
HETATM   27  C   UNL     1       7.525  26.538  54.244  1.00  0.00     0.016 A 
BRANCH  25  28
HETATM   28  O   UNL     1       7.937  23.208  52.856  1.00  0.00    -0.351 OA
BRANCH  28  29
HETATM   29  C   UNL     1       7.471  21.904  53.206  1.00  0.00     0.175 C 
BRANCH  29  30
HETATM   30  C   UNL     1       8.672  20.963  53.197  1.00  0.00     0.022 C 
HETATM   31  C   UNL     1       8.773  20.164  54.485  1.00  0.00     0.007 C 
ENDBRANCH  29  30
ENDBRANCH  28  29
ENDBRANCH  25  28
ENDBRANCH   1  22
TORSDOF 9
ENDMDL
MODEL 9
REMARK VINA RESULT:      -7.5      9.552     13.695
REMARK  9 active torsions:
REMARK  status: ('A' for Active; 'I' for Inactive)
REMARK    1  A    between atoms: C_2  and  C_3 
REMARK    2  A    between atoms: C_3  and  O_4 
REMARK    3  A    between atoms: O_4  and  C_5 
REMARK    4  A    between atoms: C_8  and  C_9 
REMARK    5  A    between atoms: C_13  and  C_14 
REMARK       I    between atoms: C_14  and  N_15 
REMARK    6  A    between atoms: N_15  and  N_16 
REMARK    7  A    between atoms: C_17  and  C_18 
REMARK    8  A    between atoms: C_21  and  O_22 
REMARK    9  A    between atoms: O_22  and  C_23 
ROOT
HETATM    1  C   UNL     1       2.005  28.878  48.239  1.00  0.00     0.089 A 
HETATM    2  N   UNL     1       2.422  30.091  48.633  1.00  0.00    -0.174 NA
HETATM    3  N   UNL     1       3.334  29.843  49.585  1.00  0.00    -0.272 N 
HETATM    4  H   UNL     1       3.801  30.623  50.038  1.00  0.00     0.189 HD
HETATM    5  C   UNL     1       3.557  28.514  49.816  1.00  0.00     0.121 A 
HETATM    6  C   UNL     1       2.683  27.861  48.970  1.00  0.00     0.071 A 
ENDROOT
BRANCH   5   7
HETATM    7  C   UNL     1       4.554  28.080  50.764  1.00  0.00     0.289 C 
HETATM    8  N   UNL     1       4.091  27.192  51.723  1.00  0.00    -0.242 N 
HETATM    9  H   UNL     1       3.122  26.903  51.729  1.00  0.00     0.192 HD
HETATM   10  O   UNL     1       5.714  28.475  50.686  1.00  0.00    -0.264 OA
BRANCH   8  11
HETATM   11  N   UNL     1       4.961  26.621  52.607  1.00  0.00    -0.184 NA
HETATM   12  C   UNL     1       5.301  25.399  52.349  1.00  0.00     0.150 C 
BRANCH  12  13
HETATM   13  C   UNL     1       6.262  24.666  53.195  1.00  0.00    -0.017 A 
HETATM   14  C   UNL     1       7.275  23.894  52.623  1.00  0.00     0.016 A 
HETATM   15  C   UNL     1       8.160  23.197  53.448  1.00  0.00     0.037 A 
HETATM   16  C   UNL     1       8.049  23.270  54.839  1.00  0.00     0.068 A 
HETATM   17  C   UNL     1       7.033  24.045  55.405  1.00  0.00     0.037 A 
HETATM   18  C   UNL     1       6.139  24.742  54.584  1.00  0.00     0.016 A 
BRANCH  16  19
HETATM   19  O   UNL     1       8.980  22.540  55.524  1.00  0.00    -0.352 OA
BRANCH  19  20
HETATM   20  C   UNL     1       8.499  21.648  56.527  1.00  0.00     0.171 C 
HETATM   21  C   UNL     1       7.805  20.491  55.830  1.00  0.00     0.034 C 
ENDBRANCH  19  20
ENDBRANCH  16  19
ENDBRANCH  12  13
ENDBRANCH   8  11
ENDBRANCH   5   7
BRANCH   1  22
HETATM   22  C   UNL     1       1.019  28.710  47.169  1.00  0.00    -0.005 A 
HETATM   23  C   UNL     1       0.445  29.831  46.553  1.00  0.00     0.016 A 
HETATM   24  C   UNL     1      -0.457  29.689  45.491  1.00  0.00     0.037 A 
HETATM   25  C   UNL     1      -0.801  28.420  45.032  1.00  0.00     0.068 A 
HETATM   26  C   UNL     1      -0.261  27.298  45.662  1.00  0.00     0.037 A 
HETATM   27  C   UNL     1       0.645  27.438  46.719  1.00  0.00     0.016 A 
BRANCH  25  28
HETATM   28  O   UNL     1      -1.650  28.143  43.996  1.00  0.00    -0.351 OA
BRANCH  28  29
HETATM   29  C   UNL     1      -1.322  28.715  42.729  1.00  0.00     0.175 C 
BRANCH  29  30
HETATM   30  C   UNL     1      -2.607  29.268  42.121  1.00  0.00     0.022 C 
HETATM   31  C   UNL     1      -3.409  28.187  41.417  1.00  0.00     0.007 C 
ENDBRANCH  29  30
ENDBRANCH  28  29
ENDBRANCH  25  28
ENDBRANCH   1  22
TORSDOF 9
ENDMDL
MODEL 10
REMARK VINA RESULT:      -7.4      3.803      4.579
REMARK  9 active torsions:
REMARK  status: ('A' for Active; 'I' for Inactive)
REMARK    1  A    between atoms: C_2  and  C_3 
REMARK    2  A    between atoms: C_3  and  O_4 
REMARK    3  A    between atoms: O_4  and  C_5 
REMARK    4  A    between atoms: C_8  and  C_9 
REMARK    5  A    between atoms: C_13  and  C_14 
REMARK       I    between atoms: C_14  and  N_15 
REMARK    6  A    between atoms: N_15  and  N_16 
REMARK    7  A    between atoms: C_17  and  C_18 
REMARK    8  A    between atoms: C_21  and  O_22 
REMARK    9  A    between atoms: O_22  and  C_23 
ROOT
HETATM    1  C   UNL     1       5.170  26.821  54.494  1.00  0.00     0.089 A 
HETATM    2  N   UNL     1       4.326  27.296  53.565  1.00  0.00    -0.174 NA
HETATM    3  N   UNL     1       3.764  28.372  54.136  1.00  0.00    -0.272 N 
HETATM    4  H   UNL     1       3.081  28.910  53.612  1.00  0.00     0.189 HD
HETATM    5  C   UNL     1       4.224  28.644  55.395  1.00  0.00     0.121 A 
HETATM    6  C   UNL     1       5.123  27.632  55.664  1.00  0.00     0.071 A 
ENDROOT
BRANCH   5   7
HETATM    7  C   UNL     1       3.768  29.804  56.120  1.00  0.00     0.289 C 
HETATM    8  N   UNL     1       3.937  29.730  57.494  1.00  0.00    -0.242 N 
HETATM    9  H   UNL     1       4.345  28.907  57.917  1.00  0.00     0.192 HD
HETATM   10  O   UNL     1       3.286  30.769  55.532  1.00  0.00    -0.264 OA
BRANCH   8  11
HETATM   11  N   UNL     1       3.649  30.807  58.282  1.00  0.00    -0.184 NA
HETATM   12  C   UNL     1       4.669  31.497  58.683  1.00  0.00     0.150 C 
BRANCH  12  13
HETATM   13  C   UNL     1       4.509  32.709  59.509  1.00  0.00    -0.017 A 
HETATM   14  C   UNL     1       3.521  33.650  59.215  1.00  0.00     0.016 A 
HETATM   15  C   UNL     1       3.404  34.796  60.002  1.00  0.00     0.037 A 
HETATM   16  C   UNL     1       4.260  35.009  61.086  1.00  0.00     0.068 A 
HETATM   17  C   UNL     1       5.246  34.064  61.375  1.00  0.00     0.037 A 
HETATM   18  C   UNL     1       5.373  32.914  60.587  1.00  0.00     0.016 A 
BRANCH  16  19
HETATM   19  O   UNL     1       4.034  36.171  61.771  1.00  0.00    -0.352 OA
BRANCH  19  20
HETATM   20  C   UNL     1       4.865  36.435  62.899  1.00  0.00     0.171 C 
HETATM   21  C   UNL     1       3.993  36.389  64.142  1.00  0.00     0.034 C 
ENDBRANCH  19  20
ENDBRANCH  16  19
ENDBRANCH  12  13
ENDBRANCH   8  11
ENDBRANCH   5   7
BRANCH   1  22
HETATM   22  C   UNL     1       6.017  25.653  54.243  1.00  0.00    -0.005 A 
HETATM   23  C   UNL     1       6.411  24.823  55.302  1.00  0.00     0.016 A 
HETATM   24  C   UNL     1       7.174  23.672  55.073  1.00  0.00     0.037 A 
HETATM   25  C   UNL     1       7.558  23.335  53.776  1.00  0.00     0.068 A 
HETATM   26  C   UNL     1       7.199  24.173  52.720  1.00  0.00     0.037 A 
HETATM   27  C   UNL     1       6.431  25.322  52.947  1.00  0.00     0.016 A 
BRANCH  25  28
HETATM   28  O   UNL     1       8.282  22.233  53.414  1.00  0.00    -0.351 OA
BRANCH  28  29
HETATM   29  C   UNL     1       9.128  21.665  54.416  1.00  0.00     0.175 C 
BRANCH  29  30
HETATM   30  C   UNL     1       8.606  20.264  54.724  1.00  0.00     0.022 C 
HETATM   31  C   UNL     1       7.896  20.209  56.066  1.00  0.00     0.007 C 
ENDBRANCH  29  30
ENDBRANCH  28  29
ENDBRANCH  25  28
ENDBRANCH   1  22
TORSDOF 9
ENDMDL
