MODEL 1
REMARK VINA RESULT:     -10.0      0.000      0.000
REMARK  10 active torsions:
REMARK  status: ('A' for Active; 'I' for Inactive)
REMARK    1  A    between atoms: C_6  and  C_7 
REMARK    2  A    between atoms: C_7  and  O_8 
REMARK    3  A    between atoms: O_8  and  C_9 
REMARK    4  A    between atoms: C_12  and  C_13 
REMARK    5  A    between atoms: N_14  and  N_15 
REMARK       I    between atoms: N_15  and  C_16 
REMARK    6  A    between atoms: C_16  and  C_17 
REMARK    7  A    between atoms: N_20  and  C_21 
REMARK    8  A    between atoms: C_25  and  N_26 
REMARK    9  A    between atoms: C_27  and  C_28 
REMARK   10  A    between atoms: C_28  and  N_29 
ROOT
HETATM    1  C   UNL     1       3.543  32.528  60.307  1.00  0.00     0.170 C 
HETATM    2  N   UNL     1       3.018  33.657  59.754  1.00  0.00    -0.152 NA
HETATM    3  N   UNL     1       3.272  34.668  60.567  1.00  0.00     0.012 NA
HETATM    4  N   UNL     1       3.942  34.211  61.657  1.00  0.00    -0.215 N 
HETATM    5  C   UNL     1       4.250  32.866  61.455  1.00  0.00     0.096 C 
ENDROOT
BRANCH   1   6
HETATM    6  C   UNL     1       3.478  31.220  59.669  1.00  0.00     0.293 C 
HETATM    7  N   UNL     1       4.474  30.921  58.755  1.00  0.00    -0.242 N 
HETATM    8  H   UNL     1       4.395  30.025  58.288  1.00  0.00     0.192 HD
HETATM    9  O   UNL     1       2.515  30.473  59.817  1.00  0.00    -0.264 OA
BRANCH   7  10
HETATM   10  N   UNL     1       5.593  31.685  58.623  1.00  0.00    -0.184 NA
HETATM   11  C   UNL     1       6.657  31.192  58.056  1.00  0.00     0.150 C 
BRANCH  11  12
HETATM   12  C   UNL     1       6.865  29.874  57.436  1.00  0.00    -0.017 A 
HETATM   13  C   UNL     1       6.342  29.694  56.153  1.00  0.00     0.016 A 
HETATM   14  C   UNL     1       6.526  28.476  55.500  1.00  0.00     0.037 A 
HETATM   15  C   UNL     1       7.251  27.449  56.107  1.00  0.00     0.069 A 
HETATM   16  C   UNL     1       7.772  27.633  57.389  1.00  0.00     0.037 A 
HETATM   17  C   UNL     1       7.594  28.855  58.052  1.00  0.00     0.016 A 
BRANCH  15  18
HETATM   18  O   UNL     1       7.365  26.315  55.357  1.00  0.00    -0.347 OA
BRANCH  18  19
HETATM   19  C   UNL     1       6.985  25.086  55.976  1.00  0.00     0.214 C 
BRANCH  19  20
HETATM   20  C   UNL     1       7.384  23.958  55.057  1.00  0.00    -0.033 A 
HETATM   21  C   UNL     1       7.598  22.673  55.581  1.00  0.00     0.033 A 
HETATM   22  C   UNL     1       7.947  21.617  54.740  1.00  0.00     0.034 A 
HETATM   23  C   UNL     1       8.082  21.822  53.370  1.00  0.00     0.024 A 
HETATM   24 CL   UNL     1       8.205  20.050  55.403  1.00  0.00    -0.084 Cl
HETATM   25  C   UNL     1       7.872  23.095  52.839  1.00  0.00     0.002 A 
HETATM   26  C   UNL     1       7.524  24.159  53.677  1.00  0.00     0.009 A 
ENDBRANCH  19  20
ENDBRANCH  18  19
ENDBRANCH  15  18
ENDBRANCH  11  12
ENDBRANCH   7  10
ENDBRANCH   1   6
BRANCH   5  27
HETATM   27  C   UNL     1       5.111  32.011  62.297  1.00  0.00     0.296 C 
BRANCH  27  28
HETATM   28  N   UNL     1       6.532  31.801  61.786  1.00  0.00    -0.066 N 
HETATM   29  H   UNL     1       6.412  31.213  60.951  1.00  0.00     0.280 HD
HETATM   30  C   UNL     1       7.216  33.066  61.306  1.00  0.00     0.235 C 
HETATM   31  C   UNL     1       8.525  32.710  60.615  1.00  0.00     0.028 C 
HETATM   32  C   UNL     1       9.430  31.879  61.516  1.00  0.00     0.003 C 
HETATM   33  C   UNL     1       8.706  30.639  62.024  1.00  0.00     0.028 C 
HETATM   34  C   UNL     1       7.401  30.995  62.722  1.00  0.00     0.235 C 
ENDBRANCH  27  28
ENDBRANCH   5  27
BRANCH   4  35
HETATM   35  C   UNL     1       4.267  35.057  62.745  1.00  0.00     0.225 A 
HETATM   36  N   UNL     1       5.240  35.962  62.631  1.00  0.00    -0.081 NA
HETATM   37  O   UNL     1       5.276  36.577  63.883  1.00  0.00    -0.103 OA
HETATM   38  N   UNL     1       4.296  36.065  64.720  1.00  0.00    -0.083 NA
HETATM   39  C   UNL     1       3.676  35.117  64.018  1.00  0.00     0.201 A 
BRANCH  39  40
HETATM   40  N   UNL     1       2.643  34.390  64.473  1.00  0.00    -0.379 N 
HETATM   41  H   UNL     1       2.183  34.653  65.341  1.00  0.00     0.158 HD
HETATM   42  H   UNL     1       2.484  33.422  64.195  1.00  0.00     0.158 HD
ENDBRANCH  39  40
ENDBRANCH   4  35
TORSDOF 10
ENDMDL
MODEL 2
REMARK VINA RESULT:      -9.9      2.166      2.963
REMARK  10 active torsions:
REMARK  status: ('A' for Active; 'I' for Inactive)
REMARK    1  A    between atoms: C_6  and  C_7 
REMARK    2  A    between atoms: C_7  and  O_8 
REMARK    3  A    between atoms: O_8  and  C_9 
REMARK    4  A    between atoms: C_12  and  C_13 
REMARK    5  A    between atoms: N_14  and  N_15 
REMARK       I    between atoms: N_15  and  C_16 
REMARK    6  A    between atoms: C_16  and  C_17 
REMARK    7  A    between atoms: N_20  and  C_21 
REMARK    8  A    between atoms: C_25  and  N_26 
REMARK    9  A    between atoms: C_27  and  C_28 
REMARK   10  A    between atoms: C_28  and  N_29 
ROOT
HETATM    1  C   UNL     1       5.724  32.180  58.580  1.00  0.00     0.170 C 
HETATM    2  N   UNL     1       5.690  33.080  57.558  1.00  0.00    -0.152 NA
HETATM    3  N   UNL     1       4.902  34.079  57.918  1.00  0.00     0.012 NA
HETATM    4  N   UNL     1       4.405  33.835  59.159  1.00  0.00    -0.215 N 
HETATM    5  C   UNL     1       5.020  32.691  59.665  1.00  0.00     0.096 C 
ENDROOT
BRANCH   1   6
HETATM    6  C   UNL     1       6.520  30.961  58.546  1.00  0.00     0.293 C 
HETATM    7  N   UNL     1       5.891  29.816  58.087  1.00  0.00    -0.242 N 
HETATM    8  H   UNL     1       6.444  28.966  58.107  1.00  0.00     0.192 HD
HETATM    9  O   UNL     1       7.646  30.908  59.035  1.00  0.00    -0.264 OA
BRANCH   7  10
HETATM   10  N   UNL     1       4.679  29.852  57.469  1.00  0.00    -0.184 NA
HETATM   11  C   UNL     1       4.416  29.021  56.501  1.00  0.00     0.150 C 
BRANCH  11  12
HETATM   12  C   UNL     1       5.238  27.932  55.948  1.00  0.00    -0.017 A 
HETATM   13  C   UNL     1       6.032  28.243  54.842  1.00  0.00     0.016 A 
HETATM   14  C   UNL     1       6.851  27.262  54.286  1.00  0.00     0.037 A 
HETATM   15  C   UNL     1       6.903  25.983  54.843  1.00  0.00     0.069 A 
HETATM   16  C   UNL     1       6.108  25.676  55.949  1.00  0.00     0.037 A 
HETATM   17  C   UNL     1       5.283  26.657  56.515  1.00  0.00     0.016 A 
BRANCH  15  18
HETATM   18  O   UNL     1       7.752  25.123  54.209  1.00  0.00    -0.347 OA
BRANCH  18  19
HETATM   19  C   UNL     1       7.164  24.147  53.348  1.00  0.00     0.214 C 
BRANCH  19  20
HETATM   20  C   UNL     1       7.626  22.785  53.804  1.00  0.00    -0.033 A 
HETATM   21  C   UNL     1       7.809  22.533  55.174  1.00  0.00     0.033 A 
HETATM   22  C   UNL     1       8.216  21.273  55.611  1.00  0.00     0.034 A 
HETATM   23  C   UNL     1       8.442  20.248  54.696  1.00  0.00     0.024 A 
HETATM   24 CL   UNL     1       8.435  20.985  57.293  1.00  0.00    -0.084 Cl
HETATM   25  C   UNL     1       8.263  20.488  53.333  1.00  0.00     0.002 A 
HETATM   26  C   UNL     1       7.857  21.750  52.888  1.00  0.00     0.009 A 
ENDBRANCH  19  20
ENDBRANCH  18  19
ENDBRANCH  15  18
ENDBRANCH  11  12
ENDBRANCH   7  10
ENDBRANCH   1   6
BRANCH   5  27
HETATM   27  C   UNL     1       4.912  32.152  61.035  1.00  0.00     0.296 C 
BRANCH  27  28
HETATM   28  N   UNL     1       5.894  32.727  62.049  1.00  0.00    -0.066 N 
HETATM   29  H   UNL     1       6.253  33.577  61.595  1.00  0.00     0.280 HD
HETATM   30  C   UNL     1       5.255  33.189  63.344  1.00  0.00     0.235 C 
HETATM   31  C   UNL     1       6.278  33.945  64.180  1.00  0.00     0.028 C 
HETATM   32  C   UNL     1       7.529  33.112  64.428  1.00  0.00     0.003 C 
HETATM   33  C   UNL     1       8.127  32.620  63.116  1.00  0.00     0.028 C 
HETATM   34  C   UNL     1       7.106  31.857  62.283  1.00  0.00     0.235 C 
ENDBRANCH  27  28
ENDBRANCH   5  27
BRANCH   4  35
HETATM   35  C   UNL     1       3.455  34.692  59.765  1.00  0.00     0.225 A 
HETATM   36  N   UNL     1       2.158  34.581  59.472  1.00  0.00    -0.081 NA
HETATM   37  O   UNL     1       1.553  35.582  60.233  1.00  0.00    -0.103 OA
HETATM   38  N   UNL     1       2.488  36.253  61.008  1.00  0.00    -0.083 NA
HETATM   39  C   UNL     1       3.667  35.709  60.711  1.00  0.00     0.201 A 
BRANCH  39  40
HETATM   40  N   UNL     1       4.832  36.072  61.271  1.00  0.00    -0.379 N 
HETATM   41  H   UNL     1       5.607  36.364  60.681  1.00  0.00     0.158 HD
HETATM   42  H   UNL     1       5.110  35.779  62.207  1.00  0.00     0.158 HD
ENDBRANCH  39  40
ENDBRANCH   4  35
TORSDOF 10
ENDMDL
MODEL 3
REMARK VINA RESULT:      -9.7      1.145      1.574
REMARK  10 active torsions:
REMARK  status: ('A' for Active; 'I' for Inactive)
REMARK    1  A    between atoms: C_6  and  C_7 
REMARK    2  A    between atoms: C_7  and  O_8 
REMARK    3  A    between atoms: O_8  and  C_9 
REMARK    4  A    between atoms: C_12  and  C_13 
REMARK    5  A    between atoms: N_14  and  N_15 
REMARK       I    between atoms: N_15  and  C_16 
REMARK    6  A    between atoms: C_16  and  C_17 
REMARK    7  A    between atoms: N_20  and  C_21 
REMARK    8  A    between atoms: C_25  and  N_26 
REMARK    9  A    between atoms: C_27  and  C_28 
REMARK   10  A    between atoms: C_28  and  N_29 
ROOT
HETATM    1  C   UNL     1       3.554  32.504  60.352  1.00  0.00     0.170 C 
HETATM    2  N   UNL     1       3.034  33.637  59.802  1.00  0.00    -0.152 NA
HETATM    3  N   UNL     1       3.388  34.661  60.560  1.00  0.00     0.012 NA
HETATM    4  N   UNL     1       4.119  34.209  61.613  1.00  0.00    -0.215 N 
HETATM    5  C   UNL     1       4.358  32.848  61.434  1.00  0.00     0.096 C 
ENDROOT
BRANCH   1   6
HETATM    6  C   UNL     1       3.391  31.182  59.765  1.00  0.00     0.293 C 
HETATM    7  N   UNL     1       4.033  30.949  58.560  1.00  0.00    -0.242 N 
HETATM    8  H   UNL     1       3.879  30.039  58.142  1.00  0.00     0.192 HD
HETATM    9  O   UNL     1       2.608  30.358  60.230  1.00  0.00    -0.264 OA
BRANCH   7  10
HETATM   10  N   UNL     1       4.966  31.804  58.057  1.00  0.00    -0.184 NA
HETATM   11  C   UNL     1       6.051  31.337  57.511  1.00  0.00     0.150 C 
BRANCH  11  12
HETATM   12  C   UNL     1       6.458  29.942  57.272  1.00  0.00    -0.017 A 
HETATM   13  C   UNL     1       7.426  29.416  58.130  1.00  0.00     0.016 A 
HETATM   14  C   UNL     1       7.837  28.093  57.973  1.00  0.00     0.037 A 
HETATM   15  C   UNL     1       7.271  27.287  56.983  1.00  0.00     0.069 A 
HETATM   16  C   UNL     1       6.303  27.818  56.128  1.00  0.00     0.037 A 
HETATM   17  C   UNL     1       5.883  29.145  56.280  1.00  0.00     0.016 A 
BRANCH  15  18
HETATM   18  O   UNL     1       7.754  26.012  56.944  1.00  0.00    -0.347 OA
BRANCH  18  19
HETATM   19  C   UNL     1       6.798  24.960  56.809  1.00  0.00     0.214 C 
BRANCH  19  20
HETATM   20  C   UNL     1       7.167  24.149  55.592  1.00  0.00    -0.033 A 
HETATM   21  C   UNL     1       7.267  24.777  54.339  1.00  0.00     0.033 A 
HETATM   22  C   UNL     1       7.627  24.044  53.209  1.00  0.00     0.034 A 
HETATM   23  C   UNL     1       7.898  22.683  53.308  1.00  0.00     0.024 A 
HETATM   24 CL   UNL     1       7.743  24.833  51.684  1.00  0.00    -0.084 Cl
HETATM   25  C   UNL     1       7.802  22.049  54.548  1.00  0.00     0.002 A 
HETATM   26  C   UNL     1       7.439  22.777  55.685  1.00  0.00     0.009 A 
ENDBRANCH  19  20
ENDBRANCH  18  19
ENDBRANCH  15  18
ENDBRANCH  11  12
ENDBRANCH   7  10
ENDBRANCH   1   6
BRANCH   5  27
HETATM   27  C   UNL     1       5.245  31.983  62.239  1.00  0.00     0.296 C 
BRANCH  27  28
HETATM   28  N   UNL     1       6.625  31.723  61.647  1.00  0.00    -0.066 N 
HETATM   29  H   UNL     1       6.471  30.953  60.983  1.00  0.00     0.280 HD
HETATM   30  C   UNL     1       7.179  32.871  60.827  1.00  0.00     0.235 C 
HETATM   31  C   UNL     1       8.442  32.424  60.105  1.00  0.00     0.028 C 
HETATM   32  C   UNL     1       9.477  31.865  61.074  1.00  0.00     0.003 C 
HETATM   33  C   UNL     1       8.884  30.745  61.919  1.00  0.00     0.028 C 
HETATM   34  C   UNL     1       7.625  31.194  62.647  1.00  0.00     0.235 C 
ENDBRANCH  27  28
ENDBRANCH   5  27
BRANCH   4  35
HETATM   35  C   UNL     1       4.557  35.074  62.645  1.00  0.00     0.225 A 
HETATM   36  N   UNL     1       5.643  35.831  62.478  1.00  0.00    -0.081 NA
HETATM   37  O   UNL     1       5.764  36.517  63.688  1.00  0.00    -0.103 OA
HETATM   38  N   UNL     1       4.726  36.196  64.550  1.00  0.00    -0.083 NA
HETATM   39  C   UNL     1       3.983  35.295  63.908  1.00  0.00     0.201 A 
BRANCH  39  40
HETATM   40  N   UNL     1       2.863  34.745  64.403  1.00  0.00    -0.379 N 
HETATM   41  H   UNL     1       2.763  34.618  65.407  1.00  0.00     0.158 HD
HETATM   42  H   UNL     1       2.244  34.156  63.846  1.00  0.00     0.158 HD
ENDBRANCH  39  40
ENDBRANCH   4  35
TORSDOF 10
ENDMDL
MODEL 4
REMARK VINA RESULT:      -9.6      5.381     11.195
REMARK  10 active torsions:
REMARK  status: ('A' for Active; 'I' for Inactive)
REMARK    1  A    between atoms: C_6  and  C_7 
REMARK    2  A    between atoms: C_7  and  O_8 
REMARK    3  A    between atoms: O_8  and  C_9 
REMARK    4  A    between atoms: C_12  and  C_13 
REMARK    5  A    between atoms: N_14  and  N_15 
REMARK       I    between atoms: N_15  and  C_16 
REMARK    6  A    between atoms: C_16  and  C_17 
REMARK    7  A    between atoms: N_20  and  C_21 
REMARK    8  A    between atoms: C_25  and  N_26 
REMARK    9  A    between atoms: C_27  and  C_28 
REMARK   10  A    between atoms: C_28  and  N_29 
ROOT
HETATM    1  C   UNL     1       6.606  27.154  55.954  1.00  0.00     0.170 C 
HETATM    2  N   UNL     1       5.376  27.736  56.006  1.00  0.00    -0.152 NA
HETATM    3  N   UNL     1       4.849  27.691  54.794  1.00  0.00     0.012 NA
HETATM    4  N   UNL     1       5.729  27.102  53.943  1.00  0.00    -0.215 N 
HETATM    5  C   UNL     1       6.809  26.624  54.684  1.00  0.00     0.096 C 
ENDROOT
BRANCH   1   6
HETATM    6  C   UNL     1       7.468  26.998  57.117  1.00  0.00     0.293 C 
HETATM    7  N   UNL     1       8.665  27.694  57.106  1.00  0.00    -0.242 N 
HETATM    8  H   UNL     1       9.274  27.545  57.903  1.00  0.00     0.192 HD
HETATM    9  O   UNL     1       7.223  26.181  58.001  1.00  0.00    -0.264 OA
BRANCH   7  10
HETATM   10  N   UNL     1       8.933  28.663  56.188  1.00  0.00    -0.184 NA
HETATM   11  C   UNL     1       8.943  29.915  56.545  1.00  0.00     0.150 C 
BRANCH  11  12
HETATM   12  C   UNL     1       8.754  30.514  57.877  1.00  0.00    -0.017 A 
HETATM   13  C   UNL     1       9.882  31.078  58.476  1.00  0.00     0.016 A 
HETATM   14  C   UNL     1       9.765  31.683  59.727  1.00  0.00     0.037 A 
HETATM   15  C   UNL     1       8.527  31.752  60.368  1.00  0.00     0.069 A 
HETATM   16  C   UNL     1       7.402  31.186  59.765  1.00  0.00     0.037 A 
HETATM   17  C   UNL     1       7.510  30.579  58.507  1.00  0.00     0.016 A 
BRANCH  15  18
HETATM   18  O   UNL     1       8.550  32.378  61.580  1.00  0.00    -0.347 OA
BRANCH  18  19
HETATM   19  C   UNL     1       8.040  31.649  62.698  1.00  0.00     0.214 C 
BRANCH  19  20
HETATM   20  C   UNL     1       7.125  32.564  63.472  1.00  0.00    -0.033 A 
HETATM   21  C   UNL     1       5.807  32.768  63.032  1.00  0.00     0.033 A 
HETATM   22  C   UNL     1       4.943  33.595  63.749  1.00  0.00     0.034 A 
HETATM   23  C   UNL     1       5.374  34.225  64.913  1.00  0.00     0.024 A 
HETATM   24 CL   UNL     1       3.332  33.832  63.192  1.00  0.00    -0.084 Cl
HETATM   25  C   UNL     1       6.682  34.029  65.360  1.00  0.00     0.002 A 
HETATM   26  C   UNL     1       7.554  33.203  64.644  1.00  0.00     0.009 A 
ENDBRANCH  19  20
ENDBRANCH  18  19
ENDBRANCH  15  18
ENDBRANCH  11  12
ENDBRANCH   7  10
ENDBRANCH   1   6
BRANCH   5  27
HETATM   27  C   UNL     1       7.916  25.774  54.202  1.00  0.00     0.296 C 
BRANCH  27  28
HETATM   28  N   UNL     1       7.661  24.271  54.246  1.00  0.00    -0.066 N 
HETATM   29  H   UNL     1       6.635  24.193  54.257  1.00  0.00     0.280 HD
HETATM   30  C   UNL     1       8.119  23.524  53.009  1.00  0.00     0.235 C 
HETATM   31  C   UNL     1       7.616  22.089  53.062  1.00  0.00     0.028 C 
HETATM   32  C   UNL     1       8.046  21.387  54.344  1.00  0.00     0.003 C 
HETATM   33  C   UNL     1       7.616  22.180  55.571  1.00  0.00     0.028 C 
HETATM   34  C   UNL     1       8.125  23.613  55.523  1.00  0.00     0.235 C 
ENDBRANCH  27  28
ENDBRANCH   5  27
BRANCH   4  35
HETATM   35  C   UNL     1       5.472  27.000  52.554  1.00  0.00     0.225 A 
HETATM   36  N   UNL     1       5.719  28.030  51.743  1.00  0.00    -0.081 NA
HETATM   37  O   UNL     1       5.333  27.567  50.484  1.00  0.00    -0.103 OA
HETATM   38  N   UNL     1       4.899  26.252  50.547  1.00  0.00    -0.083 NA
HETATM   39  C   UNL     1       4.977  25.902  51.831  1.00  0.00     0.201 A 
BRANCH  39  40
HETATM   40  N   UNL     1       4.661  24.687  52.306  1.00  0.00    -0.379 N 
HETATM   41  H   UNL     1       3.996  24.104  51.803  1.00  0.00     0.158 HD
HETATM   42  H   UNL     1       4.785  24.427  53.284  1.00  0.00     0.158 HD
ENDBRANCH  39  40
ENDBRANCH   4  35
TORSDOF 10
ENDMDL
MODEL 5
REMARK VINA RESULT:      -9.4      2.042      2.640
REMARK  10 active torsions:
REMARK  status: ('A' for Active; 'I' for Inactive)
REMARK    1  A    between atoms: C_6  and  C_7 
REMARK    2  A    between atoms: C_7  and  O_8 
REMARK    3  A    between atoms: O_8  and  C_9 
REMARK    4  A    between atoms: C_12  and  C_13 
REMARK    5  A    between atoms: N_14  and  N_15 
REMARK       I    between atoms: N_15  and  C_16 
REMARK    6  A    between atoms: C_16  and  C_17 
REMARK    7  A    between atoms: N_20  and  C_21 
REMARK    8  A    between atoms: C_25  and  N_26 
REMARK    9  A    between atoms: C_27  and  C_28 
REMARK   10  A    between atoms: C_28  and  N_29 
ROOT
HETATM    1  C   UNL     1       4.542  34.062  58.331  1.00  0.00     0.170 C 
HETATM    2  N   UNL     1       3.983  35.241  58.722  1.00  0.00    -0.152 NA
HETATM    3  N   UNL     1       4.002  35.285  60.043  1.00  0.00     0.012 NA
HETATM    4  N   UNL     1       4.550  34.139  60.524  1.00  0.00    -0.215 N 
HETATM    5  C   UNL     1       5.030  33.393  59.448  1.00  0.00     0.096 C 
ENDROOT
BRANCH   1   6
HETATM    6  C   UNL     1       4.717  33.683  56.936  1.00  0.00     0.293 C 
HETATM    7  N   UNL     1       4.150  32.484  56.538  1.00  0.00    -0.242 N 
HETATM    8  H   UNL     1       4.313  32.212  55.575  1.00  0.00     0.192 HD
HETATM    9  O   UNL     1       5.451  34.313  56.179  1.00  0.00    -0.264 OA
BRANCH   7  10
HETATM   10  N   UNL     1       3.270  31.801  57.321  1.00  0.00    -0.184 NA
HETATM   11  C   UNL     1       3.271  30.499  57.321  1.00  0.00     0.150 C 
BRANCH  11  12
HETATM   12  C   UNL     1       4.156  29.560  56.613  1.00  0.00    -0.017 A 
HETATM   13  C   UNL     1       5.254  29.074  57.326  1.00  0.00     0.016 A 
HETATM   14  C   UNL     1       6.118  28.162  56.720  1.00  0.00     0.037 A 
HETATM   15  C   UNL     1       5.878  27.714  55.420  1.00  0.00     0.069 A 
HETATM   16  C   UNL     1       4.779  28.203  54.711  1.00  0.00     0.037 A 
HETATM   17  C   UNL     1       3.905  29.117  55.313  1.00  0.00     0.016 A 
BRANCH  15  18
HETATM   18  O   UNL     1       6.793  26.817  54.952  1.00  0.00    -0.347 OA
BRANCH  18  19
HETATM   19  C   UNL     1       6.287  25.695  54.226  1.00  0.00     0.214 C 
BRANCH  19  20
HETATM   20  C   UNL     1       7.097  24.484  54.618  1.00  0.00    -0.033 A 
HETATM   21  C   UNL     1       7.219  23.407  53.724  1.00  0.00     0.033 A 
HETATM   22  C   UNL     1       7.982  22.290  54.064  1.00  0.00     0.034 A 
HETATM   23  C   UNL     1       8.635  22.231  55.292  1.00  0.00     0.024 A 
HETATM   24 CL   UNL     1       8.118  20.982  52.955  1.00  0.00    -0.084 Cl
HETATM   25  C   UNL     1       8.520  23.295  56.187  1.00  0.00     0.002 A 
HETATM   26  C   UNL     1       7.756  24.416  55.853  1.00  0.00     0.009 A 
ENDBRANCH  19  20
ENDBRANCH  18  19
ENDBRANCH  15  18
ENDBRANCH  11  12
ENDBRANCH   7  10
ENDBRANCH   1   6
BRANCH   5  27
HETATM   27  C   UNL     1       5.846  32.164  59.508  1.00  0.00     0.296 C 
BRANCH  27  28
HETATM   28  N   UNL     1       7.180  32.292  60.234  1.00  0.00    -0.066 N 
HETATM   29  H   UNL     1       7.299  33.306  60.360  1.00  0.00     0.280 HD
HETATM   30  C   UNL     1       7.191  31.698  61.628  1.00  0.00     0.235 C 
HETATM   31  C   UNL     1       8.482  32.080  62.338  1.00  0.00     0.028 C 
HETATM   32  C   UNL     1       9.710  31.670  61.534  1.00  0.00     0.003 C 
HETATM   33  C   UNL     1       9.653  32.239  60.123  1.00  0.00     0.028 C 
HETATM   34  C   UNL     1       8.365  31.851  59.410  1.00  0.00     0.235 C 
ENDBRANCH  27  28
ENDBRANCH   5  27
BRANCH   4  35
HETATM   35  C   UNL     1       4.615  33.865  61.912  1.00  0.00     0.225 A 
HETATM   36  N   UNL     1       5.346  34.635  62.719  1.00  0.00    -0.081 NA
HETATM   37  O   UNL     1       5.180  34.056  63.978  1.00  0.00    -0.103 OA
HETATM   38  N   UNL     1       4.316  32.972  63.919  1.00  0.00    -0.083 NA
HETATM   39  C   UNL     1       3.973  32.847  62.637  1.00  0.00     0.201 A 
BRANCH  39  40
HETATM   40  N   UNL     1       3.127  31.918  62.166  1.00  0.00    -0.379 N 
HETATM   41  H   UNL     1       2.634  31.308  62.813  1.00  0.00     0.158 HD
HETATM   42  H   UNL     1       3.175  31.560  61.213  1.00  0.00     0.158 HD
ENDBRANCH  39  40
ENDBRANCH   4  35
TORSDOF 10
ENDMDL
MODEL 6
REMARK VINA RESULT:      -9.3      1.826      2.358
REMARK  10 active torsions:
REMARK  status: ('A' for Active; 'I' for Inactive)
REMARK    1  A    between atoms: C_6  and  C_7 
REMARK    2  A    between atoms: C_7  and  O_8 
REMARK    3  A    between atoms: O_8  and  C_9 
REMARK    4  A    between atoms: C_12  and  C_13 
REMARK    5  A    between atoms: N_14  and  N_15 
REMARK       I    between atoms: N_15  and  C_16 
REMARK    6  A    between atoms: C_16  and  C_17 
REMARK    7  A    between atoms: N_20  and  C_21 
REMARK    8  A    between atoms: C_25  and  N_26 
REMARK    9  A    between atoms: C_27  and  C_28 
REMARK   10  A    between atoms: C_28  and  N_29 
ROOT
HETATM    1  C   UNL     1       3.985  33.460  59.460  1.00  0.00     0.170 C 
HETATM    2  N   UNL     1       2.661  33.553  59.765  1.00  0.00    -0.152 NA
HETATM    3  N   UNL     1       2.550  33.669  61.078  1.00  0.00     0.012 NA
HETATM    4  N   UNL     1       3.787  33.634  61.638  1.00  0.00    -0.215 N 
HETATM    5  C   UNL     1       4.736  33.638  60.617  1.00  0.00     0.096 C 
ENDROOT
BRANCH   1   6
HETATM    6  C   UNL     1       4.486  33.350  58.097  1.00  0.00     0.293 C 
HETATM    7  N   UNL     1       4.208  32.173  57.422  1.00  0.00    -0.242 N 
HETATM    8  H   UNL     1       4.597  32.093  56.489  1.00  0.00     0.192 HD
HETATM    9  O   UNL     1       5.241  34.189  57.614  1.00  0.00    -0.264 OA
BRANCH   7  10
HETATM   10  N   UNL     1       3.315  31.260  57.892  1.00  0.00    -0.184 NA
HETATM   11  C   UNL     1       3.413  30.011  57.538  1.00  0.00     0.150 C 
BRANCH  11  12
HETATM   12  C   UNL     1       4.425  29.348  56.700  1.00  0.00    -0.017 A 
HETATM   13  C   UNL     1       5.550  28.843  57.356  1.00  0.00     0.016 A 
HETATM   14  C   UNL     1       6.535  28.183  56.622  1.00  0.00     0.037 A 
HETATM   15  C   UNL     1       6.391  28.000  55.246  1.00  0.00     0.069 A 
HETATM   16  C   UNL     1       5.264  28.506  54.594  1.00  0.00     0.037 A 
HETATM   17  C   UNL     1       4.269  29.169  55.324  1.00  0.00     0.016 A 
BRANCH  15  18
HETATM   18  O   UNL     1       7.420  27.329  54.652  1.00  0.00    -0.347 OA
BRANCH  18  19
HETATM   19  C   UNL     1       7.074  26.321  53.701  1.00  0.00     0.214 C 
BRANCH  19  20
HETATM   20  C   UNL     1       7.467  24.983  54.278  1.00  0.00    -0.033 A 
HETATM   21  C   UNL     1       7.528  23.855  53.443  1.00  0.00     0.033 A 
HETATM   22  C   UNL     1       7.910  22.616  53.958  1.00  0.00     0.034 A 
HETATM   23  C   UNL     1       8.240  22.484  55.303  1.00  0.00     0.024 A 
HETATM   24 CL   UNL     1       7.978  21.247  52.919  1.00  0.00    -0.084 Cl
HETATM   25  C   UNL     1       8.182  23.599  56.141  1.00  0.00     0.002 A 
HETATM   26  C   UNL     1       7.798  24.843  55.632  1.00  0.00     0.009 A 
ENDBRANCH  19  20
ENDBRANCH  18  19
ENDBRANCH  15  18
ENDBRANCH  11  12
ENDBRANCH   7  10
ENDBRANCH   1   6
BRANCH   5  27
HETATM   27  C   UNL     1       6.199  33.773  60.759  1.00  0.00     0.296 C 
BRANCH  27  28
HETATM   28  N   UNL     1       6.967  32.470  60.947  1.00  0.00    -0.066 N 
HETATM   29  H   UNL     1       6.233  31.771  61.122  1.00  0.00     0.280 HD
HETATM   30  C   UNL     1       7.704  31.995  59.710  1.00  0.00     0.235 C 
HETATM   31  C   UNL     1       8.239  30.589  59.940  1.00  0.00     0.028 C 
HETATM   32  C   UNL     1       9.112  30.516  61.187  1.00  0.00     0.003 C 
HETATM   33  C   UNL     1       8.367  31.041  62.407  1.00  0.00     0.028 C 
HETATM   34  C   UNL     1       7.838  32.451  62.180  1.00  0.00     0.235 C 
ENDBRANCH  27  28
ENDBRANCH   5  27
BRANCH   4  35
HETATM   35  C   UNL     1       3.973  33.644  63.042  1.00  0.00     0.225 A 
HETATM   36  N   UNL     1       4.516  32.595  63.660  1.00  0.00    -0.081 NA
HETATM   37  O   UNL     1       4.518  32.961  65.007  1.00  0.00    -0.103 OA
HETATM   38  N   UNL     1       4.017  34.243  65.177  1.00  0.00    -0.083 NA
HETATM   39  C   UNL     1       3.670  34.663  63.961  1.00  0.00     0.201 A 
BRANCH  39  40
HETATM   40  N   UNL     1       3.156  35.875  63.696  1.00  0.00    -0.379 N 
HETATM   41  H   UNL     1       3.775  36.643  63.445  1.00  0.00     0.158 HD
HETATM   42  H   UNL     1       2.241  36.173  64.031  1.00  0.00     0.158 HD
ENDBRANCH  39  40
ENDBRANCH   4  35
TORSDOF 10
ENDMDL
MODEL 7
REMARK VINA RESULT:      -9.3      2.382      3.589
REMARK  10 active torsions:
REMARK  status: ('A' for Active; 'I' for Inactive)
REMARK    1  A    between atoms: C_6  and  C_7 
REMARK    2  A    between atoms: C_7  and  O_8 
REMARK    3  A    between atoms: O_8  and  C_9 
REMARK    4  A    between atoms: C_12  and  C_13 
REMARK    5  A    between atoms: N_14  and  N_15 
REMARK       I    between atoms: N_15  and  C_16 
REMARK    6  A    between atoms: C_16  and  C_17 
REMARK    7  A    between atoms: N_20  and  C_21 
REMARK    8  A    between atoms: C_25  and  N_26 
REMARK    9  A    between atoms: C_27  and  C_28 
REMARK   10  A    between atoms: C_28  and  N_29 
ROOT
HETATM    1  C   UNL     1       4.810  33.881  61.757  1.00  0.00     0.170 C 
HETATM    2  N   UNL     1       4.274  34.724  60.831  1.00  0.00    -0.152 NA
HETATM    3  N   UNL     1       4.527  35.965  61.210  1.00  0.00     0.012 NA
HETATM    4  N   UNL     1       5.208  35.945  62.386  1.00  0.00    -0.215 N 
HETATM    5  C   UNL     1       5.523  34.622  62.693  1.00  0.00     0.096 C 
ENDROOT
BRANCH   1   6
HETATM    6  C   UNL     1       4.749  32.430  61.648  1.00  0.00     0.293 C 
HETATM    7  N   UNL     1       5.458  31.851  60.609  1.00  0.00    -0.242 N 
HETATM    8  H   UNL     1       5.375  30.845  60.520  1.00  0.00     0.192 HD
HETATM    9  O   UNL     1       3.994  31.758  62.345  1.00  0.00    -0.264 OA
BRANCH   7  10
HETATM   10  N   UNL     1       6.363  32.549  59.868  1.00  0.00    -0.184 NA
HETATM   11  C   UNL     1       7.001  31.964  58.897  1.00  0.00     0.150 C 
BRANCH  11  12
HETATM   12  C   UNL     1       6.872  30.591  58.380  1.00  0.00    -0.017 A 
HETATM   13  C   UNL     1       5.716  30.301  57.651  1.00  0.00     0.016 A 
HETATM   14  C   UNL     1       5.545  29.026  57.114  1.00  0.00     0.037 A 
HETATM   15  C   UNL     1       6.529  28.050  57.277  1.00  0.00     0.069 A 
HETATM   16  C   UNL     1       7.683  28.345  58.006  1.00  0.00     0.037 A 
HETATM   17  C   UNL     1       7.865  29.624  58.547  1.00  0.00     0.016 A 
BRANCH  15  18
HETATM   18  O   UNL     1       6.241  26.850  56.693  1.00  0.00    -0.347 OA
BRANCH  18  19
HETATM   19  C   UNL     1       7.228  25.823  56.800  1.00  0.00     0.214 C 
BRANCH  19  20
HETATM   20  C   UNL     1       7.192  25.010  55.530  1.00  0.00    -0.033 A 
HETATM   21  C   UNL     1       6.159  25.214  54.600  1.00  0.00     0.033 A 
HETATM   22  C   UNL     1       6.125  24.484  53.412  1.00  0.00     0.034 A 
HETATM   23  C   UNL     1       7.116  23.548  53.132  1.00  0.00     0.024 A 
HETATM   24 CL   UNL     1       4.851  24.749  52.286  1.00  0.00    -0.084 Cl
HETATM   25  C   UNL     1       8.147  23.337  54.049  1.00  0.00     0.002 A 
HETATM   26  C   UNL     1       8.186  24.064  55.242  1.00  0.00     0.009 A 
ENDBRANCH  19  20
ENDBRANCH  18  19
ENDBRANCH  15  18
ENDBRANCH  11  12
ENDBRANCH   7  10
ENDBRANCH   1   6
BRANCH   5  27
HETATM   27  C   UNL     1       6.396  34.142  63.783  1.00  0.00     0.296 C 
BRANCH  27  28
HETATM   28  N   UNL     1       5.892  34.409  65.197  1.00  0.00    -0.066 N 
HETATM   29  H   UNL     1       5.884  35.435  65.269  1.00  0.00     0.280 HD
HETATM   30  C   UNL     1       4.463  33.967  65.444  1.00  0.00     0.235 C 
HETATM   31  C   UNL     1       3.993  34.482  66.797  1.00  0.00     0.028 C 
HETATM   32  C   UNL     1       4.927  34.048  67.920  1.00  0.00     0.003 C 
HETATM   33  C   UNL     1       6.363  34.462  67.627  1.00  0.00     0.028 C 
HETATM   34  C   UNL     1       6.836  33.940  66.277  1.00  0.00     0.235 C 
ENDBRANCH  27  28
ENDBRANCH   5  27
BRANCH   4  35
HETATM   35  C   UNL     1       5.535  37.134  63.081  1.00  0.00     0.225 A 
HETATM   36  N   UNL     1       5.145  37.309  64.344  1.00  0.00    -0.081 NA
HETATM   37  O   UNL     1       5.628  38.576  64.674  1.00  0.00    -0.103 OA
HETATM   38  N   UNL     1       6.338  39.130  63.620  1.00  0.00    -0.083 NA
HETATM   39  C   UNL     1       6.274  38.241  62.629  1.00  0.00     0.201 A 
BRANCH  39  40
HETATM   40  N   UNL     1       6.860  38.397  61.431  1.00  0.00    -0.379 N 
HETATM   41  H   UNL     1       6.802  37.654  60.739  1.00  0.00     0.158 HD
HETATM   42  H   UNL     1       7.621  39.056  61.270  1.00  0.00     0.158 HD
ENDBRANCH  39  40
ENDBRANCH   4  35
TORSDOF 10
ENDMDL
MODEL 8
REMARK VINA RESULT:      -9.2      2.354      3.848
REMARK  10 active torsions:
REMARK  status: ('A' for Active; 'I' for Inactive)
REMARK    1  A    between atoms: C_6  and  C_7 
REMARK    2  A    between atoms: C_7  and  O_8 
REMARK    3  A    between atoms: O_8  and  C_9 
REMARK    4  A    between atoms: C_12  and  C_13 
REMARK    5  A    between atoms: N_14  and  N_15 
REMARK       I    between atoms: N_15  and  C_16 
REMARK    6  A    between atoms: C_16  and  C_17 
REMARK    7  A    between atoms: N_20  and  C_21 
REMARK    8  A    between atoms: C_25  and  N_26 
REMARK    9  A    between atoms: C_27  and  C_28 
REMARK   10  A    between atoms: C_28  and  N_29 
ROOT
HETATM    1  C   UNL     1       5.296  32.593  61.482  1.00  0.00     0.170 C 
HETATM    2  N   UNL     1       4.937  31.456  62.140  1.00  0.00    -0.152 NA
HETATM    3  N   UNL     1       4.771  31.756  63.417  1.00  0.00     0.012 NA
HETATM    4  N   UNL     1       5.037  33.075  63.607  1.00  0.00    -0.215 N 
HETATM    5  C   UNL     1       5.244  33.668  62.363  1.00  0.00     0.096 C 
ENDROOT
BRANCH   1   6
HETATM    6  C   UNL     1       5.533  32.647  60.046  1.00  0.00     0.293 C 
HETATM    7  N   UNL     1       6.776  32.227  59.602  1.00  0.00    -0.242 N 
HETATM    8  H   UNL     1       6.943  32.307  58.606  1.00  0.00     0.192 HD
HETATM    9  O   UNL     1       4.735  33.172  59.276  1.00  0.00    -0.264 OA
BRANCH   7  10
HETATM   10  N   UNL     1       7.653  31.570  60.410  1.00  0.00    -0.184 NA
HETATM   11  C   UNL     1       8.347  30.572  59.944  1.00  0.00     0.150 C 
BRANCH  11  12
HETATM   12  C   UNL     1       8.399  30.018  58.581  1.00  0.00    -0.017 A 
HETATM   13  C   UNL     1       7.190  29.577  58.037  1.00  0.00     0.016 A 
HETATM   14  C   UNL     1       7.167  29.064  56.741  1.00  0.00     0.037 A 
HETATM   15  C   UNL     1       8.335  29.014  55.977  1.00  0.00     0.069 A 
HETATM   16  C   UNL     1       9.540  29.456  56.525  1.00  0.00     0.037 A 
HETATM   17  C   UNL     1       9.572  29.975  57.826  1.00  0.00     0.016 A 
BRANCH  15  18
HETATM   18  O   UNL     1       8.171  28.500  54.724  1.00  0.00    -0.347 OA
BRANCH  18  19
HETATM   19  C   UNL     1       6.964  27.779  54.471  1.00  0.00     0.214 C 
BRANCH  19  20
HETATM   20  C   UNL     1       7.339  26.384  54.034  1.00  0.00    -0.033 A 
HETATM   21  C   UNL     1       7.630  25.406  54.999  1.00  0.00     0.033 A 
HETATM   22  C   UNL     1       7.957  24.107  54.610  1.00  0.00     0.034 A 
HETATM   23  C   UNL     1       7.995  23.763  53.262  1.00  0.00     0.024 A 
HETATM   24 CL   UNL     1       8.311  22.924  55.808  1.00  0.00    -0.084 Cl
HETATM   25  C   UNL     1       7.707  24.728  52.295  1.00  0.00     0.002 A 
HETATM   26  C   UNL     1       7.380  26.032  52.678  1.00  0.00     0.009 A 
ENDBRANCH  19  20
ENDBRANCH  18  19
ENDBRANCH  15  18
ENDBRANCH  11  12
ENDBRANCH   7  10
ENDBRANCH   1   6
BRANCH   5  27
HETATM   27  C   UNL     1       5.397  35.109  62.076  1.00  0.00     0.296 C 
BRANCH  27  28
HETATM   28  N   UNL     1       4.405  35.690  61.075  1.00  0.00    -0.066 N 
HETATM   29  H   UNL     1       4.574  35.152  60.215  1.00  0.00     0.280 HD
HETATM   30  C   UNL     1       2.950  35.454  61.430  1.00  0.00     0.235 C 
HETATM   31  C   UNL     1       2.064  35.869  60.264  1.00  0.00     0.028 C 
HETATM   32  C   UNL     1       2.322  37.310  59.845  1.00  0.00     0.003 C 
HETATM   33  C   UNL     1       3.797  37.535  59.539  1.00  0.00     0.028 C 
HETATM   34  C   UNL     1       4.683  37.127  60.708  1.00  0.00     0.235 C 
ENDBRANCH  27  28
ENDBRANCH   5  27
BRANCH   4  35
HETATM   35  C   UNL     1       5.032  33.660  64.897  1.00  0.00     0.225 A 
HETATM   36  N   UNL     1       3.889  33.811  65.566  1.00  0.00    -0.081 NA
HETATM   37  O   UNL     1       4.276  34.424  66.759  1.00  0.00    -0.103 OA
HETATM   38  N   UNL     1       5.651  34.594  66.810  1.00  0.00    -0.083 NA
HETATM   39  C   UNL     1       6.120  34.129  65.652  1.00  0.00     0.201 A 
BRANCH  39  40
HETATM   40  N   UNL     1       7.420  34.098  65.318  1.00  0.00    -0.379 N 
HETATM   41  H   UNL     1       7.796  33.290  64.829  1.00  0.00     0.158 HD
HETATM   42  H   UNL     1       8.124  34.664  65.789  1.00  0.00     0.158 HD
ENDBRANCH  39  40
ENDBRANCH   4  35
TORSDOF 10
ENDMDL
MODEL 9
REMARK VINA RESULT:      -9.1      2.231      3.747
REMARK  10 active torsions:
REMARK  status: ('A' for Active; 'I' for Inactive)
REMARK    1  A    between atoms: C_6  and  C_7 
REMARK    2  A    between atoms: C_7  and  O_8 
REMARK    3  A    between atoms: O_8  and  C_9 
REMARK    4  A    between atoms: C_12  and  C_13 
REMARK    5  A    between atoms: N_14  and  N_15 
REMARK       I    between atoms: N_15  and  C_16 
REMARK    6  A    between atoms: C_16  and  C_17 
REMARK    7  A    between atoms: N_20  and  C_21 
REMARK    8  A    between atoms: C_25  and  N_26 
REMARK    9  A    between atoms: C_27  and  C_28 
REMARK   10  A    between atoms: C_28  and  N_29 
ROOT
HETATM    1  C   UNL     1       3.696  31.898  58.963  1.00  0.00     0.170 C 
HETATM    2  N   UNL     1       3.019  30.883  59.568  1.00  0.00    -0.152 NA
HETATM    3  N   UNL     1       2.903  31.176  60.853  1.00  0.00     0.012 NA
HETATM    4  N   UNL     1       3.514  32.364  61.100  1.00  0.00    -0.215 N 
HETATM    5  C   UNL     1       3.913  32.917  59.884  1.00  0.00     0.096 C 
ENDROOT
BRANCH   1   6
HETATM    6  C   UNL     1       3.982  31.929  57.536  1.00  0.00     0.293 C 
HETATM    7  N   UNL     1       5.303  31.750  57.159  1.00  0.00    -0.242 N 
HETATM    8  H   UNL     1       5.495  31.815  56.166  1.00  0.00     0.192 HD
HETATM    9  O   UNL     1       3.129  32.243  56.710  1.00  0.00    -0.264 OA
BRANCH   7  10
HETATM   10  N   UNL     1       6.256  31.325  58.033  1.00  0.00    -0.184 NA
HETATM   11  C   UNL     1       6.766  30.133  57.912  1.00  0.00     0.150 C 
BRANCH  11  12
HETATM   12  C   UNL     1       6.516  29.103  56.890  1.00  0.00    -0.017 A 
HETATM   13  C   UNL     1       7.528  28.892  55.951  1.00  0.00     0.016 A 
HETATM   14  C   UNL     1       7.363  27.914  54.971  1.00  0.00     0.037 A 
HETATM   15  C   UNL     1       6.210  27.129  54.940  1.00  0.00     0.069 A 
HETATM   16  C   UNL     1       5.201  27.342  55.882  1.00  0.00     0.037 A 
HETATM   17  C   UNL     1       5.359  28.321  56.871  1.00  0.00     0.016 A 
BRANCH  15  18
HETATM   18  O   UNL     1       6.180  26.203  53.939  1.00  0.00    -0.347 OA
BRANCH  18  19
HETATM   19  C   UNL     1       7.436  25.678  53.504  1.00  0.00     0.214 C 
BRANCH  19  20
HETATM   20  C   UNL     1       7.580  24.287  54.071  1.00  0.00    -0.033 A 
HETATM   21  C   UNL     1       7.785  23.199  53.206  1.00  0.00     0.033 A 
HETATM   22  C   UNL     1       7.940  21.911  53.718  1.00  0.00     0.034 A 
HETATM   23  C   UNL     1       7.899  21.688  55.091  1.00  0.00     0.024 A 
HETATM   24 CL   UNL     1       8.191  20.592  52.642  1.00  0.00    -0.084 Cl
HETATM   25  C   UNL     1       7.695  22.762  55.959  1.00  0.00     0.002 A 
HETATM   26  C   UNL     1       7.537  24.055  55.453  1.00  0.00     0.009 A 
ENDBRANCH  19  20
ENDBRANCH  18  19
ENDBRANCH  15  18
ENDBRANCH  11  12
ENDBRANCH   7  10
ENDBRANCH   1   6
BRANCH   5  27
HETATM   27  C   UNL     1       4.463  34.268  59.656  1.00  0.00     0.296 C 
BRANCH  27  28
HETATM   28  N   UNL     1       3.469  35.416  59.794  1.00  0.00    -0.066 N 
HETATM   29  H   UNL     1       2.728  35.034  60.395  1.00  0.00     0.280 HD
HETATM   30  C   UNL     1       4.013  36.627  60.527  1.00  0.00     0.235 C 
HETATM   31  C   UNL     1       2.883  37.608  60.806  1.00  0.00     0.028 C 
HETATM   32  C   UNL     1       2.148  37.997  59.529  1.00  0.00     0.003 C 
HETATM   33  C   UNL     1       1.653  36.764  58.785  1.00  0.00     0.028 C 
HETATM   34  C   UNL     1       2.784  35.786  58.501  1.00  0.00     0.235 C 
ENDBRANCH  27  28
ENDBRANCH   5  27
BRANCH   4  35
HETATM   35  C   UNL     1       3.630  32.887  62.410  1.00  0.00     0.225 A 
HETATM   36  N   UNL     1       4.675  32.570  63.175  1.00  0.00    -0.081 NA
HETATM   37  O   UNL     1       4.435  33.246  64.372  1.00  0.00    -0.103 OA
HETATM   38  N   UNL     1       3.270  33.995  64.297  1.00  0.00    -0.083 NA
HETATM   39  C   UNL     1       2.766  33.766  63.085  1.00  0.00     0.201 A 
BRANCH  39  40
HETATM   40  N   UNL     1       1.642  34.328  62.613  1.00  0.00    -0.379 N 
HETATM   41  H   UNL     1       1.362  35.250  62.939  1.00  0.00     0.158 HD
HETATM   42  H   UNL     1       0.883  33.785  62.202  1.00  0.00     0.158 HD
ENDBRANCH  39  40
ENDBRANCH   4  35
TORSDOF 10
ENDMDL
MODEL 10
REMARK VINA RESULT:      -9.0      7.359     11.027
REMARK  10 active torsions:
REMARK  status: ('A' for Active; 'I' for Inactive)
REMARK    1  A    between atoms: C_6  and  C_7 
REMARK    2  A    between atoms: C_7  and  O_8 
REMARK    3  A    between atoms: O_8  and  C_9 
REMARK    4  A    between atoms: C_12  and  C_13 
REMARK    5  A    between atoms: N_14  and  N_15 
REMARK       I    between atoms: N_15  and  C_16 
REMARK    6  A    between atoms: C_16  and  C_17 
REMARK    7  A    between atoms: N_20  and  C_21 
REMARK    8  A    between atoms: C_25  and  N_26 
REMARK    9  A    between atoms: C_27  and  C_28 
REMARK   10  A    between atoms: C_28  and  N_29 
ROOT
HETATM    1  C   UNL     1       4.152  31.193  49.628  1.00  0.00     0.170 C 
HETATM    2  N   UNL     1       3.990  32.497  49.269  1.00  0.00    -0.152 NA
HETATM    3  N   UNL     1       2.795  32.626  48.718  1.00  0.00     0.012 NA
HETATM    4  N   UNL     1       2.178  31.416  48.695  1.00  0.00    -0.215 N 
HETATM    5  C   UNL     1       2.967  30.504  49.393  1.00  0.00     0.096 C 
ENDROOT
BRANCH   1   6
HETATM    6  C   UNL     1       5.344  30.689  50.294  1.00  0.00     0.293 C 
HETATM    7  N   UNL     1       5.320  30.659  51.679  1.00  0.00    -0.242 N 
HETATM    8  H   UNL     1       6.171  30.344  52.131  1.00  0.00     0.192 HD
HETATM    9  O   UNL     1       6.376  30.438  49.677  1.00  0.00    -0.264 OA
BRANCH   7  10
HETATM   10  N   UNL     1       4.176  30.852  52.390  1.00  0.00    -0.184 NA
HETATM   11  C   UNL     1       3.786  29.959  53.254  1.00  0.00     0.150 C 
BRANCH  11  12
HETATM   12  C   UNL     1       4.439  28.707  53.670  1.00  0.00    -0.017 A 
HETATM   13  C   UNL     1       4.166  27.572  52.903  1.00  0.00     0.016 A 
HETATM   14  C   UNL     1       4.771  26.360  53.230  1.00  0.00     0.037 A 
HETATM   15  C   UNL     1       5.665  26.279  54.299  1.00  0.00     0.069 A 
HETATM   16  C   UNL     1       5.935  27.416  55.063  1.00  0.00     0.037 A 
HETATM   17  C   UNL     1       5.333  28.639  54.740  1.00  0.00     0.016 A 
BRANCH  15  18
HETATM   18  O   UNL     1       6.194  25.038  54.505  1.00  0.00    -0.347 OA
BRANCH  18  19
HETATM   19  C   UNL     1       7.372  24.706  53.769  1.00  0.00     0.214 C 
BRANCH  19  20
HETATM   20  C   UNL     1       7.672  23.246  54.006  1.00  0.00    -0.033 A 
HETATM   21  C   UNL     1       7.852  22.775  55.318  1.00  0.00     0.033 A 
HETATM   22  C   UNL     1       8.109  21.425  55.554  1.00  0.00     0.034 A 
HETATM   23  C   UNL     1       8.186  20.527  54.493  1.00  0.00     0.024 A 
HETATM   24 CL   UNL     1       8.327  20.869  57.167  1.00  0.00    -0.084 Cl
HETATM   25  C   UNL     1       8.008  20.984  53.187  1.00  0.00     0.002 A 
HETATM   26  C   UNL     1       7.753  22.336  52.943  1.00  0.00     0.009 A 
ENDBRANCH  19  20
ENDBRANCH  18  19
ENDBRANCH  15  18
ENDBRANCH  11  12
ENDBRANCH   7  10
ENDBRANCH   1   6
BRANCH   5  27
HETATM   27  C   UNL     1       2.614  29.118  49.764  1.00  0.00     0.296 C 
BRANCH  27  28
HETATM   28  N   UNL     1       2.981  28.048  48.743  1.00  0.00    -0.066 N 
HETATM   29  H   UNL     1       3.274  28.584  47.915  1.00  0.00     0.280 HD
HETATM   30  C   UNL     1       4.177  27.200  49.130  1.00  0.00     0.235 C 
HETATM   31  C   UNL     1       4.591  26.329  47.952  1.00  0.00     0.028 C 
HETATM   32  C   UNL     1       3.431  25.482  47.443  1.00  0.00     0.003 C 
HETATM   33  C   UNL     1       2.227  26.350  47.106  1.00  0.00     0.028 C 
HETATM   34  C   UNL     1       1.808  27.216  48.285  1.00  0.00     0.235 C 
ENDBRANCH  27  28
ENDBRANCH   5  27
BRANCH   4  35
HETATM   35  C   UNL     1       0.919  31.231  48.075  1.00  0.00     0.225 A 
HETATM   36  N   UNL     1      -0.188  31.727  48.630  1.00  0.00    -0.081 NA
HETATM   37  O   UNL     1      -1.207  31.335  47.760  1.00  0.00    -0.103 OA
HETATM   38  N   UNL     1      -0.695  30.646  46.671  1.00  0.00    -0.083 NA
HETATM   39  C   UNL     1       0.621  30.573  46.870  1.00  0.00     0.201 A 
BRANCH  39  40
HETATM   40  N   UNL     1       1.485  29.994  46.021  1.00  0.00    -0.379 N 
HETATM   41  H   UNL     1       1.135  29.471  45.222  1.00  0.00     0.158 HD
HETATM   42  H   UNL     1       2.443  29.764  46.280  1.00  0.00     0.158 HD
ENDBRANCH  39  40
ENDBRANCH   4  35
TORSDOF 10
ENDMDL
