MODEL 1
REMARK VINA RESULT:      -9.7      0.000      0.000
REMARK  8 active torsions:
REMARK  status: ('A' for Active; 'I' for Inactive)
REMARK    1  A    between atoms: C_7  and  C_8 
REMARK       I    between atoms: C_8  and  N_9 
REMARK    2  A    between atoms: N_9  and  C_10 
REMARK    3  A    between atoms: C_13  and  C_14 
REMARK       I    between atoms: C_14  and  N_15 
REMARK    4  A    between atoms: N_15  and  C_16 
REMARK    5  A    between atoms: C_16  and  C_17 
REMARK    6  A    between atoms: C_17  and  C_18 
REMARK    7  A    between atoms: C_20  and  O_21 
REMARK    8  A    between atoms: C_23  and  O_24 
ROOT
HETATM    1  C   UNL     1       7.581  26.753  56.678  1.00  0.00     0.035 A 
HETATM    2  C   UNL     1       6.354  27.344  56.981  1.00  0.00     0.030 A 
HETATM    3  C   UNL     1       6.298  28.611  57.574  1.00  0.00     0.019 A 
HETATM    4  C   UNL     1       7.478  29.302  57.864  1.00  0.00     0.032 A 
HETATM    5  C   UNL     1       8.711  28.696  57.609  1.00  0.00     0.019 A 
HETATM    6  C   UNL     1       8.760  27.430  57.015  1.00  0.00     0.030 A 
ENDROOT
BRANCH   4   7
HETATM    7  C   UNL     1       7.465  30.683  58.421  1.00  0.00     0.251 C 
HETATM    8  N   UNL     1       8.589  31.054  59.132  1.00  0.00    -0.357 N 
HETATM    9  H   UNL     1       9.207  30.312  59.441  1.00  0.00     0.162 HD
HETATM   10  O   UNL     1       6.478  31.396  58.288  1.00  0.00    -0.268 OA
BRANCH   8  11
HETATM   11  C   UNL     1       8.585  32.268  59.927  1.00  0.00     0.127 C 
BRANCH  11  12
HETATM   12  C   UNL     1       8.916  32.012  61.401  1.00  0.00     0.058 C 
BRANCH  12  13
HETATM   13  C   UNL     1       7.780  32.302  62.360  1.00  0.00    -0.054 A 
HETATM   14  C   UNL     1       6.446  32.048  62.006  1.00  0.00     0.046 A 
HETATM   15  C   UNL     1       5.400  32.318  62.899  1.00  0.00     0.102 A 
HETATM   16  C   UNL     1       5.686  32.878  64.159  1.00  0.00     0.101 A 
HETATM   17  C   UNL     1       7.014  33.138  64.509  1.00  0.00     0.040 A 
HETATM   18  C   UNL     1       8.050  32.853  63.617  1.00  0.00     0.010 A 
BRANCH  15  19
HETATM   19  O   UNL     1       4.073  32.089  62.631  1.00  0.00    -0.353 OA
HETATM   20  C   UNL     1       3.459  32.874  61.619  1.00  0.00     0.210 C 
ENDBRANCH  15  19
BRANCH  16  21
HETATM   21  O   UNL     1       4.608  33.121  64.973  1.00  0.00    -0.353 OA
HETATM   22  C   UNL     1       4.841  33.847  66.172  1.00  0.00     0.210 C 
ENDBRANCH  16  21
ENDBRANCH  12  13
ENDBRANCH  11  12
ENDBRANCH   8  11
ENDBRANCH   4   7
BRANCH   1  23
HETATM   23  N   UNL     1       7.719  25.514  56.023  1.00  0.00    -0.322 N 
HETATM   24  C   UNL     1       6.874  24.942  55.088  1.00  0.00     0.265 C 
HETATM   25  O   UNL     1       5.795  25.406  54.737  1.00  0.00    -0.267 OA
HETATM   26  H   UNL     1       8.551  24.975  56.237  1.00  0.00     0.169 HD
BRANCH  24  27
HETATM   27  C   UNL     1       7.411  23.639  54.499  1.00  0.00     0.097 C 
HETATM   28  C   UNL     1       7.710  23.534  53.180  1.00  0.00     0.064 C 
HETATM   29  C   UNL     1       7.628  24.682  52.206  1.00  0.00     0.078 C 
HETATM   30  O   UNL     1       8.173  22.390  52.547  1.00  0.00    -0.353 OA
HETATM   31  C   UNL     1       7.971  21.150  53.223  1.00  0.00     0.185 C 
HETATM   32  C   UNL     1       8.581  21.175  54.608  1.00  0.00     0.106 C 
HETATM   33  S   UNL     1       7.622  22.316  55.632  1.00  0.00    -0.120 SA
ENDBRANCH  24  27
ENDBRANCH   1  23
TORSDOF 8
ENDMDL
MODEL 2
REMARK VINA RESULT:      -9.5      2.991     10.883
REMARK  8 active torsions:
REMARK  status: ('A' for Active; 'I' for Inactive)
REMARK    1  A    between atoms: C_7  and  C_8 
REMARK       I    between atoms: C_8  and  N_9 
REMARK    2  A    between atoms: N_9  and  C_10 
REMARK    3  A    between atoms: C_13  and  C_14 
REMARK       I    between atoms: C_14  and  N_15 
REMARK    4  A    between atoms: N_15  and  C_16 
REMARK    5  A    between atoms: C_16  and  C_17 
REMARK    6  A    between atoms: C_17  and  C_18 
REMARK    7  A    between atoms: C_20  and  O_21 
REMARK    8  A    between atoms: C_23  and  O_24 
ROOT
HETATM    1  C   UNL     1       7.378  29.786  58.253  1.00  0.00     0.035 A 
HETATM    2  C   UNL     1       8.533  29.246  57.685  1.00  0.00     0.030 A 
HETATM    3  C   UNL     1       8.482  28.592  56.448  1.00  0.00     0.019 A 
HETATM    4  C   UNL     1       7.268  28.477  55.765  1.00  0.00     0.032 A 
HETATM    5  C   UNL     1       6.099  28.972  56.351  1.00  0.00     0.019 A 
HETATM    6  C   UNL     1       6.157  29.626  57.586  1.00  0.00     0.030 A 
ENDROOT
BRANCH   4   7
HETATM    7  C   UNL     1       7.180  27.860  54.413  1.00  0.00     0.251 C 
HETATM    8  N   UNL     1       5.925  27.433  54.028  1.00  0.00    -0.357 N 
HETATM    9  H   UNL     1       5.228  27.330  54.756  1.00  0.00     0.162 HD
HETATM   10  O   UNL     1       8.189  27.703  53.737  1.00  0.00    -0.268 OA
BRANCH   8  11
HETATM   11  C   UNL     1       5.764  26.597  52.853  1.00  0.00     0.127 C 
BRANCH  11  12
HETATM   12  C   UNL     1       5.315  25.173  53.196  1.00  0.00     0.058 C 
BRANCH  12  13
HETATM   13  C   UNL     1       6.415  24.276  53.724  1.00  0.00    -0.054 A 
HETATM   14  C   UNL     1       6.750  24.261  55.086  1.00  0.00     0.046 A 
HETATM   15  C   UNL     1       7.770  23.428  55.569  1.00  0.00     0.102 A 
HETATM   16  C   UNL     1       8.488  22.615  54.670  1.00  0.00     0.101 A 
HETATM   17  C   UNL     1       8.159  22.635  53.312  1.00  0.00     0.040 A 
HETATM   18  C   UNL     1       7.133  23.458  52.844  1.00  0.00     0.010 A 
BRANCH  15  19
HETATM   19  O   UNL     1       8.149  23.350  56.886  1.00  0.00    -0.353 OA
HETATM   20  C   UNL     1       8.795  24.479  57.455  1.00  0.00     0.210 C 
ENDBRANCH  15  19
BRANCH  16  21
HETATM   21  O   UNL     1       9.475  21.834  55.218  1.00  0.00    -0.353 OA
HETATM   22  C   UNL     1       9.184  20.459  55.426  1.00  0.00     0.210 C 
ENDBRANCH  16  21
ENDBRANCH  12  13
ENDBRANCH  11  12
ENDBRANCH   8  11
ENDBRANCH   4   7
BRANCH   1  23
HETATM   23  N   UNL     1       7.359  30.515  59.457  1.00  0.00    -0.322 N 
HETATM   24  C   UNL     1       7.923  31.752  59.718  1.00  0.00     0.265 C 
HETATM   25  O   UNL     1       8.623  32.385  58.936  1.00  0.00    -0.267 OA
HETATM   26  H   UNL     1       6.850  30.103  60.232  1.00  0.00     0.169 HD
BRANCH  24  27
HETATM   27  C   UNL     1       7.594  32.290  61.109  1.00  0.00     0.097 C 
HETATM   28  C   UNL     1       8.435  32.095  62.156  1.00  0.00     0.064 C 
HETATM   29  C   UNL     1       9.779  31.423  62.040  1.00  0.00     0.078 C 
HETATM   30  O   UNL     1       8.212  32.517  63.458  1.00  0.00    -0.353 OA
HETATM   31  C   UNL     1       6.869  32.842  63.812  1.00  0.00     0.185 C 
HETATM   32  C   UNL     1       6.300  33.901  62.893  1.00  0.00     0.106 C 
HETATM   33  S   UNL     1       6.086  33.174  61.251  1.00  0.00    -0.120 SA
ENDBRANCH  24  27
ENDBRANCH   1  23
TORSDOF 8
ENDMDL
MODEL 3
REMARK VINA RESULT:      -9.2      3.306     11.814
REMARK  8 active torsions:
REMARK  status: ('A' for Active; 'I' for Inactive)
REMARK    1  A    between atoms: C_7  and  C_8 
REMARK       I    between atoms: C_8  and  N_9 
REMARK    2  A    between atoms: N_9  and  C_10 
REMARK    3  A    between atoms: C_13  and  C_14 
REMARK       I    between atoms: C_14  and  N_15 
REMARK    4  A    between atoms: N_15  and  C_16 
REMARK    5  A    between atoms: C_16  and  C_17 
REMARK    6  A    between atoms: C_17  and  C_18 
REMARK    7  A    between atoms: C_20  and  O_21 
REMARK    8  A    between atoms: C_23  and  O_24 
ROOT
HETATM    1  C   UNL     1       6.817  32.343  61.316  1.00  0.00     0.035 A 
HETATM    2  C   UNL     1       6.296  32.329  60.021  1.00  0.00     0.030 A 
HETATM    3  C   UNL     1       6.877  31.533  59.026  1.00  0.00     0.019 A 
HETATM    4  C   UNL     1       7.987  30.737  59.324  1.00  0.00     0.032 A 
HETATM    5  C   UNL     1       8.543  30.783  60.606  1.00  0.00     0.019 A 
HETATM    6  C   UNL     1       7.958  31.579  61.596  1.00  0.00     0.030 A 
ENDROOT
BRANCH   4   7
HETATM    7  C   UNL     1       8.588  29.817  58.320  1.00  0.00     0.251 C 
HETATM    8  N   UNL     1       7.743  28.852  57.809  1.00  0.00    -0.357 N 
HETATM    9  H   UNL     1       6.885  28.672  58.317  1.00  0.00     0.162 HD
HETATM   10  O   UNL     1       9.775  29.901  58.033  1.00  0.00    -0.268 OA
BRANCH   8  11
HETATM   11  C   UNL     1       8.274  27.754  57.023  1.00  0.00     0.127 C 
BRANCH  11  12
HETATM   12  C   UNL     1       7.681  26.399  57.422  1.00  0.00     0.058 C 
BRANCH  12  13
HETATM   13  C   UNL     1       7.761  25.335  56.347  1.00  0.00    -0.054 A 
HETATM   14  C   UNL     1       6.981  25.419  55.183  1.00  0.00     0.046 A 
HETATM   15  C   UNL     1       7.060  24.431  54.191  1.00  0.00     0.102 A 
HETATM   16  C   UNL     1       7.911  23.324  54.376  1.00  0.00     0.101 A 
HETATM   17  C   UNL     1       8.682  23.237  55.539  1.00  0.00     0.040 A 
HETATM   18  C   UNL     1       8.606  24.234  56.514  1.00  0.00     0.010 A 
BRANCH  15  19
HETATM   19  O   UNL     1       6.339  24.446  53.022  1.00  0.00    -0.353 OA
HETATM   20  C   UNL     1       4.984  24.869  53.088  1.00  0.00     0.210 C 
ENDBRANCH  15  19
BRANCH  16  21
HETATM   21  O   UNL     1       7.926  22.396  53.364  1.00  0.00    -0.353 OA
HETATM   22  C   UNL     1       8.023  21.027  53.731  1.00  0.00     0.210 C 
ENDBRANCH  16  21
ENDBRANCH  12  13
ENDBRANCH  11  12
ENDBRANCH   8  11
ENDBRANCH   4   7
BRANCH   1  23
HETATM   23  N   UNL     1       6.250  33.062  62.386  1.00  0.00    -0.322 N 
HETATM   24  C   UNL     1       5.385  32.603  63.363  1.00  0.00     0.265 C 
HETATM   25  O   UNL     1       4.897  31.478  63.399  1.00  0.00    -0.267 OA
HETATM   26  H   UNL     1       6.521  34.036  62.475  1.00  0.00     0.169 HD
BRANCH  24  27
HETATM   27  C   UNL     1       5.074  33.642  64.438  1.00  0.00     0.097 C 
HETATM   28  C   UNL     1       3.924  34.362  64.409  1.00  0.00     0.064 C 
HETATM   29  C   UNL     1       2.831  34.157  63.391  1.00  0.00     0.078 C 
HETATM   30  O   UNL     1       3.565  35.346  65.318  1.00  0.00    -0.353 OA
HETATM   31  C   UNL     1       4.610  35.904  66.112  1.00  0.00     0.185 C 
HETATM   32  C   UNL     1       5.350  34.831  66.880  1.00  0.00     0.106 C 
HETATM   33  S   UNL     1       6.279  33.825  65.699  1.00  0.00    -0.120 SA
ENDBRANCH  24  27
ENDBRANCH   1  23
TORSDOF 8
ENDMDL
MODEL 4
REMARK VINA RESULT:      -8.9      3.949      6.963
REMARK  8 active torsions:
REMARK  status: ('A' for Active; 'I' for Inactive)
REMARK    1  A    between atoms: C_7  and  C_8 
REMARK       I    between atoms: C_8  and  N_9 
REMARK    2  A    between atoms: N_9  and  C_10 
REMARK    3  A    between atoms: C_13  and  C_14 
REMARK       I    between atoms: C_14  and  N_15 
REMARK    4  A    between atoms: N_15  and  C_16 
REMARK    5  A    between atoms: C_16  and  C_17 
REMARK    6  A    between atoms: C_17  and  C_18 
REMARK    7  A    between atoms: C_20  and  O_21 
REMARK    8  A    between atoms: C_23  and  O_24 
ROOT
HETATM    1  C   UNL     1       7.342  31.719  61.412  1.00  0.00     0.035 A 
HETATM    2  C   UNL     1       8.319  31.774  62.408  1.00  0.00     0.030 A 
HETATM    3  C   UNL     1       8.053  32.391  63.636  1.00  0.00     0.019 A 
HETATM    4  C   UNL     1       6.799  32.957  63.880  1.00  0.00     0.032 A 
HETATM    5  C   UNL     1       5.832  32.949  62.870  1.00  0.00     0.019 A 
HETATM    6  C   UNL     1       6.103  32.330  61.646  1.00  0.00     0.030 A 
ENDROOT
BRANCH   4   7
HETATM    7  C   UNL     1       6.447  33.553  65.198  1.00  0.00     0.251 C 
HETATM    8  N   UNL     1       5.117  33.467  65.560  1.00  0.00    -0.357 N 
HETATM    9  H   UNL     1       4.451  33.252  64.827  1.00  0.00     0.162 HD
HETATM   10  O   UNL     1       7.297  34.128  65.866  1.00  0.00    -0.268 OA
BRANCH   8  11
HETATM   11  C   UNL     1       4.615  34.226  66.690  1.00  0.00     0.127 C 
BRANCH  11  12
HETATM   12  C   UNL     1       3.653  35.343  66.273  1.00  0.00     0.058 C 
BRANCH  12  13
HETATM   13  C   UNL     1       3.958  35.967  64.927  1.00  0.00    -0.054 A 
HETATM   14  C   UNL     1       3.264  35.576  63.771  1.00  0.00     0.046 A 
HETATM   15  C   UNL     1       3.551  36.158  62.528  1.00  0.00     0.102 A 
HETATM   16  C   UNL     1       4.568  37.127  62.431  1.00  0.00     0.101 A 
HETATM   17  C   UNL     1       5.264  37.511  63.581  1.00  0.00     0.040 A 
HETATM   18  C   UNL     1       4.961  36.935  64.816  1.00  0.00     0.010 A 
BRANCH  15  19
HETATM   19  O   UNL     1       2.912  35.837  61.356  1.00  0.00    -0.353 OA
HETATM   20  C   UNL     1       3.084  34.522  60.848  1.00  0.00     0.210 C 
ENDBRANCH  15  19
BRANCH  16  21
HETATM   21  O   UNL     1       4.795  37.643  61.179  1.00  0.00    -0.353 OA
HETATM   22  C   UNL     1       5.607  38.805  61.085  1.00  0.00     0.210 C 
ENDBRANCH  16  21
ENDBRANCH  12  13
ENDBRANCH  11  12
ENDBRANCH   8  11
ENDBRANCH   4   7
BRANCH   1  23
HETATM   23  N   UNL     1       7.509  31.059  60.180  1.00  0.00    -0.322 N 
HETATM   24  C   UNL     1       8.331  31.412  59.124  1.00  0.00     0.265 C 
HETATM   25  O   UNL     1       9.001  32.437  59.067  1.00  0.00    -0.267 OA
HETATM   26  H   UNL     1       6.983  30.202  60.046  1.00  0.00     0.169 HD
BRANCH  24  27
HETATM   27  C   UNL     1       8.343  30.387  57.993  1.00  0.00     0.097 C 
HETATM   28  C   UNL     1       9.492  30.071  57.342  1.00  0.00     0.064 C 
HETATM   29  C   UNL     1      10.846  30.619  57.715  1.00  0.00     0.078 C 
HETATM   30  O   UNL     1       9.601  29.179  56.286  1.00  0.00    -0.353 OA
HETATM   31  C   UNL     1       8.401  28.851  55.590  1.00  0.00     0.185 C 
HETATM   32  C   UNL     1       7.350  28.305  56.532  1.00  0.00     0.106 C 
HETATM   33  S   UNL     1       6.799  29.649  57.609  1.00  0.00    -0.120 SA
ENDBRANCH  24  27
ENDBRANCH   1  23
TORSDOF 8
ENDMDL
MODEL 5
REMARK VINA RESULT:      -8.8      2.992     11.053
REMARK  8 active torsions:
REMARK  status: ('A' for Active; 'I' for Inactive)
REMARK    1  A    between atoms: C_7  and  C_8 
REMARK       I    between atoms: C_8  and  N_9 
REMARK    2  A    between atoms: N_9  and  C_10 
REMARK    3  A    between atoms: C_13  and  C_14 
REMARK       I    between atoms: C_14  and  N_15 
REMARK    4  A    between atoms: N_15  and  C_16 
REMARK    5  A    between atoms: C_16  and  C_17 
REMARK    6  A    between atoms: C_17  and  C_18 
REMARK    7  A    between atoms: C_20  and  O_21 
REMARK    8  A    between atoms: C_23  and  O_24 
ROOT
HETATM    1  C   UNL     1       6.339  30.060  57.857  1.00  0.00     0.035 A 
HETATM    2  C   UNL     1       5.677  30.660  56.784  1.00  0.00     0.030 A 
HETATM    3  C   UNL     1       5.420  29.940  55.611  1.00  0.00     0.019 A 
HETATM    4  C   UNL     1       5.822  28.605  55.505  1.00  0.00     0.032 A 
HETATM    5  C   UNL     1       6.528  28.013  56.556  1.00  0.00     0.019 A 
HETATM    6  C   UNL     1       6.780  28.737  57.726  1.00  0.00     0.030 A 
ENDROOT
BRANCH   4   7
HETATM    7  C   UNL     1       5.501  27.780  54.308  1.00  0.00     0.251 C 
HETATM    8  N   UNL     1       6.569  27.131  53.722  1.00  0.00    -0.357 N 
HETATM    9  H   UNL     1       7.498  27.452  53.970  1.00  0.00     0.162 HD
HETATM   10  O   UNL     1       4.360  27.748  53.864  1.00  0.00    -0.268 OA
BRANCH   8  11
HETATM   11  C   UNL     1       6.424  26.510  52.418  1.00  0.00     0.127 C 
BRANCH  11  12
HETATM   12  C   UNL     1       5.898  25.074  52.502  1.00  0.00     0.058 C 
BRANCH  12  13
HETATM   13  C   UNL     1       6.686  24.167  53.424  1.00  0.00    -0.054 A 
HETATM   14  C   UNL     1       7.545  23.181  52.914  1.00  0.00     0.046 A 
HETATM   15  C   UNL     1       8.272  22.345  53.773  1.00  0.00     0.102 A 
HETATM   16  C   UNL     1       8.119  22.476  55.167  1.00  0.00     0.101 A 
HETATM   17  C   UNL     1       7.257  23.452  55.675  1.00  0.00     0.040 A 
HETATM   18  C   UNL     1       6.548  24.289  54.810  1.00  0.00     0.010 A 
BRANCH  15  19
HETATM   19  O   UNL     1       9.139  21.366  53.353  1.00  0.00    -0.353 OA
HETATM   20  C   UNL     1       8.587  20.232  52.700  1.00  0.00     0.210 C 
ENDBRANCH  15  19
BRANCH  16  21
HETATM   21  O   UNL     1       8.858  21.616  55.941  1.00  0.00    -0.353 OA
HETATM   22  C   UNL     1       8.341  21.275  57.220  1.00  0.00     0.210 C 
ENDBRANCH  16  21
ENDBRANCH  12  13
ENDBRANCH  11  12
ENDBRANCH   8  11
ENDBRANCH   4   7
BRANCH   1  23
HETATM   23  N   UNL     1       6.573  30.695  59.091  1.00  0.00    -0.322 N 
HETATM   24  C   UNL     1       7.574  31.594  59.416  1.00  0.00     0.265 C 
HETATM   25  O   UNL     1       8.492  31.923  58.672  1.00  0.00    -0.267 OA
HETATM   26  H   UNL     1       5.919  30.493  59.840  1.00  0.00     0.169 HD
BRANCH  24  27
HETATM   27  C   UNL     1       7.442  32.171  60.823  1.00  0.00     0.097 C 
HETATM   28  C   UNL     1       8.340  31.867  61.795  1.00  0.00     0.064 C 
HETATM   29  C   UNL     1       9.570  31.024  61.568  1.00  0.00     0.078 C 
HETATM   30  O   UNL     1       8.291  32.314  63.107  1.00  0.00    -0.353 OA
HETATM   31  C   UNL     1       7.039  32.812  63.573  1.00  0.00     0.185 C 
HETATM   32  C   UNL     1       6.534  33.937  62.696  1.00  0.00     0.106 C 
HETATM   33  S   UNL     1       6.081  33.245  61.088  1.00  0.00    -0.120 SA
ENDBRANCH  24  27
ENDBRANCH   1  23
TORSDOF 8
ENDMDL
MODEL 6
REMARK VINA RESULT:      -8.8      3.376     11.682
REMARK  8 active torsions:
REMARK  status: ('A' for Active; 'I' for Inactive)
REMARK    1  A    between atoms: C_7  and  C_8 
REMARK       I    between atoms: C_8  and  N_9 
REMARK    2  A    between atoms: N_9  and  C_10 
REMARK    3  A    between atoms: C_13  and  C_14 
REMARK       I    between atoms: C_14  and  N_15 
REMARK    4  A    between atoms: N_15  and  C_16 
REMARK    5  A    between atoms: C_16  and  C_17 
REMARK    6  A    between atoms: C_17  and  C_18 
REMARK    7  A    between atoms: C_20  and  O_21 
REMARK    8  A    between atoms: C_23  and  O_24 
ROOT
HETATM    1  C   UNL     1       6.689  32.559  61.300  1.00  0.00     0.035 A 
HETATM    2  C   UNL     1       6.028  32.320  60.094  1.00  0.00     0.030 A 
HETATM    3  C   UNL     1       6.652  31.598  59.069  1.00  0.00     0.019 A 
HETATM    4  C   UNL     1       7.947  31.104  59.246  1.00  0.00     0.032 A 
HETATM    5  C   UNL     1       8.633  31.382  60.433  1.00  0.00     0.019 A 
HETATM    6  C   UNL     1       8.004  32.101  61.454  1.00  0.00     0.030 A 
ENDROOT
BRANCH   4   7
HETATM    7  C   UNL     1       8.618  30.266  58.215  1.00  0.00     0.251 C 
HETATM    8  N   UNL     1       7.779  29.545  57.389  1.00  0.00    -0.357 N 
HETATM    9  H   UNL     1       6.819  29.430  57.691  1.00  0.00     0.162 HD
HETATM   10  O   UNL     1       9.840  30.198  58.170  1.00  0.00    -0.268 OA
BRANCH   8  11
HETATM   11  C   UNL     1       8.315  28.510  56.523  1.00  0.00     0.127 C 
BRANCH  11  12
HETATM   12  C   UNL     1       7.265  27.468  56.128  1.00  0.00     0.058 C 
BRANCH  12  13
HETATM   13  C   UNL     1       7.764  26.038  56.132  1.00  0.00    -0.054 A 
HETATM   14  C   UNL     1       7.637  25.220  54.998  1.00  0.00     0.046 A 
HETATM   15  C   UNL     1       8.101  23.897  55.009  1.00  0.00     0.102 A 
HETATM   16  C   UNL     1       8.679  23.371  56.180  1.00  0.00     0.101 A 
HETATM   17  C   UNL     1       8.798  24.183  57.312  1.00  0.00     0.040 A 
HETATM   18  C   UNL     1       8.345  25.503  57.287  1.00  0.00     0.010 A 
BRANCH  15  19
HETATM   19  O   UNL     1       8.023  23.040  53.939  1.00  0.00    -0.353 OA
HETATM   20  C   UNL     1       7.266  23.458  52.812  1.00  0.00     0.210 C 
ENDBRANCH  15  19
BRANCH  16  21
HETATM   21  O   UNL     1       9.101  22.066  56.114  1.00  0.00    -0.353 OA
HETATM   22  C   UNL     1       8.270  21.076  56.702  1.00  0.00     0.210 C 
ENDBRANCH  16  21
ENDBRANCH  12  13
ENDBRANCH  11  12
ENDBRANCH   8  11
ENDBRANCH   4   7
BRANCH   1  23
HETATM   23  N   UNL     1       6.107  33.215  62.401  1.00  0.00    -0.322 N 
HETATM   24  C   UNL     1       5.297  32.679  63.387  1.00  0.00     0.265 C 
HETATM   25  O   UNL     1       4.880  31.526  63.406  1.00  0.00    -0.267 OA
HETATM   26  H   UNL     1       6.320  34.201  62.509  1.00  0.00     0.169 HD
BRANCH  24  27
HETATM   27  C   UNL     1       4.950  33.670  64.496  1.00  0.00     0.097 C 
HETATM   28  C   UNL     1       5.858  34.008  65.446  1.00  0.00     0.064 C 
HETATM   29  C   UNL     1       7.285  33.521  65.455  1.00  0.00     0.078 C 
HETATM   30  O   UNL     1       5.631  34.872  66.507  1.00  0.00    -0.353 OA
HETATM   31  C   UNL     1       4.272  35.135  66.847  1.00  0.00     0.185 C 
HETATM   32  C   UNL     1       3.501  35.670  65.660  1.00  0.00     0.106 C 
HETATM   33  S   UNL     1       3.329  34.339  64.447  1.00  0.00    -0.120 SA
ENDBRANCH  24  27
ENDBRANCH   1  23
TORSDOF 8
ENDMDL
MODEL 7
REMARK VINA RESULT:      -8.7      1.439      1.811
REMARK  8 active torsions:
REMARK  status: ('A' for Active; 'I' for Inactive)
REMARK    1  A    between atoms: C_7  and  C_8 
REMARK       I    between atoms: C_8  and  N_9 
REMARK    2  A    between atoms: N_9  and  C_10 
REMARK    3  A    between atoms: C_13  and  C_14 
REMARK       I    between atoms: C_14  and  N_15 
REMARK    4  A    between atoms: N_15  and  C_16 
REMARK    5  A    between atoms: C_16  and  C_17 
REMARK    6  A    between atoms: C_17  and  C_18 
REMARK    7  A    between atoms: C_20  and  O_21 
REMARK    8  A    between atoms: C_23  and  O_24 
ROOT
HETATM    1  C   UNL     1       7.612  27.015  56.632  1.00  0.00     0.035 A 
HETATM    2  C   UNL     1       6.367  27.544  56.976  1.00  0.00     0.030 A 
HETATM    3  C   UNL     1       6.271  28.782  57.624  1.00  0.00     0.019 A 
HETATM    4  C   UNL     1       7.428  29.505  57.929  1.00  0.00     0.032 A 
HETATM    5  C   UNL     1       8.680  28.959  57.632  1.00  0.00     0.019 A 
HETATM    6  C   UNL     1       8.769  27.723  56.983  1.00  0.00     0.030 A 
ENDROOT
BRANCH   4   7
HETATM    7  C   UNL     1       7.370  30.859  58.546  1.00  0.00     0.251 C 
HETATM    8  N   UNL     1       8.412  31.178  59.392  1.00  0.00    -0.357 N 
HETATM    9  H   UNL     1       8.984  30.413  59.731  1.00  0.00     0.162 HD
HETATM   10  O   UNL     1       6.412  31.594  58.340  1.00  0.00    -0.268 OA
BRANCH   8  11
HETATM   11  C   UNL     1       8.336  32.355  60.239  1.00  0.00     0.127 C 
BRANCH  11  12
HETATM   12  C   UNL     1       8.557  32.034  61.720  1.00  0.00     0.058 C 
BRANCH  12  13
HETATM   13  C   UNL     1       7.619  32.753  62.667  1.00  0.00    -0.054 A 
HETATM   14  C   UNL     1       6.378  33.240  62.230  1.00  0.00     0.046 A 
HETATM   15  C   UNL     1       5.514  33.905  63.113  1.00  0.00     0.102 A 
HETATM   16  C   UNL     1       5.907  34.111  64.449  1.00  0.00     0.101 A 
HETATM   17  C   UNL     1       7.147  33.632  64.883  1.00  0.00     0.040 A 
HETATM   18  C   UNL     1       7.994  32.960  63.999  1.00  0.00     0.010 A 
BRANCH  15  19
HETATM   19  O   UNL     1       4.282  34.400  62.765  1.00  0.00    -0.353 OA
HETATM   20  C   UNL     1       3.271  33.468  62.409  1.00  0.00     0.210 C 
ENDBRANCH  15  19
BRANCH  16  21
HETATM   21  O   UNL     1       5.010  34.776  65.248  1.00  0.00    -0.353 OA
HETATM   22  C   UNL     1       4.391  34.039  66.293  1.00  0.00     0.210 C 
ENDBRANCH  16  21
ENDBRANCH  12  13
ENDBRANCH  11  12
ENDBRANCH   8  11
ENDBRANCH   4   7
BRANCH   1  23
HETATM   23  N   UNL     1       7.788  25.813  55.921  1.00  0.00    -0.322 N 
HETATM   24  C   UNL     1       8.264  24.602  56.392  1.00  0.00     0.265 C 
HETATM   25  O   UNL     1       8.700  24.408  57.521  1.00  0.00    -0.267 OA
HETATM   26  H   UNL     1       7.512  25.815  54.945  1.00  0.00     0.169 HD
BRANCH  24  27
HETATM   27  C   UNL     1       8.201  23.479  55.359  1.00  0.00     0.097 C 
HETATM   28  C   UNL     1       8.254  22.175  55.733  1.00  0.00     0.064 C 
HETATM   29  C   UNL     1       8.293  21.715  57.168  1.00  0.00     0.078 C 
HETATM   30  O   UNL     1       8.234  21.088  54.872  1.00  0.00    -0.353 OA
HETATM   31  C   UNL     1       8.553  21.340  53.505  1.00  0.00     0.185 C 
HETATM   32  C   UNL     1       7.646  22.397  52.914  1.00  0.00     0.106 C 
HETATM   33  S   UNL     1       8.044  23.984  53.686  1.00  0.00    -0.120 SA
ENDBRANCH  24  27
ENDBRANCH   1  23
TORSDOF 8
ENDMDL
MODEL 8
REMARK VINA RESULT:      -8.6      3.312     11.126
REMARK  8 active torsions:
REMARK  status: ('A' for Active; 'I' for Inactive)
REMARK    1  A    between atoms: C_7  and  C_8 
REMARK       I    between atoms: C_8  and  N_9 
REMARK    2  A    between atoms: N_9  and  C_10 
REMARK    3  A    between atoms: C_13  and  C_14 
REMARK       I    between atoms: C_14  and  N_15 
REMARK    4  A    between atoms: N_15  and  C_16 
REMARK    5  A    between atoms: C_16  and  C_17 
REMARK    6  A    between atoms: C_17  and  C_18 
REMARK    7  A    between atoms: C_20  and  O_21 
REMARK    8  A    between atoms: C_23  and  O_24 
ROOT
HETATM    1  C   UNL     1       4.820  30.514  57.734  1.00  0.00     0.035 A 
HETATM    2  C   UNL     1       3.785  30.730  56.822  1.00  0.00     0.030 A 
HETATM    3  C   UNL     1       3.675  29.944  55.668  1.00  0.00     0.019 A 
HETATM    4  C   UNL     1       4.603  28.929  55.420  1.00  0.00     0.032 A 
HETATM    5  C   UNL     1       5.670  28.740  56.304  1.00  0.00     0.019 A 
HETATM    6  C   UNL     1       5.773  29.526  57.456  1.00  0.00     0.030 A 
ENDROOT
BRANCH   4   7
HETATM    7  C   UNL     1       4.480  28.019  54.248  1.00  0.00     0.251 C 
HETATM    8  N   UNL     1       4.842  26.706  54.467  1.00  0.00    -0.357 N 
HETATM    9  H   UNL     1       5.392  26.509  55.295  1.00  0.00     0.162 HD
HETATM   10  O   UNL     1       4.133  28.456  53.157  1.00  0.00    -0.268 OA
BRANCH   8  11
HETATM   11  C   UNL     1       5.005  25.794  53.349  1.00  0.00     0.127 C 
BRANCH  11  12
HETATM   12  C   UNL     1       6.463  25.661  52.900  1.00  0.00     0.058 C 
BRANCH  12  13
HETATM   13  C   UNL     1       7.211  24.501  53.523  1.00  0.00    -0.054 A 
HETATM   14  C   UNL     1       7.529  24.491  54.890  1.00  0.00     0.046 A 
HETATM   15  C   UNL     1       8.222  23.414  55.460  1.00  0.00     0.102 A 
HETATM   16  C   UNL     1       8.630  22.339  54.647  1.00  0.00     0.101 A 
HETATM   17  C   UNL     1       8.320  22.352  53.284  1.00  0.00     0.040 A 
HETATM   18  C   UNL     1       7.618  23.424  52.728  1.00  0.00     0.010 A 
BRANCH  15  19
HETATM   19  O   UNL     1       8.560  23.326  56.788  1.00  0.00    -0.353 OA
HETATM   20  C   UNL     1       8.945  24.521  57.452  1.00  0.00     0.210 C 
ENDBRANCH  15  19
BRANCH  16  21
HETATM   21  O   UNL     1       9.310  21.327  55.278  1.00  0.00    -0.353 OA
HETATM   22  C   UNL     1       8.724  20.033  55.261  1.00  0.00     0.210 C 
ENDBRANCH  16  21
ENDBRANCH  12  13
ENDBRANCH  11  12
ENDBRANCH   8  11
ENDBRANCH   4   7
BRANCH   1  23
HETATM   23  N   UNL     1       4.959  31.215  58.947  1.00  0.00    -0.322 N 
HETATM   24  C   UNL     1       5.944  32.117  59.307  1.00  0.00     0.265 C 
HETATM   25  O   UNL     1       6.929  32.390  58.629  1.00  0.00    -0.267 OA
HETATM   26  H   UNL     1       4.238  31.065  59.646  1.00  0.00     0.169 HD
BRANCH  24  27
HETATM   27  C   UNL     1       5.702  32.775  60.664  1.00  0.00     0.097 C 
HETATM   28  C   UNL     1       6.417  32.412  61.759  1.00  0.00     0.064 C 
HETATM   29  C   UNL     1       7.546  31.413  61.731  1.00  0.00     0.078 C 
HETATM   30  O   UNL     1       6.252  32.926  63.036  1.00  0.00    -0.353 OA
HETATM   31  C   UNL     1       5.024  33.598  63.309  1.00  0.00     0.185 C 
HETATM   32  C   UNL     1       4.789  34.731  62.335  1.00  0.00     0.106 C 
HETATM   33  S   UNL     1       4.468  34.020  60.703  1.00  0.00    -0.120 SA
ENDBRANCH  24  27
ENDBRANCH   1  23
TORSDOF 8
ENDMDL
MODEL 9
REMARK VINA RESULT:      -8.5      3.317     11.769
REMARK  8 active torsions:
REMARK  status: ('A' for Active; 'I' for Inactive)
REMARK    1  A    between atoms: C_7  and  C_8 
REMARK       I    between atoms: C_8  and  N_9 
REMARK    2  A    between atoms: N_9  and  C_10 
REMARK    3  A    between atoms: C_13  and  C_14 
REMARK       I    between atoms: C_14  and  N_15 
REMARK    4  A    between atoms: N_15  and  C_16 
REMARK    5  A    between atoms: C_16  and  C_17 
REMARK    6  A    between atoms: C_17  and  C_18 
REMARK    7  A    between atoms: C_20  and  O_21 
REMARK    8  A    between atoms: C_23  and  O_24 
ROOT
HETATM    1  C   UNL     1       6.816  32.465  61.372  1.00  0.00     0.035 A 
HETATM    2  C   UNL     1       6.250  32.320  60.104  1.00  0.00     0.030 A 
HETATM    3  C   UNL     1       6.895  31.568  59.115  1.00  0.00     0.019 A 
HETATM    4  C   UNL     1       8.117  30.948  59.391  1.00  0.00     0.032 A 
HETATM    5  C   UNL     1       8.714  31.130  60.642  1.00  0.00     0.019 A 
HETATM    6  C   UNL     1       8.064  31.880  61.627  1.00  0.00     0.030 A 
ENDROOT
BRANCH   4   7
HETATM    7  C   UNL     1       8.799  30.075  58.397  1.00  0.00     0.251 C 
HETATM    8  N   UNL     1       8.029  29.065  57.857  1.00  0.00    -0.357 N 
HETATM    9  H   UNL     1       7.172  28.827  58.342  1.00  0.00     0.162 HD
HETATM   10  O   UNL     1       9.987  30.235  58.142  1.00  0.00    -0.268 OA
BRANCH   8  11
HETATM   11  C   UNL     1       8.648  28.007  57.078  1.00  0.00     0.127 C 
BRANCH  11  12
HETATM   12  C   UNL     1       7.991  26.643  57.305  1.00  0.00     0.058 C 
BRANCH  12  13
HETATM   13  C   UNL     1       7.312  26.060  56.083  1.00  0.00    -0.054 A 
HETATM   14  C   UNL     1       7.983  25.166  55.235  1.00  0.00     0.046 A 
HETATM   15  C   UNL     1       7.348  24.630  54.106  1.00  0.00     0.102 A 
HETATM   16  C   UNL     1       6.028  25.014  53.801  1.00  0.00     0.101 A 
HETATM   17  C   UNL     1       5.361  25.910  54.641  1.00  0.00     0.040 A 
HETATM   18  C   UNL     1       5.998  26.428  55.771  1.00  0.00     0.010 A 
BRANCH  15  19
HETATM   19  O   UNL     1       7.934  23.744  53.235  1.00  0.00    -0.353 OA
HETATM   20  C   UNL     1       8.245  22.447  53.723  1.00  0.00     0.210 C 
ENDBRANCH  15  19
BRANCH  16  21
HETATM   21  O   UNL     1       5.479  24.452  52.675  1.00  0.00    -0.353 OA
HETATM   22  C   UNL     1       5.026  25.333  51.656  1.00  0.00     0.210 C 
ENDBRANCH  16  21
ENDBRANCH  12  13
ENDBRANCH  11  12
ENDBRANCH   8  11
ENDBRANCH   4   7
BRANCH   1  23
HETATM   23  N   UNL     1       6.199  33.147  62.437  1.00  0.00    -0.322 N 
HETATM   24  C   UNL     1       5.330  32.641  63.389  1.00  0.00     0.265 C 
HETATM   25  O   UNL     1       4.885  31.499  63.398  1.00  0.00    -0.267 OA
HETATM   26  H   UNL     1       6.430  34.129  62.546  1.00  0.00     0.169 HD
BRANCH  24  27
HETATM   27  C   UNL     1       4.956  33.652  64.471  1.00  0.00     0.097 C 
HETATM   28  C   UNL     1       5.825  33.976  65.461  1.00  0.00     0.064 C 
HETATM   29  C   UNL     1       7.236  33.452  65.545  1.00  0.00     0.078 C 
HETATM   30  O   UNL     1       5.569  34.856  66.502  1.00  0.00    -0.353 OA
HETATM   31  C   UNL     1       4.201  35.157  66.773  1.00  0.00     0.185 C 
HETATM   32  C   UNL     1       3.505  35.700  65.545  1.00  0.00     0.106 C 
HETATM   33  S   UNL     1       3.358  34.362  64.337  1.00  0.00    -0.120 SA
ENDBRANCH  24  27
ENDBRANCH   1  23
TORSDOF 8
ENDMDL
MODEL 10
REMARK VINA RESULT:      -8.5      4.015      7.086
REMARK  8 active torsions:
REMARK  status: ('A' for Active; 'I' for Inactive)
REMARK    1  A    between atoms: C_7  and  C_8 
REMARK       I    between atoms: C_8  and  N_9 
REMARK    2  A    between atoms: N_9  and  C_10 
REMARK    3  A    between atoms: C_13  and  C_14 
REMARK       I    between atoms: C_14  and  N_15 
REMARK    4  A    between atoms: N_15  and  C_16 
REMARK    5  A    between atoms: C_16  and  C_17 
REMARK    6  A    between atoms: C_17  and  C_18 
REMARK    7  A    between atoms: C_20  and  O_21 
REMARK    8  A    between atoms: C_23  and  O_24 
ROOT
HETATM    1  C   UNL     1       7.199  31.560  61.569  1.00  0.00     0.035 A 
HETATM    2  C   UNL     1       5.932  31.998  61.957  1.00  0.00     0.030 A 
HETATM    3  C   UNL     1       5.752  32.682  63.166  1.00  0.00     0.019 A 
HETATM    4  C   UNL     1       6.847  32.938  63.996  1.00  0.00     0.032 A 
HETATM    5  C   UNL     1       8.110  32.460  63.637  1.00  0.00     0.019 A 
HETATM    6  C   UNL     1       8.284  31.778  62.428  1.00  0.00     0.030 A 
ENDROOT
BRANCH   4   7
HETATM    7  C   UNL     1       6.715  33.730  65.250  1.00  0.00     0.251 C 
HETATM    8  N   UNL     1       5.536  33.559  65.947  1.00  0.00    -0.357 N 
HETATM    9  H   UNL     1       4.764  33.129  65.451  1.00  0.00     0.162 HD
HETATM   10  O   UNL     1       7.592  34.519  65.581  1.00  0.00    -0.268 OA
BRANCH   8  11
HETATM   11  C   UNL     1       5.190  34.455  67.035  1.00  0.00     0.127 C 
BRANCH  11  12
HETATM   12  C   UNL     1       4.024  35.386  66.687  1.00  0.00     0.058 C 
BRANCH  12  13
HETATM   13  C   UNL     1       3.871  35.677  65.208  1.00  0.00    -0.054 A 
HETATM   14  C   UNL     1       4.503  36.781  64.615  1.00  0.00     0.046 A 
HETATM   15  C   UNL     1       4.356  37.045  63.246  1.00  0.00     0.102 A 
HETATM   16  C   UNL     1       3.542  36.208  62.459  1.00  0.00     0.101 A 
HETATM   17  C   UNL     1       2.906  35.113  63.051  1.00  0.00     0.040 A 
HETATM   18  C   UNL     1       3.069  34.852  64.413  1.00  0.00     0.010 A 
BRANCH  15  19
HETATM   19  O   UNL     1       4.949  38.096  62.591  1.00  0.00    -0.353 OA
HETATM   20  C   UNL     1       6.235  38.508  63.034  1.00  0.00     0.210 C 
ENDBRANCH  15  19
BRANCH  16  21
HETATM   21  O   UNL     1       3.443  36.537  61.129  1.00  0.00    -0.353 OA
HETATM   22  C   UNL     1       4.033  35.651  60.189  1.00  0.00     0.210 C 
ENDBRANCH  16  21
ENDBRANCH  12  13
ENDBRANCH  11  12
ENDBRANCH   8  11
ENDBRANCH   4   7
BRANCH   1  23
HETATM   23  N   UNL     1       7.472  30.927  60.342  1.00  0.00    -0.322 N 
HETATM   24  C   UNL     1       7.319  31.435  59.064  1.00  0.00     0.265 C 
HETATM   25  O   UNL     1       6.826  32.524  58.794  1.00  0.00    -0.267 OA
HETATM   26  H   UNL     1       7.851  29.987  60.387  1.00  0.00     0.169 HD
BRANCH  24  27
HETATM   27  C   UNL     1       7.834  30.500  57.971  1.00  0.00     0.097 C 
HETATM   28  C   UNL     1       9.138  30.511  57.594  1.00  0.00     0.064 C 
HETATM   29  C   UNL     1      10.196  31.359  58.253  1.00  0.00     0.078 C 
HETATM   30  O   UNL     1       9.695  29.726  56.595  1.00  0.00    -0.353 OA
HETATM   31  C   UNL     1       8.796  29.145  55.653  1.00  0.00     0.185 C 
HETATM   32  C   UNL     1       7.740  28.311  56.343  1.00  0.00     0.106 C 
HETATM   33  S   UNL     1       6.647  29.422  57.261  1.00  0.00    -0.120 SA
ENDBRANCH  24  27
ENDBRANCH   1  23
TORSDOF 8
ENDMDL
