MODEL 1
REMARK VINA RESULT:     -10.5      0.000      0.000
REMARK  3 active torsions:
REMARK  status: ('A' for Active; 'I' for Inactive)
REMARK    1  A    between atoms: C_2  and  C_3 
REMARK    2  A    between atoms: C_8  and  C_9 
REMARK       I    between atoms: C_9  and  N_10 
REMARK    3  A    between atoms: N_10  and  C_11 
ROOT
HETATM    1  C   UNL     1       5.436  28.800  55.108  1.00  0.00     0.104 A 
HETATM    2  N   UNL     1       4.399  29.594  54.784  1.00  0.00    -0.174 NA
HETATM    3  N   UNL     1       3.826  29.000  53.733  1.00  0.00    -0.288 N 
HETATM    4  H   UNL     1       2.990  29.421  53.338  1.00  0.00     0.188 HD
HETATM    5  C   UNL     1       4.473  27.880  53.330  1.00  0.00     0.128 A 
HETATM    6  C   UNL     1       5.559  27.719  54.174  1.00  0.00     0.080 A 
ENDROOT
BRANCH   6   7
HETATM    7  C   UNL     1       6.518  26.628  54.024  1.00  0.00     0.260 C 
HETATM    8  N   UNL     1       6.038  25.382  54.382  1.00  0.00    -0.323 N 
HETATM    9  H   UNL     1       5.089  25.340  54.728  1.00  0.00     0.169 HD
HETATM   10  O   UNL     1       7.662  26.872  53.656  1.00  0.00    -0.267 OA
BRANCH   8  11
HETATM   11  C   UNL     1       6.738  24.155  54.368  1.00  0.00     0.035 A 
HETATM   12  C   UNL     1       7.101  23.449  55.518  1.00  0.00     0.037 A 
HETATM   13  C   UNL     1       7.779  22.246  55.382  1.00  0.00    -0.050 A 
HETATM   14  C   UNL     1       8.096  21.728  54.124  1.00  0.00    -0.052 A 
HETATM   15  C   UNL     1       8.210  21.310  56.470  1.00  0.00     0.039 C 
HETATM   16  C   UNL     1       8.771  20.399  54.250  1.00  0.00     0.039 C 
HETATM   17  C   UNL     1       7.742  22.405  52.974  1.00  0.00     0.010 A 
HETATM   18  C   UNL     1       9.217  20.426  55.720  1.00  0.00     0.009 C 
HETATM   19  C   UNL     1       7.066  23.625  53.100  1.00  0.00     0.030 A 
ENDBRANCH   8  11
ENDBRANCH   6   7
BRANCH   1  20
HETATM   20  C   UNL     1       6.228  29.124  56.298  1.00  0.00    -0.002 A 
HETATM   21  C   UNL     1       7.030  28.133  56.889  1.00  0.00     0.017 A 
HETATM   22  C   UNL     1       7.822  28.421  58.003  1.00  0.00     0.040 A 
HETATM   23  C   UNL     1       7.822  29.706  58.534  1.00  0.00     0.102 A 
HETATM   24  C   UNL     1       7.011  30.697  57.968  1.00  0.00     0.103 A 
HETATM   25  O   UNL     1       8.641  29.929  59.610  1.00  0.00    -0.346 OA
HETATM   26  C   UNL     1       6.237  30.416  56.841  1.00  0.00     0.053 A 
HETATM   27  O   UNL     1       6.938  31.975  58.461  1.00  0.00    -0.346 OA
HETATM   28  C   UNL     1       7.506  32.066  59.773  1.00  0.00     0.202 C 
HETATM   29  C   UNL     1       8.835  31.331  59.833  1.00  0.00     0.202 C 
ENDBRANCH   1  20
TORSDOF 3
ENDMDL
MODEL 2
REMARK VINA RESULT:     -10.3      1.878      2.702
REMARK  3 active torsions:
REMARK  status: ('A' for Active; 'I' for Inactive)
REMARK    1  A    between atoms: C_2  and  C_3 
REMARK    2  A    between atoms: C_8  and  C_9 
REMARK       I    between atoms: C_9  and  N_10 
REMARK    3  A    between atoms: N_10  and  C_11 
ROOT
HETATM    1  C   UNL     1       5.681  27.903  52.359  1.00  0.00     0.104 A 
HETATM    2  N   UNL     1       5.522  28.792  51.360  1.00  0.00    -0.174 NA
HETATM    3  N   UNL     1       5.199  28.054  50.293  1.00  0.00    -0.288 N 
HETATM    4  H   UNL     1       5.001  28.532  49.418  1.00  0.00     0.188 HD
HETATM    5  C   UNL     1       5.187  26.723  50.543  1.00  0.00     0.128 A 
HETATM    6  C   UNL     1       5.531  26.562  51.874  1.00  0.00     0.080 A 
ENDROOT
BRANCH   6   7
HETATM    7  C   UNL     1       5.656  25.250  52.502  1.00  0.00     0.260 C 
HETATM    8  N   UNL     1       6.938  24.916  52.898  1.00  0.00    -0.323 N 
HETATM    9  H   UNL     1       7.666  25.591  52.704  1.00  0.00     0.169 HD
HETATM   10  O   UNL     1       4.671  24.524  52.593  1.00  0.00    -0.267 OA
BRANCH   8  11
HETATM   11  C   UNL     1       7.364  23.714  53.505  1.00  0.00     0.035 A 
HETATM   12  C   UNL     1       7.516  23.547  54.884  1.00  0.00     0.037 A 
HETATM   13  C   UNL     1       7.932  22.315  55.369  1.00  0.00    -0.050 A 
HETATM   14  C   UNL     1       8.193  21.245  54.510  1.00  0.00    -0.052 A 
HETATM   15  C   UNL     1       8.104  21.906  56.800  1.00  0.00     0.039 C 
HETATM   16  C   UNL     1       8.567  20.020  55.283  1.00  0.00     0.039 C 
HETATM   17  C   UNL     1       8.044  21.386  53.144  1.00  0.00     0.010 A 
HETATM   18  C   UNL     1       8.937  20.626  56.645  1.00  0.00     0.009 C 
HETATM   19  C   UNL     1       7.634  22.628  52.644  1.00  0.00     0.030 A 
ENDBRANCH   8  11
ENDBRANCH   6   7
BRANCH   1  20
HETATM   20  C   UNL     1       5.950  28.402  53.710  1.00  0.00    -0.002 A 
HETATM   21  C   UNL     1       4.914  28.997  54.451  1.00  0.00     0.017 A 
HETATM   22  C   UNL     1       5.133  29.451  55.753  1.00  0.00     0.040 A 
HETATM   23  C   UNL     1       6.391  29.311  56.329  1.00  0.00     0.102 A 
HETATM   24  C   UNL     1       7.437  28.741  55.595  1.00  0.00     0.103 A 
HETATM   25  O   UNL     1       6.531  29.753  57.619  1.00  0.00    -0.346 OA
HETATM   26  C   UNL     1       7.214  28.266  54.301  1.00  0.00     0.053 A 
HETATM   27  O   UNL     1       8.709  28.602  56.089  1.00  0.00    -0.346 OA
HETATM   28  C   UNL     1       8.904  29.392  57.269  1.00  0.00     0.202 C 
HETATM   29  C   UNL     1       7.726  29.237  58.217  1.00  0.00     0.202 C 
ENDBRANCH   1  20
TORSDOF 3
ENDMDL
MODEL 3
REMARK VINA RESULT:     -10.2      3.684      6.871
REMARK  3 active torsions:
REMARK  status: ('A' for Active; 'I' for Inactive)
REMARK    1  A    between atoms: C_2  and  C_3 
REMARK    2  A    between atoms: C_8  and  C_9 
REMARK       I    between atoms: C_9  and  N_10 
REMARK    3  A    between atoms: N_10  and  C_11 
ROOT
HETATM    1  C   UNL     1       4.818  28.147  52.317  1.00  0.00     0.104 A 
HETATM    2  N   UNL     1       4.806  29.441  52.689  1.00  0.00    -0.174 NA
HETATM    3  N   UNL     1       5.373  29.455  53.899  1.00  0.00    -0.288 N 
HETATM    4  H   UNL     1       5.497  30.350  54.363  1.00  0.00     0.188 HD
HETATM    5  C   UNL     1       5.709  28.223  54.350  1.00  0.00     0.128 A 
HETATM    6  C   UNL     1       5.336  27.322  53.368  1.00  0.00     0.080 A 
ENDROOT
BRANCH   6   7
HETATM    7  C   UNL     1       5.511  25.879  53.515  1.00  0.00     0.260 C 
HETATM    8  N   UNL     1       6.790  25.483  53.861  1.00  0.00    -0.323 N 
HETATM    9  H   UNL     1       7.483  26.213  53.962  1.00  0.00     0.169 HD
HETATM   10  O   UNL     1       4.572  25.126  53.281  1.00  0.00    -0.267 OA
BRANCH   8  11
HETATM   11  C   UNL     1       7.261  24.165  54.047  1.00  0.00     0.035 A 
HETATM   12  C   UNL     1       7.471  23.580  55.299  1.00  0.00     0.037 A 
HETATM   13  C   UNL     1       7.926  22.270  55.360  1.00  0.00    -0.050 A 
HETATM   14  C   UNL     1       8.170  21.529  54.201  1.00  0.00    -0.052 A 
HETATM   15  C   UNL     1       8.163  21.440  56.585  1.00  0.00     0.039 C 
HETATM   16  C   UNL     1       8.595  20.136  54.539  1.00  0.00     0.039 C 
HETATM   17  C   UNL     1       7.963  22.085  52.954  1.00  0.00     0.010 A 
HETATM   18  C   UNL     1       9.010  20.297  56.010  1.00  0.00     0.009 C 
HETATM   19  C   UNL     1       7.513  23.409  52.881  1.00  0.00     0.030 A 
ENDBRANCH   8  11
ENDBRANCH   6   7
BRANCH   1  20
HETATM   20  C   UNL     1       4.345  27.795  50.974  1.00  0.00    -0.002 A 
HETATM   21  C   UNL     1       4.982  26.764  50.263  1.00  0.00     0.017 A 
HETATM   22  C   UNL     1       4.533  26.384  48.996  1.00  0.00     0.040 A 
HETATM   23  C   UNL     1       3.438  27.030  48.431  1.00  0.00     0.102 A 
HETATM   24  C   UNL     1       2.808  28.072  49.120  1.00  0.00     0.103 A 
HETATM   25  O   UNL     1       3.032  26.590  47.198  1.00  0.00    -0.346 OA
HETATM   26  C   UNL     1       3.243  28.438  50.396  1.00  0.00     0.053 A 
HETATM   27  O   UNL     1       1.746  28.773  48.608  1.00  0.00    -0.346 OA
HETATM   28  C   UNL     1       1.592  28.541  47.203  1.00  0.00     0.202 C 
HETATM   29  C   UNL     1       1.714  27.059  46.888  1.00  0.00     0.202 C 
ENDBRANCH   1  20
TORSDOF 3
ENDMDL
MODEL 4
REMARK VINA RESULT:     -10.0      2.118      7.971
REMARK  3 active torsions:
REMARK  status: ('A' for Active; 'I' for Inactive)
REMARK    1  A    between atoms: C_2  and  C_3 
REMARK    2  A    between atoms: C_8  and  C_9 
REMARK       I    between atoms: C_9  and  N_10 
REMARK    3  A    between atoms: N_10  and  C_11 
ROOT
HETATM    1  C   UNL     1       5.758  25.415  53.980  1.00  0.00     0.104 A 
HETATM    2  N   UNL     1       4.717  25.413  53.126  1.00  0.00    -0.174 NA
HETATM    3  N   UNL     1       4.233  26.658  53.174  1.00  0.00    -0.288 N 
HETATM    4  H   UNL     1       3.448  26.893  52.573  1.00  0.00     0.188 HD
HETATM    5  C   UNL     1       4.882  27.454  54.056  1.00  0.00     0.128 A 
HETATM    6  C   UNL     1       5.870  26.682  54.641  1.00  0.00     0.080 A 
ENDROOT
BRANCH   6   7
HETATM    7  C   UNL     1       6.762  27.196  55.678  1.00  0.00     0.260 C 
HETATM    8  N   UNL     1       6.730  28.568  55.842  1.00  0.00    -0.323 N 
HETATM    9  H   UNL     1       6.117  29.087  55.227  1.00  0.00     0.169 HD
HETATM   10  O   UNL     1       7.497  26.423  56.284  1.00  0.00    -0.267 OA
BRANCH   8  11
HETATM   11  C   UNL     1       7.493  29.344  56.742  1.00  0.00     0.035 A 
HETATM   12  C   UNL     1       6.952  30.037  57.828  1.00  0.00     0.037 A 
HETATM   13  C   UNL     1       7.802  30.760  58.654  1.00  0.00    -0.050 A 
HETATM   14  C   UNL     1       9.179  30.800  58.425  1.00  0.00    -0.052 A 
HETATM   15  C   UNL     1       7.443  31.523  59.893  1.00  0.00     0.039 C 
HETATM   16  C   UNL     1       9.872  31.595  59.485  1.00  0.00     0.039 C 
HETATM   17  C   UNL     1       9.736  30.117  57.361  1.00  0.00     0.010 A 
HETATM   18  C   UNL     1       8.699  32.385  60.084  1.00  0.00     0.009 C 
HETATM   19  C   UNL     1       8.886  29.393  56.516  1.00  0.00     0.030 A 
ENDBRANCH   8  11
ENDBRANCH   6   7
BRANCH   1  20
HETATM   20  C   UNL     1       6.580  24.206  54.092  1.00  0.00    -0.002 A 
HETATM   21  C   UNL     1       7.161  23.653  52.938  1.00  0.00     0.017 A 
HETATM   22  C   UNL     1       7.977  22.521  53.018  1.00  0.00     0.040 A 
HETATM   23  C   UNL     1       8.222  21.935  54.256  1.00  0.00     0.102 A 
HETATM   24  C   UNL     1       7.632  22.464  55.409  1.00  0.00     0.103 A 
HETATM   25  O   UNL     1       9.052  20.845  54.268  1.00  0.00    -0.346 OA
HETATM   26  C   UNL     1       6.835  23.608  55.333  1.00  0.00     0.053 A 
HETATM   27  O   UNL     1       7.805  21.917  56.656  1.00  0.00    -0.346 OA
HETATM   28  C   UNL     1       8.359  20.598  56.578  1.00  0.00     0.202 C 
HETATM   29  C   UNL     1       9.515  20.560  55.593  1.00  0.00     0.202 C 
ENDBRANCH   1  20
TORSDOF 3
ENDMDL
MODEL 5
REMARK VINA RESULT:     -10.0      2.709      5.482
REMARK  3 active torsions:
REMARK  status: ('A' for Active; 'I' for Inactive)
REMARK    1  A    between atoms: C_2  and  C_3 
REMARK    2  A    between atoms: C_8  and  C_9 
REMARK       I    between atoms: C_9  and  N_10 
REMARK    3  A    between atoms: N_10  and  C_11 
ROOT
HETATM    1  C   UNL     1       5.373  28.689  55.134  1.00  0.00     0.104 A 
HETATM    2  N   UNL     1       5.456  29.873  55.770  1.00  0.00    -0.174 NA
HETATM    3  N   UNL     1       6.084  29.602  56.919  1.00  0.00    -0.288 N 
HETATM    4  H   UNL     1       6.283  30.371  57.552  1.00  0.00     0.188 HD
HETATM    5  C   UNL     1       6.369  28.288  57.079  1.00  0.00     0.128 A 
HETATM    6  C   UNL     1       5.893  27.635  55.955  1.00  0.00     0.080 A 
ENDROOT
BRANCH   6   7
HETATM    7  C   UNL     1       5.991  26.188  55.784  1.00  0.00     0.260 C 
HETATM    8  N   UNL     1       7.034  25.768  54.979  1.00  0.00    -0.323 N 
HETATM    9  H   UNL     1       7.615  26.488  54.572  1.00  0.00     0.169 HD
HETATM   10  O   UNL     1       5.148  25.458  56.296  1.00  0.00    -0.267 OA
BRANCH   8  11
HETATM   11  C   UNL     1       7.359  24.442  54.617  1.00  0.00     0.035 A 
HETATM   12  C   UNL     1       7.487  23.392  55.530  1.00  0.00     0.037 A 
HETATM   13  C   UNL     1       7.800  22.125  55.056  1.00  0.00    -0.050 A 
HETATM   14  C   UNL     1       7.982  21.882  53.693  1.00  0.00    -0.052 A 
HETATM   15  C   UNL     1       7.928  20.859  55.847  1.00  0.00     0.039 C 
HETATM   16  C   UNL     1       8.252  20.433  53.442  1.00  0.00     0.039 C 
HETATM   17  C   UNL     1       7.855  22.904  52.773  1.00  0.00     0.010 A 
HETATM   18  C   UNL     1       8.659  19.955  54.844  1.00  0.00     0.009 C 
HETATM   19  C   UNL     1       7.548  24.188  53.240  1.00  0.00     0.030 A 
ENDBRANCH   8  11
ENDBRANCH   6   7
BRANCH   1  20
HETATM   20  C   UNL     1       4.813  28.654  53.780  1.00  0.00    -0.002 A 
HETATM   21  C   UNL     1       3.699  29.452  53.469  1.00  0.00     0.017 A 
HETATM   22  C   UNL     1       3.165  29.465  52.178  1.00  0.00     0.040 A 
HETATM   23  C   UNL     1       3.743  28.681  51.185  1.00  0.00     0.102 A 
HETATM   24  C   UNL     1       4.839  27.866  51.487  1.00  0.00     0.103 A 
HETATM   25  O   UNL     1       3.187  28.761  49.935  1.00  0.00    -0.346 OA
HETATM   26  C   UNL     1       5.388  27.869  52.772  1.00  0.00     0.053 A 
HETATM   27  O   UNL     1       5.438  27.045  50.566  1.00  0.00    -0.346 OA
HETATM   28  C   UNL     1       4.620  26.878  49.401  1.00  0.00     0.202 C 
HETATM   29  C   UNL     1       4.064  28.216  48.942  1.00  0.00     0.202 C 
ENDBRANCH   1  20
TORSDOF 3
ENDMDL
MODEL 6
REMARK VINA RESULT:      -9.9      3.573      7.746
REMARK  3 active torsions:
REMARK  status: ('A' for Active; 'I' for Inactive)
REMARK    1  A    between atoms: C_2  and  C_3 
REMARK    2  A    between atoms: C_8  and  C_9 
REMARK       I    between atoms: C_9  and  N_10 
REMARK    3  A    between atoms: N_10  and  C_11 
ROOT
HETATM    1  C   UNL     1       7.250  26.358  54.880  1.00  0.00     0.104 A 
HETATM    2  N   UNL     1       8.007  26.920  55.841  1.00  0.00    -0.174 NA
HETATM    3  N   UNL     1       7.524  28.159  55.977  1.00  0.00    -0.288 N 
HETATM    4  H   UNL     1       7.935  28.761  56.684  1.00  0.00     0.188 HD
HETATM    5  C   UNL     1       6.519  28.442  55.114  1.00  0.00     0.128 A 
HETATM    6  C   UNL     1       6.321  27.309  54.345  1.00  0.00     0.080 A 
ENDROOT
BRANCH   6   7
HETATM    7  C   UNL     1       5.331  27.248  53.272  1.00  0.00     0.260 C 
HETATM    8  N   UNL     1       5.859  27.253  51.994  1.00  0.00    -0.323 N 
HETATM    9  H   UNL     1       6.866  27.315  51.917  1.00  0.00     0.169 HD
HETATM   10  O   UNL     1       4.136  27.251  53.548  1.00  0.00    -0.267 OA
BRANCH   8  11
HETATM   11  C   UNL     1       5.152  27.227  50.772  1.00  0.00     0.035 A 
HETATM   12  C   UNL     1       4.604  26.070  50.211  1.00  0.00     0.037 A 
HETATM   13  C   UNL     1       3.919  26.168  49.008  1.00  0.00    -0.050 A 
HETATM   14  C   UNL     1       3.763  27.393  48.356  1.00  0.00    -0.052 A 
HETATM   15  C   UNL     1       3.214  25.074  48.266  1.00  0.00     0.039 C 
HETATM   16  C   UNL     1       2.941  27.236  47.117  1.00  0.00     0.039 C 
HETATM   17  C   UNL     1       4.291  28.550  48.896  1.00  0.00     0.010 A 
HETATM   18  C   UNL     1       3.031  25.720  46.886  1.00  0.00     0.009 C 
HETATM   19  C   UNL     1       4.992  28.462  50.105  1.00  0.00     0.030 A 
ENDBRANCH   8  11
ENDBRANCH   6   7
BRANCH   1  20
HETATM   20  C   UNL     1       7.463  24.945  54.551  1.00  0.00    -0.002 A 
HETATM   21  C   UNL     1       7.586  24.556  53.207  1.00  0.00     0.017 A 
HETATM   22  C   UNL     1       7.823  23.222  52.865  1.00  0.00     0.040 A 
HETATM   23  C   UNL     1       7.942  22.265  53.867  1.00  0.00     0.102 A 
HETATM   24  C   UNL     1       7.799  22.635  55.209  1.00  0.00     0.103 A 
HETATM   25  O   UNL     1       8.200  20.980  53.465  1.00  0.00    -0.346 OA
HETATM   26  C   UNL     1       7.585  23.972  55.553  1.00  0.00     0.053 A 
HETATM   27  O   UNL     1       7.872  21.739  56.244  1.00  0.00    -0.346 OA
HETATM   28  C   UNL     1       7.773  20.388  55.777  1.00  0.00     0.202 C 
HETATM   29  C   UNL     1       8.657  20.177  54.559  1.00  0.00     0.202 C 
ENDBRANCH   1  20
TORSDOF 3
ENDMDL
MODEL 7
REMARK VINA RESULT:      -9.7      3.718      8.180
REMARK  3 active torsions:
REMARK  status: ('A' for Active; 'I' for Inactive)
REMARK    1  A    between atoms: C_2  and  C_3 
REMARK    2  A    between atoms: C_8  and  C_9 
REMARK       I    between atoms: C_9  and  N_10 
REMARK    3  A    between atoms: N_10  and  C_11 
ROOT
HETATM    1  C   UNL     1       7.150  26.099  54.456  1.00  0.00     0.104 A 
HETATM    2  N   UNL     1       7.875  26.841  55.315  1.00  0.00    -0.174 NA
HETATM    3  N   UNL     1       7.324  28.057  55.268  1.00  0.00    -0.288 N 
HETATM    4  H   UNL     1       7.701  28.782  55.872  1.00  0.00     0.188 HD
HETATM    5  C   UNL     1       6.304  28.152  54.381  1.00  0.00     0.128 A 
HETATM    6  C   UNL     1       6.169  26.906  53.792  1.00  0.00     0.080 A 
ENDROOT
BRANCH   6   7
HETATM    7  C   UNL     1       5.183  26.630  52.750  1.00  0.00     0.260 C 
HETATM    8  N   UNL     1       5.275  27.442  51.635  1.00  0.00    -0.323 N 
HETATM    9  H   UNL     1       5.992  28.156  51.648  1.00  0.00     0.169 HD
HETATM   10  O   UNL     1       4.331  25.767  52.934  1.00  0.00    -0.267 OA
BRANCH   8  11
HETATM   11  C   UNL     1       4.450  27.426  50.490  1.00  0.00     0.035 A 
HETATM   12  C   UNL     1       3.478  28.393  50.213  1.00  0.00     0.037 A 
HETATM   13  C   UNL     1       2.732  28.280  49.049  1.00  0.00    -0.050 A 
HETATM   14  C   UNL     1       2.937  27.230  48.151  1.00  0.00    -0.052 A 
HETATM   15  C   UNL     1       1.688  29.226  48.537  1.00  0.00     0.039 C 
HETATM   16  C   UNL     1       2.050  27.371  46.955  1.00  0.00     0.039 C 
HETATM   17  C   UNL     1       3.896  26.267  48.401  1.00  0.00     0.010 A 
HETATM   18  C   UNL     1       0.995  28.357  47.478  1.00  0.00     0.009 C 
HETATM   19  C   UNL     1       4.648  26.366  49.578  1.00  0.00     0.030 A 
ENDBRANCH   8  11
ENDBRANCH   6   7
BRANCH   1  20
HETATM   20  C   UNL     1       7.441  24.667  54.342  1.00  0.00    -0.002 A 
HETATM   21  C   UNL     1       7.575  24.085  53.070  1.00  0.00     0.017 A 
HETATM   22  C   UNL     1       7.885  22.730  52.931  1.00  0.00     0.040 A 
HETATM   23  C   UNL     1       8.068  21.945  54.064  1.00  0.00     0.102 A 
HETATM   24  C   UNL     1       7.916  22.507  55.337  1.00  0.00     0.103 A 
HETATM   25  O   UNL     1       8.396  20.631  53.857  1.00  0.00    -0.346 OA
HETATM   26  C   UNL     1       7.628  23.867  55.477  1.00  0.00     0.053 A 
HETATM   27  O   UNL     1       8.050  21.785  56.495  1.00  0.00    -0.346 OA
HETATM   28  C   UNL     1       8.025  20.375  56.240  1.00  0.00     0.202 C 
HETATM   29  C   UNL     1       8.908  20.030  55.052  1.00  0.00     0.202 C 
ENDBRANCH   1  20
TORSDOF 3
ENDMDL
MODEL 8
REMARK VINA RESULT:      -9.5      1.883      2.837
REMARK  3 active torsions:
REMARK  status: ('A' for Active; 'I' for Inactive)
REMARK    1  A    between atoms: C_2  and  C_3 
REMARK    2  A    between atoms: C_8  and  C_9 
REMARK       I    between atoms: C_9  and  N_10 
REMARK    3  A    between atoms: N_10  and  C_11 
ROOT
HETATM    1  C   UNL     1       5.191  27.671  52.404  1.00  0.00     0.104 A 
HETATM    2  N   UNL     1       4.356  28.304  51.559  1.00  0.00    -0.174 NA
HETATM    3  N   UNL     1       4.218  27.470  50.524  1.00  0.00    -0.288 N 
HETATM    4  H   UNL     1       3.595  27.739  49.768  1.00  0.00     0.188 HD
HETATM    5  C   UNL     1       4.964  26.345  50.637  1.00  0.00     0.128 A 
HETATM    6  C   UNL     1       5.651  26.439  51.835  1.00  0.00     0.080 A 
ENDROOT
BRANCH   6   7
HETATM    7  C   UNL     1       6.591  25.415  52.286  1.00  0.00     0.260 C 
HETATM    8  N   UNL     1       6.191  24.715  53.408  1.00  0.00    -0.323 N 
HETATM    9  H   UNL     1       5.307  24.982  53.822  1.00  0.00     0.169 HD
HETATM   10  O   UNL     1       7.661  25.275  51.702  1.00  0.00    -0.267 OA
BRANCH   8  11
HETATM   11  C   UNL     1       6.897  23.694  54.081  1.00  0.00     0.035 A 
HETATM   12  C   UNL     1       7.380  22.539  53.460  1.00  0.00     0.037 A 
HETATM   13  C   UNL     1       8.072  21.607  54.221  1.00  0.00    -0.050 A 
HETATM   14  C   UNL     1       8.298  21.804  55.585  1.00  0.00    -0.052 A 
HETATM   15  C   UNL     1       8.716  20.339  53.750  1.00  0.00     0.039 C 
HETATM   16  C   UNL     1       9.112  20.688  56.157  1.00  0.00     0.039 C 
HETATM   17  C   UNL     1       7.835  22.941  56.218  1.00  0.00     0.010 A 
HETATM   18  C   UNL     1       8.937  19.606  55.081  1.00  0.00     0.009 C 
HETATM   19  C   UNL     1       7.128  23.884  55.462  1.00  0.00     0.030 A 
ENDBRANCH   8  11
ENDBRANCH   6   7
BRANCH   1  20
HETATM   20  C   UNL     1       5.478  28.285  53.704  1.00  0.00    -0.002 A 
HETATM   21  C   UNL     1       6.776  28.207  54.237  1.00  0.00     0.017 A 
HETATM   22  C   UNL     1       7.088  28.811  55.457  1.00  0.00     0.040 A 
HETATM   23  C   UNL     1       6.104  29.504  56.154  1.00  0.00     0.102 A 
HETATM   24  C   UNL     1       4.802  29.571  55.645  1.00  0.00     0.103 A 
HETATM   25  O   UNL     1       6.483  30.096  57.330  1.00  0.00    -0.346 OA
HETATM   26  C   UNL     1       4.495  28.986  54.415  1.00  0.00     0.053 A 
HETATM   27  O   UNL     1       3.776  30.209  56.295  1.00  0.00    -0.346 OA
HETATM   28  C   UNL     1       4.112  30.486  57.660  1.00  0.00     0.202 C 
HETATM   29  C   UNL     1       5.515  31.061  57.760  1.00  0.00     0.202 C 
ENDBRANCH   1  20
TORSDOF 3
ENDMDL
MODEL 9
REMARK VINA RESULT:      -9.5      3.124      7.650
REMARK  3 active torsions:
REMARK  status: ('A' for Active; 'I' for Inactive)
REMARK    1  A    between atoms: C_2  and  C_3 
REMARK    2  A    between atoms: C_8  and  C_9 
REMARK       I    between atoms: C_9  and  N_10 
REMARK    3  A    between atoms: N_10  and  C_11 
ROOT
HETATM    1  C   UNL     1       7.435  26.051  56.181  1.00  0.00     0.104 A 
HETATM    2  N   UNL     1       7.484  26.199  57.519  1.00  0.00    -0.174 NA
HETATM    3  N   UNL     1       7.264  27.501  57.728  1.00  0.00    -0.288 N 
HETATM    4  H   UNL     1       7.227  27.836  58.686  1.00  0.00     0.188 HD
HETATM    5  C   UNL     1       7.123  28.212  56.584  1.00  0.00     0.128 A 
HETATM    6  C   UNL     1       7.261  27.319  55.536  1.00  0.00     0.080 A 
ENDROOT
BRANCH   6   7
HETATM    7  C   UNL     1       7.202  27.731  54.136  1.00  0.00     0.260 C 
HETATM    8  N   UNL     1       5.980  27.528  53.523  1.00  0.00    -0.323 N 
HETATM    9  H   UNL     1       5.253  27.102  54.084  1.00  0.00     0.169 HD
HETATM   10  O   UNL     1       8.210  28.166  53.588  1.00  0.00    -0.267 OA
BRANCH   8  11
HETATM   11  C   UNL     1       5.635  27.804  52.182  1.00  0.00     0.035 A 
HETATM   12  C   UNL     1       5.279  26.824  51.250  1.00  0.00     0.037 A 
HETATM   13  C   UNL     1       4.948  27.214  49.960  1.00  0.00    -0.050 A 
HETATM   14  C   UNL     1       4.957  28.558  49.581  1.00  0.00    -0.052 A 
HETATM   15  C   UNL     1       4.490  26.343  48.831  1.00  0.00     0.039 C 
HETATM   16  C   UNL     1       4.508  28.715  48.163  1.00  0.00     0.039 C 
HETATM   17  C   UNL     1       5.299  29.543  50.487  1.00  0.00     0.010 A 
HETATM   18  C   UNL     1       4.682  27.284  47.633  1.00  0.00     0.009 C 
HETATM   19  C   UNL     1       5.644  29.160  51.789  1.00  0.00     0.030 A 
ENDBRANCH   8  11
ENDBRANCH   6   7
BRANCH   1  20
HETATM   20  C   UNL     1       7.545  24.702  55.617  1.00  0.00    -0.002 A 
HETATM   21  C   UNL     1       7.205  24.483  54.271  1.00  0.00     0.017 A 
HETATM   22  C   UNL     1       7.331  23.217  53.697  1.00  0.00     0.040 A 
HETATM   23  C   UNL     1       7.804  22.157  54.463  1.00  0.00     0.102 A 
HETATM   24  C   UNL     1       8.126  22.356  55.810  1.00  0.00     0.103 A 
HETATM   25  O   UNL     1       7.930  20.947  53.831  1.00  0.00    -0.346 OA
HETATM   26  C   UNL     1       8.021  23.627  56.380  1.00  0.00     0.053 A 
HETATM   27  O   UNL     1       8.566  21.350  56.632  1.00  0.00    -0.346 OA
HETATM   28  C   UNL     1       8.335  20.060  56.052  1.00  0.00     0.202 C 
HETATM   29  C   UNL     1       8.749  20.049  54.589  1.00  0.00     0.202 C 
ENDBRANCH   1  20
TORSDOF 3
ENDMDL
MODEL 10
REMARK VINA RESULT:      -9.4      3.038      7.392
REMARK  3 active torsions:
REMARK  status: ('A' for Active; 'I' for Inactive)
REMARK    1  A    between atoms: C_2  and  C_3 
REMARK    2  A    between atoms: C_8  and  C_9 
REMARK       I    between atoms: C_9  and  N_10 
REMARK    3  A    between atoms: N_10  and  C_11 
ROOT
HETATM    1  C   UNL     1       7.603  26.686  56.596  1.00  0.00     0.104 A 
HETATM    2  N   UNL     1       7.596  27.059  57.889  1.00  0.00    -0.174 NA
HETATM    3  N   UNL     1       7.260  28.352  57.871  1.00  0.00    -0.288 N 
HETATM    4  H   UNL     1       7.164  28.838  58.759  1.00  0.00     0.188 HD
HETATM    5  C   UNL     1       7.096  28.848  56.622  1.00  0.00     0.128 A 
HETATM    6  C   UNL     1       7.343  27.808  55.742  1.00  0.00     0.080 A 
ENDROOT
BRANCH   6   7
HETATM    7  C   UNL     1       7.294  27.974  54.292  1.00  0.00     0.260 C 
HETATM    8  N   UNL     1       6.059  27.729  53.722  1.00  0.00    -0.323 N 
HETATM    9  H   UNL     1       5.316  27.443  54.346  1.00  0.00     0.169 HD
HETATM   10  O   UNL     1       8.318  28.257  53.679  1.00  0.00    -0.267 OA
BRANCH   8  11
HETATM   11  C   UNL     1       5.718  27.785  52.352  1.00  0.00     0.035 A 
HETATM   12  C   UNL     1       5.672  28.966  51.607  1.00  0.00     0.037 A 
HETATM   13  C   UNL     1       5.335  28.899  50.262  1.00  0.00    -0.050 A 
HETATM   14  C   UNL     1       5.049  27.680  49.644  1.00  0.00    -0.052 A 
HETATM   15  C   UNL     1       5.280  30.025  49.275  1.00  0.00     0.039 C 
HETATM   16  C   UNL     1       4.774  27.873  48.187  1.00  0.00     0.039 C 
HETATM   17  C   UNL     1       5.095  26.499  50.360  1.00  0.00     0.010 A 
HETATM   18  C   UNL     1       4.482  29.380  48.133  1.00  0.00     0.009 C 
HETATM   19  C   UNL     1       5.425  26.557  51.719  1.00  0.00     0.030 A 
ENDBRANCH   8  11
ENDBRANCH   6   7
BRANCH   1  20
HETATM   20  C   UNL     1       7.845  25.278  56.269  1.00  0.00    -0.002 A 
HETATM   21  C   UNL     1       8.419  24.430  57.232  1.00  0.00     0.017 A 
HETATM   22  C   UNL     1       8.631  23.077  56.962  1.00  0.00     0.040 A 
HETATM   23  C   UNL     1       8.265  22.556  55.725  1.00  0.00     0.102 A 
HETATM   24  C   UNL     1       7.712  23.393  54.749  1.00  0.00     0.103 A 
HETATM   25  O   UNL     1       8.475  21.215  55.534  1.00  0.00    -0.346 OA
HETATM   26  C   UNL     1       7.480  24.742  55.026  1.00  0.00     0.053 A 
HETATM   27  O   UNL     1       7.360  22.954  53.498  1.00  0.00    -0.346 OA
HETATM   28  C   UNL     1       7.923  21.667  53.216  1.00  0.00     0.202 C 
HETATM   29  C   UNL     1       7.743  20.732  54.401  1.00  0.00     0.202 C 
ENDBRANCH   1  20
TORSDOF 3
ENDMDL
