MODEL 1
REMARK VINA RESULT:      -7.4      0.000      0.000
REMARK  3 active torsions:
REMARK  status: ('A' for Active; 'I' for Inactive)
REMARK    1  A    between atoms: N_7  and  O_8 
REMARK    2  A    between atoms: O_8  and  C_9 
REMARK    3  A    between atoms: C_9  and  C_10 
ROOT
HETATM    1  O   UNL     1       7.075  26.371  56.380  1.00  0.00    -0.170 OA
ENDROOT
BRANCH   1   2
HETATM    2  N   UNL     1       6.795  27.361  57.338  1.00  0.00    -0.134 NA
HETATM    3  C   UNL     1       7.203  28.537  56.994  1.00  0.00     0.043 C 
HETATM    4  C   UNL     1       7.948  28.895  55.737  1.00  0.00     0.084 C 
HETATM    5  C   UNL     1       7.074  29.649  58.000  1.00  0.00     0.084 C 
HETATM    6  C   UNL     1       9.363  29.243  56.171  1.00  0.00     0.240 C 
HETATM    7  N   UNL     1       9.339  30.338  57.231  1.00  0.00    -0.074 N 
HETATM    8  C   UNL     1      10.738  30.718  57.648  1.00  0.00     0.269 C 
HETATM    9  H   UNL     1       8.927  31.183  56.811  1.00  0.00     0.279 HD
HETATM   10  C   UNL     1       8.492  29.964  58.445  1.00  0.00     0.240 C 
ENDBRANCH   1   2
BRANCH   1  11
HETATM   11  C   UNL     1       7.798  25.368  56.975  1.00  0.00     0.317 C 
HETATM   12  O   UNL     1       8.349  25.416  58.066  1.00  0.00    -0.257 OA
BRANCH  11  13
HETATM   13  C   UNL     1       7.923  24.195  56.065  1.00  0.00     0.041 A 
HETATM   14  C   UNL     1       7.627  24.392  54.707  1.00  0.00     0.019 A 
HETATM   15  C   UNL     1       7.698  23.329  53.805  1.00  0.00     0.020 A 
HETATM   16  C   UNL     1       8.066  22.065  54.257  1.00  0.00     0.011 A 
HETATM   17 BR   UNL     1       8.149  20.621  53.041  1.00  0.00    -0.051 Br
HETATM   18  C   UNL     1       8.374  21.856  55.602  1.00  0.00     0.020 A 
HETATM   19  C   UNL     1       8.304  22.921  56.508  1.00  0.00     0.019 A 
ENDBRANCH  11  13
ENDBRANCH   1  11
TORSDOF 3
ENDMDL
MODEL 2
REMARK VINA RESULT:      -7.3      1.131      1.750
REMARK  3 active torsions:
REMARK  status: ('A' for Active; 'I' for Inactive)
REMARK    1  A    between atoms: N_7  and  O_8 
REMARK    2  A    between atoms: O_8  and  C_9 
REMARK    3  A    between atoms: C_9  and  C_10 
ROOT
HETATM    1  O   UNL     1       7.587  26.739  55.184  1.00  0.00    -0.170 OA
ENDROOT
BRANCH   1   2
HETATM    2  N   UNL     1       6.711  27.779  55.544  1.00  0.00    -0.134 NA
HETATM    3  C   UNL     1       7.318  28.871  55.871  1.00  0.00     0.043 C 
HETATM    4  C   UNL     1       8.805  29.085  55.931  1.00  0.00     0.084 C 
HETATM    5  C   UNL     1       6.485  30.008  56.399  1.00  0.00     0.084 C 
HETATM    6  C   UNL     1       9.152  29.218  57.406  1.00  0.00     0.240 C 
HETATM    7  N   UNL     1       8.322  30.322  58.049  1.00  0.00    -0.074 N 
HETATM    8  C   UNL     1       8.679  30.489  59.506  1.00  0.00     0.269 C 
HETATM    9  H   UNL     1       8.564  31.213  57.593  1.00  0.00     0.279 HD
HETATM   10  C   UNL     1       6.820  30.107  57.877  1.00  0.00     0.240 C 
ENDBRANCH   1   2
BRANCH   1  11
HETATM   11  C   UNL     1       7.291  25.628  55.934  1.00  0.00     0.317 C 
HETATM   12  O   UNL     1       6.953  25.612  57.109  1.00  0.00    -0.257 OA
BRANCH  11  13
HETATM   13  C   UNL     1       7.528  24.384  55.150  1.00  0.00     0.041 A 
HETATM   14  C   UNL     1       7.566  23.170  55.854  1.00  0.00     0.019 A 
HETATM   15  C   UNL     1       7.811  21.969  55.184  1.00  0.00     0.020 A 
HETATM   16  C   UNL     1       8.015  21.979  53.807  1.00  0.00     0.011 A 
HETATM   17 BR   UNL     1       8.361  20.358  52.899  1.00  0.00    -0.051 Br
HETATM   18  C   UNL     1       7.969  23.176  53.092  1.00  0.00     0.020 A 
HETATM   19  C   UNL     1       7.723  24.381  53.762  1.00  0.00     0.019 A 
ENDBRANCH  11  13
ENDBRANCH   1  11
TORSDOF 3
ENDMDL
MODEL 3
REMARK VINA RESULT:      -7.3      1.850      2.880
REMARK  3 active torsions:
REMARK  status: ('A' for Active; 'I' for Inactive)
REMARK    1  A    between atoms: N_7  and  O_8 
REMARK    2  A    between atoms: O_8  and  C_9 
REMARK    3  A    between atoms: C_9  and  C_10 
ROOT
HETATM    1  O   UNL     1       7.237  28.309  55.192  1.00  0.00    -0.170 OA
ENDROOT
BRANCH   1   2
HETATM    2  N   UNL     1       8.566  28.763  55.267  1.00  0.00    -0.134 NA
HETATM    3  C   UNL     1       9.029  28.797  56.473  1.00  0.00     0.043 C 
HETATM    4  C   UNL     1       8.281  28.447  57.730  1.00  0.00     0.084 C 
HETATM    5  C   UNL     1      10.396  29.391  56.684  1.00  0.00     0.084 C 
HETATM    6  C   UNL     1       8.066  29.758  58.470  1.00  0.00     0.240 C 
HETATM    7  N   UNL     1       9.397  30.465  58.696  1.00  0.00    -0.074 N 
HETATM    8  C   UNL     1       9.204  31.752  59.459  1.00  0.00     0.269 C 
HETATM    9  H   UNL     1       9.982  29.865  59.293  1.00  0.00     0.279 HD
HETATM   10  C   UNL     1      10.161  30.711  57.397  1.00  0.00     0.240 C 
ENDBRANCH   1   2
BRANCH   1  11
HETATM   11  C   UNL     1       7.010  27.803  53.937  1.00  0.00     0.317 C 
HETATM   12  O   UNL     1       6.547  28.408  52.981  1.00  0.00    -0.257 OA
BRANCH  11  13
HETATM   13  C   UNL     1       7.315  26.346  53.892  1.00  0.00     0.041 A 
HETATM   14  C   UNL     1       7.653  25.791  52.647  1.00  0.00     0.019 A 
HETATM   15  C   UNL     1       7.924  24.426  52.530  1.00  0.00     0.020 A 
HETATM   16  C   UNL     1       7.860  23.612  53.657  1.00  0.00     0.011 A 
HETATM   17 BR   UNL     1       8.213  21.762  53.499  1.00  0.00    -0.051 Br
HETATM   18  C   UNL     1       7.536  24.151  54.903  1.00  0.00     0.020 A 
HETATM   19  C   UNL     1       7.265  25.519  55.023  1.00  0.00     0.019 A 
ENDBRANCH  11  13
ENDBRANCH   1  11
TORSDOF 3
ENDMDL
MODEL 4
REMARK VINA RESULT:      -7.3      3.848      5.016
REMARK  3 active torsions:
REMARK  status: ('A' for Active; 'I' for Inactive)
REMARK    1  A    between atoms: N_7  and  O_8 
REMARK    2  A    between atoms: O_8  and  C_9 
REMARK    3  A    between atoms: C_9  and  C_10 
ROOT
HETATM    1  O   UNL     1       7.005  27.059  53.876  1.00  0.00    -0.170 OA
ENDROOT
BRANCH   1   2
HETATM    2  N   UNL     1       5.786  27.742  54.025  1.00  0.00    -0.134 NA
HETATM    3  C   UNL     1       4.877  27.356  53.193  1.00  0.00     0.043 C 
HETATM    4  C   UNL     1       5.032  26.320  52.114  1.00  0.00     0.084 C 
HETATM    5  C   UNL     1       3.574  28.110  53.175  1.00  0.00     0.084 C 
HETATM    6  C   UNL     1       4.996  27.077  50.795  1.00  0.00     0.240 C 
HETATM    7  N   UNL     1       3.726  27.914  50.698  1.00  0.00    -0.074 N 
HETATM    8  C   UNL     1       3.660  28.646  49.380  1.00  0.00     0.269 C 
HETATM    9  H   UNL     1       2.919  27.276  50.710  1.00  0.00     0.279 HD
HETATM   10  C   UNL     1       3.567  28.883  51.867  1.00  0.00     0.240 C 
ENDBRANCH   1   2
BRANCH   1  11
HETATM   11  C   UNL     1       7.207  26.262  54.976  1.00  0.00     0.317 C 
HETATM   12  O   UNL     1       7.248  26.629  56.142  1.00  0.00    -0.257 OA
BRANCH  11  13
HETATM   13  C   UNL     1       7.475  24.856  54.567  1.00  0.00     0.041 A 
HETATM   14  C   UNL     1       7.820  24.623  53.226  1.00  0.00     0.019 A 
HETATM   15  C   UNL     1       8.057  23.324  52.771  1.00  0.00     0.020 A 
HETATM   16  C   UNL     1       7.954  22.254  53.656  1.00  0.00     0.011 A 
HETATM   17 BR   UNL     1       8.261  20.495  53.039  1.00  0.00    -0.051 Br
HETATM   18  C   UNL     1       7.623  22.471  54.993  1.00  0.00     0.020 A 
HETATM   19  C   UNL     1       7.385  23.772  55.453  1.00  0.00     0.019 A 
ENDBRANCH  11  13
ENDBRANCH   1  11
TORSDOF 3
ENDMDL
MODEL 5
REMARK VINA RESULT:      -7.2      5.659      8.993
REMARK  3 active torsions:
REMARK  status: ('A' for Active; 'I' for Inactive)
REMARK    1  A    between atoms: N_7  and  O_8 
REMARK    2  A    between atoms: O_8  and  C_9 
REMARK    3  A    between atoms: C_9  and  C_10 
ROOT
HETATM    1  O   UNL     1       7.489  30.714  59.281  1.00  0.00    -0.170 OA
ENDROOT
BRANCH   1   2
HETATM    2  N   UNL     1       8.327  29.690  58.805  1.00  0.00    -0.134 NA
HETATM    3  C   UNL     1       7.889  29.126  57.729  1.00  0.00     0.043 C 
HETATM    4  C   UNL     1       6.604  29.439  57.014  1.00  0.00     0.084 C 
HETATM    5  C   UNL     1       8.639  27.930  57.206  1.00  0.00     0.084 C 
HETATM    6  C   UNL     1       5.697  28.239  57.233  1.00  0.00     0.240 C 
HETATM    7  N   UNL     1       6.388  26.960  56.774  1.00  0.00    -0.074 N 
HETATM    8  C   UNL     1       5.487  25.763  56.954  1.00  0.00     0.269 C 
HETATM    9  H   UNL     1       6.562  27.036  55.761  1.00  0.00     0.279 HD
HETATM   10  C   UNL     1       7.733  26.738  57.459  1.00  0.00     0.240 C 
ENDBRANCH   1   2
BRANCH   1  11
HETATM   11  C   UNL     1       8.263  31.780  59.665  1.00  0.00     0.317 C 
HETATM   12  O   UNL     1       9.190  32.270  59.036  1.00  0.00    -0.257 OA
BRANCH  11  13
HETATM   13  C   UNL     1       7.892  32.236  61.033  1.00  0.00     0.041 A 
HETATM   14  C   UNL     1       6.777  33.080  61.158  1.00  0.00     0.019 A 
HETATM   15  C   UNL     1       6.391  33.565  62.409  1.00  0.00     0.020 A 
HETATM   16  C   UNL     1       7.118  33.206  63.541  1.00  0.00     0.011 A 
HETATM   17 BR   UNL     1       6.607  33.873  65.234  1.00  0.00    -0.051 Br
HETATM   18  C   UNL     1       8.221  32.359  63.434  1.00  0.00     0.020 A 
HETATM   19  C   UNL     1       8.609  31.871  62.181  1.00  0.00     0.019 A 
ENDBRANCH  11  13
ENDBRANCH   1  11
TORSDOF 3
ENDMDL
MODEL 6
REMARK VINA RESULT:      -7.0      4.817      6.957
REMARK  3 active torsions:
REMARK  status: ('A' for Active; 'I' for Inactive)
REMARK    1  A    between atoms: N_7  and  O_8 
REMARK    2  A    between atoms: O_8  and  C_9 
REMARK    3  A    between atoms: C_9  and  C_10 
ROOT
HETATM    1  O   UNL     1       8.785  32.444  59.545  1.00  0.00    -0.170 OA
ENDROOT
BRANCH   1   2
HETATM    2  N   UNL     1       9.017  32.009  60.862  1.00  0.00    -0.134 NA
HETATM    3  C   UNL     1       7.952  31.994  61.592  1.00  0.00     0.043 C 
HETATM    4  C   UNL     1       6.572  32.423  61.173  1.00  0.00     0.084 C 
HETATM    5  C   UNL     1       8.106  31.671  63.054  1.00  0.00     0.084 C 
HETATM    6  C   UNL     1       6.285  33.712  61.926  1.00  0.00     0.240 C 
HETATM    7  N   UNL     1       6.459  33.501  63.426  1.00  0.00    -0.074 N 
HETATM    8  C   UNL     1       6.145  34.764  64.190  1.00  0.00     0.269 C 
HETATM    9  H   UNL     1       5.769  32.802  63.734  1.00  0.00     0.279 HD
HETATM   10  C   UNL     1       7.845  32.975  63.790  1.00  0.00     0.240 C 
ENDBRANCH   1   2
BRANCH   1  11
HETATM   11  C   UNL     1       9.562  31.705  58.689  1.00  0.00     0.317 C 
HETATM   12  O   UNL     1      10.689  31.983  58.305  1.00  0.00    -0.257 OA
BRANCH  11  13
HETATM   13  C   UNL     1       8.812  30.522  58.182  1.00  0.00     0.041 A 
HETATM   14  C   UNL     1       9.558  29.467  57.632  1.00  0.00     0.019 A 
HETATM   15  C   UNL     1       8.915  28.340  57.114  1.00  0.00     0.020 A 
HETATM   16  C   UNL     1       7.526  28.263  57.147  1.00  0.00     0.011 A 
HETATM   17 BR   UNL     1       6.653  26.746  56.434  1.00  0.00    -0.051 Br
HETATM   18  C   UNL     1       6.772  29.299  57.701  1.00  0.00     0.020 A 
HETATM   19  C   UNL     1       7.414  30.429  58.221  1.00  0.00     0.019 A 
ENDBRANCH  11  13
ENDBRANCH   1  11
TORSDOF 3
ENDMDL
MODEL 7
REMARK VINA RESULT:      -7.0      3.358      6.723
REMARK  3 active torsions:
REMARK  status: ('A' for Active; 'I' for Inactive)
REMARK    1  A    between atoms: N_7  and  O_8 
REMARK    2  A    between atoms: O_8  and  C_9 
REMARK    3  A    between atoms: C_9  and  C_10 
ROOT
HETATM    1  O   UNL     1       6.062  25.596  55.204  1.00  0.00    -0.170 OA
ENDROOT
BRANCH   1   2
HETATM    2  N   UNL     1       6.899  24.716  55.912  1.00  0.00    -0.134 NA
HETATM    3  C   UNL     1       7.802  24.162  55.174  1.00  0.00     0.043 C 
HETATM    4  C   UNL     1       7.986  24.347  53.692  1.00  0.00     0.084 C 
HETATM    5  C   UNL     1       8.669  23.102  55.799  1.00  0.00     0.084 C 
HETATM    6  C   UNL     1       7.581  23.030  53.049  1.00  0.00     0.240 C 
HETATM    7  N   UNL     1       8.376  21.878  53.652  1.00  0.00    -0.074 N 
HETATM    8  C   UNL     1       8.009  20.568  53.000  1.00  0.00     0.269 C 
HETATM    9  H   UNL     1       9.372  22.031  53.441  1.00  0.00     0.279 HD
HETATM   10  C   UNL     1       8.232  21.792  55.169  1.00  0.00     0.240 C 
ENDBRANCH   1   2
BRANCH   1  11
HETATM   11  C   UNL     1       5.743  26.657  56.014  1.00  0.00     0.317 C 
HETATM   12  O   UNL     1       4.636  26.929  56.455  1.00  0.00    -0.257 OA
BRANCH  11  13
HETATM   13  C   UNL     1       6.930  27.531  56.230  1.00  0.00     0.041 A 
HETATM   14  C   UNL     1       7.308  27.798  57.556  1.00  0.00     0.019 A 
HETATM   15  C   UNL     1       8.394  28.632  57.829  1.00  0.00     0.020 A 
HETATM   16  C   UNL     1       9.108  29.200  56.777  1.00  0.00     0.011 A 
HETATM   17 BR   UNL     1      10.570  30.340  57.144  1.00  0.00    -0.051 Br
HETATM   18  C   UNL     1       8.751  28.935  55.455  1.00  0.00     0.020 A 
HETATM   19  C   UNL     1       7.663  28.099  55.178  1.00  0.00     0.019 A 
ENDBRANCH  11  13
ENDBRANCH   1  11
TORSDOF 3
ENDMDL
MODEL 8
REMARK VINA RESULT:      -6.9      6.307      7.991
REMARK  3 active torsions:
REMARK  status: ('A' for Active; 'I' for Inactive)
REMARK    1  A    between atoms: N_7  and  O_8 
REMARK    2  A    between atoms: O_8  and  C_9 
REMARK    3  A    between atoms: C_9  and  C_10 
ROOT
HETATM    1  O   UNL     1       5.476  26.756  50.687  1.00  0.00    -0.170 OA
ENDROOT
BRANCH   1   2
HETATM    2  N   UNL     1       4.561  25.944  49.994  1.00  0.00    -0.134 NA
HETATM    3  C   UNL     1       4.367  26.317  48.773  1.00  0.00     0.043 C 
HETATM    4  C   UNL     1       4.981  27.509  48.092  1.00  0.00     0.084 C 
HETATM    5  C   UNL     1       3.310  25.599  47.977  1.00  0.00     0.084 C 
HETATM    6  C   UNL     1       3.851  28.507  47.890  1.00  0.00     0.240 C 
HETATM    7  N   UNL     1       2.702  27.859  47.127  1.00  0.00    -0.074 N 
HETATM    8  C   UNL     1       1.586  28.846  46.889  1.00  0.00     0.269 C 
HETATM    9  H   UNL     1       3.046  27.588  46.195  1.00  0.00     0.279 HD
HETATM   10  C   UNL     1       2.177  26.598  47.810  1.00  0.00     0.240 C 
ENDBRANCH   1   2
BRANCH   1  11
HETATM   11  C   UNL     1       5.245  26.636  52.035  1.00  0.00     0.317 C 
HETATM   12  O   UNL     1       4.488  27.322  52.707  1.00  0.00    -0.257 OA
BRANCH  11  13
HETATM   13  C   UNL     1       6.126  25.594  52.631  1.00  0.00     0.041 A 
HETATM   14  C   UNL     1       5.785  25.104  53.902  1.00  0.00     0.019 A 
HETATM   15  C   UNL     1       6.585  24.146  54.530  1.00  0.00     0.020 A 
HETATM   16  C   UNL     1       7.726  23.673  53.888  1.00  0.00     0.011 A 
HETATM   17 BR   UNL     1       8.817  22.388  54.741  1.00  0.00    -0.051 Br
HETATM   18  C   UNL     1       8.072  24.143  52.621  1.00  0.00     0.020 A 
HETATM   19  C   UNL     1       7.272  25.103  51.989  1.00  0.00     0.019 A 
ENDBRANCH  11  13
ENDBRANCH   1  11
TORSDOF 3
ENDMDL
MODEL 9
REMARK VINA RESULT:      -6.8      3.966      6.356
REMARK  3 active torsions:
REMARK  status: ('A' for Active; 'I' for Inactive)
REMARK    1  A    between atoms: N_7  and  O_8 
REMARK    2  A    between atoms: O_8  and  C_9 
REMARK    3  A    between atoms: C_9  and  C_10 
ROOT
HETATM    1  O   UNL     1       7.264  25.005  56.372  1.00  0.00    -0.170 OA
ENDROOT
BRANCH   1   2
HETATM    2  N   UNL     1       7.386  23.688  56.850  1.00  0.00    -0.134 NA
HETATM    3  C   UNL     1       8.252  22.985  56.199  1.00  0.00     0.043 C 
HETATM    4  C   UNL     1       9.061  23.434  55.013  1.00  0.00     0.084 C 
HETATM    5  C   UNL     1       8.370  21.524  56.540  1.00  0.00     0.084 C 
HETATM    6  C   UNL     1       8.512  22.672  53.817  1.00  0.00     0.240 C 
HETATM    7  N   UNL     1       8.545  21.171  54.082  1.00  0.00    -0.074 N 
HETATM    8  C   UNL     1       8.034  20.400  52.890  1.00  0.00     0.269 C 
HETATM    9  H   UNL     1       9.528  20.889  54.204  1.00  0.00     0.279 HD
HETATM   10  C   UNL     1       7.791  20.779  55.349  1.00  0.00     0.240 C 
ENDBRANCH   1   2
BRANCH   1  11
HETATM   11  C   UNL     1       5.935  25.286  56.174  1.00  0.00     0.317 C 
HETATM   12  O   UNL     1       5.033  25.146  56.987  1.00  0.00    -0.257 OA
BRANCH  11  13
HETATM   13  C   UNL     1       5.689  25.707  54.767  1.00  0.00     0.041 A 
HETATM   14  C   UNL     1       5.418  24.702  53.825  1.00  0.00     0.019 A 
HETATM   15  C   UNL     1       5.205  25.027  52.483  1.00  0.00     0.020 A 
HETATM   16  C   UNL     1       5.259  26.358  52.080  1.00  0.00     0.011 A 
HETATM   17 BR   UNL     1       4.985  26.799  50.263  1.00  0.00    -0.051 Br
HETATM   18  C   UNL     1       5.516  27.369  53.006  1.00  0.00     0.020 A 
HETATM   19  C   UNL     1       5.730  27.046  54.352  1.00  0.00     0.019 A 
ENDBRANCH  11  13
ENDBRANCH   1  11
TORSDOF 3
ENDMDL
MODEL 10
REMARK VINA RESULT:      -6.8      3.079      4.395
REMARK  3 active torsions:
REMARK  status: ('A' for Active; 'I' for Inactive)
REMARK    1  A    between atoms: N_7  and  O_8 
REMARK    2  A    between atoms: O_8  and  C_9 
REMARK    3  A    between atoms: C_9  and  C_10 
ROOT
HETATM    1  O   UNL     1       6.909  23.308  55.642  1.00  0.00    -0.170 OA
ENDROOT
BRANCH   1   2
HETATM    2  N   UNL     1       7.720  24.151  56.422  1.00  0.00    -0.134 NA
HETATM    3  C   UNL     1       7.050  25.014  57.111  1.00  0.00     0.043 C 
HETATM    4  C   UNL     1       5.558  25.198  57.108  1.00  0.00     0.084 C 
HETATM    5  C   UNL     1       7.822  26.051  57.881  1.00  0.00     0.084 C 
HETATM    6  C   UNL     1       5.299  26.525  56.411  1.00  0.00     0.240 C 
HETATM    7  N   UNL     1       6.078  27.643  57.093  1.00  0.00    -0.074 N 
HETATM    8  C   UNL     1       5.806  28.972  56.433  1.00  0.00     0.269 C 
HETATM    9  H   UNL     1       5.736  27.730  58.060  1.00  0.00     0.279 HD
HETATM   10  C   UNL     1       7.578  27.363  57.156  1.00  0.00     0.240 C 
ENDBRANCH   1   2
BRANCH   1  11
HETATM   11  C   UNL     1       7.506  23.123  54.420  1.00  0.00     0.317 C 
HETATM   12  O   UNL     1       8.433  22.367  54.170  1.00  0.00    -0.257 OA
BRANCH  11  13
HETATM   13  C   UNL     1       6.935  24.054  53.407  1.00  0.00     0.041 A 
HETATM   14  C   UNL     1       5.564  24.344  53.490  1.00  0.00     0.019 A 
HETATM   15  C   UNL     1       4.960  25.188  52.556  1.00  0.00     0.020 A 
HETATM   16  C   UNL     1       5.726  25.747  51.537  1.00  0.00     0.011 A 
HETATM   17 BR   UNL     1       4.908  26.878  50.262  1.00  0.00    -0.051 Br
HETATM   18  C   UNL     1       7.092  25.477  51.448  1.00  0.00     0.020 A 
HETATM   19  C   UNL     1       7.699  24.632  52.383  1.00  0.00     0.019 A 
ENDBRANCH  11  13
ENDBRANCH   1  11
TORSDOF 3
ENDMDL
