MODEL 1
REMARK VINA RESULT:     -11.5      0.000      0.000
REMARK  10 active torsions:
REMARK  status: ('A' for Active; 'I' for Inactive)
REMARK    1  A    between atoms: S_2  and  C_3 
REMARK    2  A    between atoms: C_5  and  N_6 
REMARK    3  A    between atoms: N_6  and  C_7 
REMARK    4  A    between atoms: C_11  and  C_12 
REMARK       I    between atoms: C_12  and  N_13 
REMARK    5  A    between atoms: N_13  and  C_14 
REMARK    6  A    between atoms: C_14  and  C_15 
REMARK    7  A    between atoms: C_15  and  C_16 
REMARK    8  A    between atoms: C_16  and  N_17 
REMARK    9  A    between atoms: C_21  and  C_22 
REMARK   10  A    between atoms: C_22  and  C_23 
ROOT
HETATM    1  C   UNL     1       6.038  29.346  56.841  1.00  0.00     0.252 C 
HETATM    2  N   UNL     1       5.829  29.794  55.554  1.00  0.00    -0.357 N 
HETATM    3  O   UNL     1       5.339  28.476  57.350  1.00  0.00    -0.268 OA
HETATM    4  H   UNL     1       6.325  30.648  55.319  1.00  0.00     0.162 HD
ENDROOT
BRANCH   1   5
HETATM    5  C   UNL     1       7.016  30.076  57.708  1.00  0.00     0.048 A 
HETATM    6  C   UNL     1       8.422  30.070  57.587  1.00  0.00     0.009 A 
HETATM    7  C   UNL     1       9.100  31.068  58.320  1.00  0.00     0.070 A 
HETATM    8  C   UNL     1       9.195  29.152  56.825  1.00  0.00     0.015 A 
HETATM    9  N   UNL     1       8.481  31.944  59.129  1.00  0.00    -0.231 NA
HETATM   10  C   UNL     1      10.478  31.170  58.206  1.00  0.00     0.032 A 
HETATM   11  C   UNL     1       7.152  31.894  59.295  1.00  0.00     0.129 A 
HETATM   12  C   UNL     1       6.407  30.938  58.631  1.00  0.00     0.068 A 
HETATM   13  C   UNL     1      11.223  30.299  57.410  1.00  0.00     0.002 A 
HETATM   14  C   UNL     1      10.581  29.276  56.730  1.00  0.00     0.001 A 
BRANCH  11  15
HETATM   15  N   UNL     1       6.459  32.747  60.190  1.00  0.00    -0.341 N 
HETATM   16  H   UNL     1       6.288  33.642  59.734  1.00  0.00     0.167 HD
BRANCH  15  17
HETATM   17  C   UNL     1       6.744  33.036  61.546  1.00  0.00     0.034 A 
HETATM   18  C   UNL     1       5.971  33.887  62.341  1.00  0.00     0.048 A 
HETATM   19  C   UNL     1       6.259  34.060  63.701  1.00  0.00     0.002 A 
HETATM   20  C   UNL     1       7.318  33.356  64.279  1.00  0.00     0.018 A 
HETATM   21  C   UNL     1       8.095  32.499  63.502  1.00  0.00     0.004 A 
HETATM   22  C   UNL     1       7.804  32.339  62.148  1.00  0.00     0.029 A 
BRANCH  19  23
HETATM   23  S   UNL     1       5.224  35.132  64.683  1.00  0.00    -0.134 SA
HETATM   24  C   UNL     1       4.645  33.933  65.912  1.00  0.00     0.095 C 
ENDBRANCH  19  23
ENDBRANCH  15  17
ENDBRANCH  11  15
ENDBRANCH   1   5
BRANCH   2  25
HETATM   25  C   UNL     1       4.577  29.662  54.823  1.00  0.00     0.124 C 
BRANCH  25  26
HETATM   26  C   UNL     1       4.111  28.313  54.250  1.00  0.00     0.047 C 
BRANCH  26  27
HETATM   27  C   UNL     1       4.497  27.801  52.855  1.00  0.00     0.236 C 
BRANCH  27  28
HETATM   28  N   UNL     1       5.856  27.115  52.664  1.00  0.00    -0.071 N 
HETATM   29  H   UNL     1       6.469  27.807  52.215  1.00  0.00     0.279 HD
HETATM   30  C   UNL     1       6.454  26.844  54.041  1.00  0.00     0.235 C 
HETATM   31  C   UNL     1       7.786  26.104  53.954  1.00  0.00     0.032 C 
HETATM   32  C   UNL     1       7.711  24.825  53.105  1.00  0.00    -0.007 C 
HETATM   33  C   UNL     1       7.225  25.242  51.717  1.00  0.00     0.032 C 
HETATM   34  C   UNL     1       5.863  25.913  51.767  1.00  0.00     0.235 C 
BRANCH  32  35
HETATM   35  C   UNL     1       6.840  23.746  53.796  1.00  0.00     0.043 C 
BRANCH  35  36
HETATM   36  C   UNL     1       7.533  22.443  54.115  1.00  0.00    -0.058 A 
HETATM   37  C   UNL     1       7.649  22.005  55.439  1.00  0.00     0.007 A 
HETATM   38  C   UNL     1       8.237  20.769  55.724  1.00  0.00     0.001 A 
HETATM   39  C   UNL     1       8.718  19.963  54.694  1.00  0.00     0.000 A 
HETATM   40  C   UNL     1       8.621  20.394  53.376  1.00  0.00     0.001 A 
HETATM   41  C   UNL     1       8.039  21.628  53.091  1.00  0.00     0.007 A 
ENDBRANCH  35  36
ENDBRANCH  32  35
ENDBRANCH  27  28
ENDBRANCH  26  27
ENDBRANCH  25  26
ENDBRANCH   2  25
TORSDOF 10
ENDMDL
MODEL 2
REMARK VINA RESULT:     -11.0      2.385      3.727
REMARK  10 active torsions:
REMARK  status: ('A' for Active; 'I' for Inactive)
REMARK    1  A    between atoms: S_2  and  C_3 
REMARK    2  A    between atoms: C_5  and  N_6 
REMARK    3  A    between atoms: N_6  and  C_7 
REMARK    4  A    between atoms: C_11  and  C_12 
REMARK       I    between atoms: C_12  and  N_13 
REMARK    5  A    between atoms: N_13  and  C_14 
REMARK    6  A    between atoms: C_14  and  C_15 
REMARK    7  A    between atoms: C_15  and  C_16 
REMARK    8  A    between atoms: C_16  and  N_17 
REMARK    9  A    between atoms: C_21  and  C_22 
REMARK   10  A    between atoms: C_22  and  C_23 
ROOT
HETATM    1  C   UNL     1       5.040  32.131  59.083  1.00  0.00     0.252 C 
HETATM    2  N   UNL     1       4.449  30.971  58.626  1.00  0.00    -0.357 N 
HETATM    3  O   UNL     1       5.206  33.106  58.358  1.00  0.00    -0.268 OA
HETATM    4  H   UNL     1       4.554  30.173  59.244  1.00  0.00     0.162 HD
ENDROOT
BRANCH   1   5
HETATM    5  C   UNL     1       5.673  32.131  60.440  1.00  0.00     0.048 A 
HETATM    6  C   UNL     1       7.048  32.005  60.730  1.00  0.00     0.009 A 
HETATM    7  C   UNL     1       7.424  32.338  62.049  1.00  0.00     0.070 A 
HETATM    8  C   UNL     1       8.058  31.560  59.835  1.00  0.00     0.015 A 
HETATM    9  N   UNL     1       6.549  32.703  63.001  1.00  0.00    -0.231 NA
HETATM   10  C   UNL     1       8.765  32.302  62.398  1.00  0.00     0.032 A 
HETATM   11  C   UNL     1       5.235  32.747  62.735  1.00  0.00     0.129 A 
HETATM   12  C   UNL     1       4.773  32.419  61.474  1.00  0.00     0.068 A 
HETATM   13  C   UNL     1       9.757  31.918  61.495  1.00  0.00     0.002 A 
HETATM   14  C   UNL     1       9.400  31.530  60.212  1.00  0.00     0.001 A 
BRANCH  11  15
HETATM   15  N   UNL     1       4.264  33.055  63.720  1.00  0.00    -0.341 N 
HETATM   16  H   UNL     1       3.354  33.155  63.273  1.00  0.00     0.167 HD
BRANCH  15  17
HETATM   17  C   UNL     1       4.314  34.029  64.747  1.00  0.00     0.034 A 
HETATM   18  C   UNL     1       4.738  33.764  66.052  1.00  0.00     0.048 A 
HETATM   19  C   UNL     1       4.846  34.794  66.995  1.00  0.00     0.002 A 
HETATM   20  C   UNL     1       4.550  36.108  66.623  1.00  0.00     0.018 A 
HETATM   21  C   UNL     1       4.132  36.389  65.325  1.00  0.00     0.004 A 
HETATM   22  C   UNL     1       4.020  35.357  64.395  1.00  0.00     0.029 A 
BRANCH  19  23
HETATM   23  S   UNL     1       5.423  34.413  68.640  1.00  0.00    -0.134 SA
HETATM   24  C   UNL     1       7.205  34.612  68.379  1.00  0.00     0.095 C 
ENDBRANCH  19  23
ENDBRANCH  15  17
ENDBRANCH  11  15
ENDBRANCH   1   5
BRANCH   2  25
HETATM   25  C   UNL     1       4.362  30.580  57.226  1.00  0.00     0.124 C 
BRANCH  25  26
HETATM   26  C   UNL     1       5.617  30.299  56.384  1.00  0.00     0.047 C 
BRANCH  26  27
HETATM   27  C   UNL     1       5.838  29.005  55.589  1.00  0.00     0.236 C 
BRANCH  27  28
HETATM   28  N   UNL     1       6.234  27.728  56.342  1.00  0.00    -0.071 N 
HETATM   29  H   UNL     1       6.167  27.949  57.344  1.00  0.00     0.279 HD
HETATM   30  C   UNL     1       5.177  26.663  56.068  1.00  0.00     0.235 C 
HETATM   31  C   UNL     1       5.518  25.330  56.729  1.00  0.00     0.032 C 
HETATM   32  C   UNL     1       6.931  24.831  56.385  1.00  0.00    -0.007 C 
HETATM   33  C   UNL     1       7.906  25.924  56.822  1.00  0.00     0.032 C 
HETATM   34  C   UNL     1       7.636  27.243  56.119  1.00  0.00     0.235 C 
BRANCH  32  35
HETATM   35  C   UNL     1       7.035  24.433  54.892  1.00  0.00     0.043 C 
BRANCH  35  36
HETATM   36  C   UNL     1       7.479  23.017  54.615  1.00  0.00    -0.058 A 
HETATM   37  C   UNL     1       7.623  22.099  55.662  1.00  0.00     0.007 A 
HETATM   38  C   UNL     1       7.975  20.773  55.394  1.00  0.00     0.001 A 
HETATM   39  C   UNL     1       8.191  20.352  54.083  1.00  0.00     0.000 A 
HETATM   40  C   UNL     1       8.065  21.257  53.036  1.00  0.00     0.001 A 
HETATM   41  C   UNL     1       7.718  22.581  53.303  1.00  0.00     0.007 A 
ENDBRANCH  35  36
ENDBRANCH  32  35
ENDBRANCH  27  28
ENDBRANCH  26  27
ENDBRANCH  25  26
ENDBRANCH   2  25
TORSDOF 10
ENDMDL
MODEL 3
REMARK VINA RESULT:     -11.0      1.315      1.987
REMARK  10 active torsions:
REMARK  status: ('A' for Active; 'I' for Inactive)
REMARK    1  A    between atoms: S_2  and  C_3 
REMARK    2  A    between atoms: C_5  and  N_6 
REMARK    3  A    between atoms: N_6  and  C_7 
REMARK    4  A    between atoms: C_11  and  C_12 
REMARK       I    between atoms: C_12  and  N_13 
REMARK    5  A    between atoms: N_13  and  C_14 
REMARK    6  A    between atoms: C_14  and  C_15 
REMARK    7  A    between atoms: C_15  and  C_16 
REMARK    8  A    between atoms: C_16  and  N_17 
REMARK    9  A    between atoms: C_21  and  C_22 
REMARK   10  A    between atoms: C_22  and  C_23 
ROOT
HETATM    1  C   UNL     1       6.069  29.327  56.817  1.00  0.00     0.252 C 
HETATM    2  N   UNL     1       5.814  29.798  55.546  1.00  0.00    -0.357 N 
HETATM    3  O   UNL     1       5.395  28.442  57.331  1.00  0.00    -0.268 OA
HETATM    4  H   UNL     1       6.293  30.660  55.311  1.00  0.00     0.162 HD
ENDROOT
BRANCH   1   5
HETATM    5  C   UNL     1       7.068  30.051  57.665  1.00  0.00     0.048 A 
HETATM    6  C   UNL     1       8.473  30.012  57.535  1.00  0.00     0.009 A 
HETATM    7  C   UNL     1       9.178  31.007  58.247  1.00  0.00     0.070 A 
HETATM    8  C   UNL     1       9.221  29.064  56.784  1.00  0.00     0.015 A 
HETATM    9  N   UNL     1       8.583  31.910  59.044  1.00  0.00    -0.231 NA
HETATM   10  C   UNL     1      10.557  31.077  58.122  1.00  0.00     0.032 A 
HETATM   11  C   UNL     1       7.254  31.892  59.220  1.00  0.00     0.129 A 
HETATM   12  C   UNL     1       6.484  30.941  58.576  1.00  0.00     0.068 A 
HETATM   13  C   UNL     1      11.277  30.176  57.337  1.00  0.00     0.002 A 
HETATM   14  C   UNL     1      10.608  29.156  56.678  1.00  0.00     0.001 A 
BRANCH  11  15
HETATM   15  N   UNL     1       6.586  32.775  60.104  1.00  0.00    -0.341 N 
HETATM   16  H   UNL     1       6.487  33.685  59.657  1.00  0.00     0.167 HD
BRANCH  15  17
HETATM   17  C   UNL     1       6.842  33.027  61.474  1.00  0.00     0.034 A 
HETATM   18  C   UNL     1       6.073  33.884  62.265  1.00  0.00     0.048 A 
HETATM   19  C   UNL     1       6.328  34.019  63.636  1.00  0.00     0.002 A 
HETATM   20  C   UNL     1       7.349  33.271  64.227  1.00  0.00     0.018 A 
HETATM   21  C   UNL     1       8.121  32.408  63.453  1.00  0.00     0.004 A 
HETATM   22  C   UNL     1       7.864  32.285  62.088  1.00  0.00     0.029 A 
BRANCH  19  23
HETATM   23  S   UNL     1       5.299  35.102  64.612  1.00  0.00    -0.134 SA
HETATM   24  C   UNL     1       4.561  33.877  65.726  1.00  0.00     0.095 C 
ENDBRANCH  19  23
ENDBRANCH  15  17
ENDBRANCH  11  15
ENDBRANCH   1   5
BRANCH   2  25
HETATM   25  C   UNL     1       4.539  29.667  54.854  1.00  0.00     0.124 C 
BRANCH  25  26
HETATM   26  C   UNL     1       4.443  29.701  53.319  1.00  0.00     0.047 C 
BRANCH  26  27
HETATM   27  C   UNL     1       3.519  28.787  52.503  1.00  0.00     0.236 C 
BRANCH  27  28
HETATM   28  N   UNL     1       3.954  27.342  52.230  1.00  0.00    -0.071 N 
HETATM   29  H   UNL     1       3.157  26.879  51.776  1.00  0.00     0.279 HD
HETATM   30  C   UNL     1       5.078  27.367  51.199  1.00  0.00     0.235 C 
HETATM   31  C   UNL     1       5.623  25.971  50.907  1.00  0.00     0.032 C 
HETATM   32  C   UNL     1       6.032  25.206  52.175  1.00  0.00    -0.007 C 
HETATM   33  C   UNL     1       4.794  25.135  53.069  1.00  0.00     0.032 C 
HETATM   34  C   UNL     1       4.277  26.515  53.439  1.00  0.00     0.235 C 
BRANCH  32  35
HETATM   35  C   UNL     1       7.273  25.852  52.842  1.00  0.00     0.043 C 
BRANCH  35  36
HETATM   36  C   UNL     1       7.648  25.313  54.201  1.00  0.00    -0.058 A 
HETATM   37  C   UNL     1       7.489  26.100  55.347  1.00  0.00     0.007 A 
HETATM   38  C   UNL     1       7.780  25.576  56.610  1.00  0.00     0.001 A 
HETATM   39  C   UNL     1       8.236  24.265  56.740  1.00  0.00     0.000 A 
HETATM   40  C   UNL     1       8.411  23.477  55.608  1.00  0.00     0.001 A 
HETATM   41  C   UNL     1       8.125  24.002  54.348  1.00  0.00     0.007 A 
ENDBRANCH  35  36
ENDBRANCH  32  35
ENDBRANCH  27  28
ENDBRANCH  26  27
ENDBRANCH  25  26
ENDBRANCH   2  25
TORSDOF 10
ENDMDL
MODEL 4
REMARK VINA RESULT:     -10.2      3.414      5.614
REMARK  10 active torsions:
REMARK  status: ('A' for Active; 'I' for Inactive)
REMARK    1  A    between atoms: S_2  and  C_3 
REMARK    2  A    between atoms: C_5  and  N_6 
REMARK    3  A    between atoms: N_6  and  C_7 
REMARK    4  A    between atoms: C_11  and  C_12 
REMARK       I    between atoms: C_12  and  N_13 
REMARK    5  A    between atoms: N_13  and  C_14 
REMARK    6  A    between atoms: C_14  and  C_15 
REMARK    7  A    between atoms: C_15  and  C_16 
REMARK    8  A    between atoms: C_16  and  N_17 
REMARK    9  A    between atoms: C_21  and  C_22 
REMARK   10  A    between atoms: C_22  and  C_23 
ROOT
HETATM    1  C   UNL     1       7.561  32.107  59.671  1.00  0.00     0.252 C 
HETATM    2  N   UNL     1       7.277  30.886  59.095  1.00  0.00    -0.357 N 
HETATM    3  O   UNL     1       8.663  32.634  59.569  1.00  0.00    -0.268 OA
HETATM    4  H   UNL     1       6.415  30.458  59.417  1.00  0.00     0.162 HD
ENDROOT
BRANCH   1   5
HETATM    5  C   UNL     1       6.562  32.710  60.608  1.00  0.00     0.048 A 
HETATM    6  C   UNL     1       6.757  33.003  61.975  1.00  0.00     0.009 A 
HETATM    7  C   UNL     1       5.784  33.841  62.562  1.00  0.00     0.070 A 
HETATM    8  C   UNL     1       7.811  32.519  62.796  1.00  0.00     0.015 A 
HETATM    9  N   UNL     1       4.706  34.301  61.904  1.00  0.00    -0.231 NA
HETATM   10  C   UNL     1       5.935  34.228  63.884  1.00  0.00     0.032 A 
HETATM   11  C   UNL     1       4.491  33.956  60.626  1.00  0.00     0.129 A 
HETATM   12  C   UNL     1       5.383  33.124  59.975  1.00  0.00     0.068 A 
HETATM   13  C   UNL     1       7.005  33.793  64.667  1.00  0.00     0.002 A 
HETATM   14  C   UNL     1       7.938  32.922  64.125  1.00  0.00     0.001 A 
BRANCH  11  15
HETATM   15  N   UNL     1       3.337  34.354  59.909  1.00  0.00    -0.341 N 
HETATM   16  H   UNL     1       2.951  33.548  59.420  1.00  0.00     0.167 HD
BRANCH  15  17
HETATM   17  C   UNL     1       3.161  35.465  59.047  1.00  0.00     0.034 A 
HETATM   18  C   UNL     1       3.569  35.487  57.711  1.00  0.00     0.048 A 
HETATM   19  C   UNL     1       3.285  36.586  56.890  1.00  0.00     0.002 A 
HETATM   20  C   UNL     1       2.563  37.666  57.405  1.00  0.00     0.018 A 
HETATM   21  C   UNL     1       2.144  37.657  58.733  1.00  0.00     0.004 A 
HETATM   22  C   UNL     1       2.437  36.561  59.544  1.00  0.00     0.029 A 
BRANCH  19  23
HETATM   23  S   UNL     1       3.798  36.555  55.182  1.00  0.00    -0.134 SA
HETATM   24  C   UNL     1       5.470  35.888  55.391  1.00  0.00     0.095 C 
ENDBRANCH  19  23
ENDBRANCH  15  17
ENDBRANCH  11  15
ENDBRANCH   1   5
BRANCH   2  25
HETATM   25  C   UNL     1       8.275  29.898  58.710  1.00  0.00     0.124 C 
BRANCH  25  26
HETATM   26  C   UNL     1       7.911  28.662  57.870  1.00  0.00     0.047 C 
BRANCH  26  27
HETATM   27  C   UNL     1       6.469  28.255  57.535  1.00  0.00     0.236 C 
BRANCH  27  28
HETATM   28  N   UNL     1       6.192  27.519  56.218  1.00  0.00    -0.071 N 
HETATM   29  H   UNL     1       5.471  28.064  55.727  1.00  0.00     0.279 HD
HETATM   30  C   UNL     1       7.447  27.596  55.353  1.00  0.00     0.235 C 
HETATM   31  C   UNL     1       7.287  26.835  54.039  1.00  0.00     0.032 C 
HETATM   32  C   UNL     1       6.820  25.384  54.235  1.00  0.00    -0.007 C 
HETATM   33  C   UNL     1       5.496  25.444  54.997  1.00  0.00     0.032 C 
HETATM   34  C   UNL     1       5.644  26.129  56.345  1.00  0.00     0.235 C 
BRANCH  32  35
HETATM   35  C   UNL     1       7.918  24.530  54.917  1.00  0.00     0.043 C 
BRANCH  35  36
HETATM   36  C   UNL     1       7.922  23.061  54.571  1.00  0.00    -0.058 A 
HETATM   37  C   UNL     1       8.180  22.639  53.262  1.00  0.00     0.007 A 
HETATM   38  C   UNL     1       8.242  21.275  52.959  1.00  0.00     0.001 A 
HETATM   39  C   UNL     1       8.044  20.322  53.957  1.00  0.00     0.000 A 
HETATM   40  C   UNL     1       7.773  20.729  55.258  1.00  0.00     0.001 A 
HETATM   41  C   UNL     1       7.706  22.089  55.560  1.00  0.00     0.007 A 
ENDBRANCH  35  36
ENDBRANCH  32  35
ENDBRANCH  27  28
ENDBRANCH  26  27
ENDBRANCH  25  26
ENDBRANCH   2  25
TORSDOF 10
ENDMDL
MODEL 5
REMARK VINA RESULT:     -10.2      2.321      3.594
REMARK  10 active torsions:
REMARK  status: ('A' for Active; 'I' for Inactive)
REMARK    1  A    between atoms: S_2  and  C_3 
REMARK    2  A    between atoms: C_5  and  N_6 
REMARK    3  A    between atoms: N_6  and  C_7 
REMARK    4  A    between atoms: C_11  and  C_12 
REMARK       I    between atoms: C_12  and  N_13 
REMARK    5  A    between atoms: N_13  and  C_14 
REMARK    6  A    between atoms: C_14  and  C_15 
REMARK    7  A    between atoms: C_15  and  C_16 
REMARK    8  A    between atoms: C_16  and  N_17 
REMARK    9  A    between atoms: C_21  and  C_22 
REMARK   10  A    between atoms: C_22  and  C_23 
ROOT
HETATM    1  C   UNL     1       5.351  32.422  58.070  1.00  0.00     0.252 C 
HETATM    2  N   UNL     1       5.006  31.253  57.424  1.00  0.00    -0.357 N 
HETATM    3  O   UNL     1       5.423  33.495  57.481  1.00  0.00    -0.268 OA
HETATM    4  H   UNL     1       5.182  30.408  57.958  1.00  0.00     0.162 HD
ENDROOT
BRANCH   1   5
HETATM    5  C   UNL     1       5.842  32.346  59.482  1.00  0.00     0.048 A 
HETATM    6  C   UNL     1       7.135  31.971  59.907  1.00  0.00     0.009 A 
HETATM    7  C   UNL     1       7.443  32.270  61.253  1.00  0.00     0.070 A 
HETATM    8  C   UNL     1       8.120  31.314  59.122  1.00  0.00     0.015 A 
HETATM    9  N   UNL     1       6.569  32.825  62.109  1.00  0.00    -0.231 NA
HETATM   10  C   UNL     1       8.714  31.992  61.731  1.00  0.00     0.032 A 
HETATM   11  C   UNL     1       5.319  33.109  61.715  1.00  0.00     0.129 A 
HETATM   12  C   UNL     1       4.922  32.834  60.420  1.00  0.00     0.068 A 
HETATM   13  C   UNL     1       9.693  31.398  60.935  1.00  0.00     0.002 A 
HETATM   14  C   UNL     1       9.390  31.043  59.630  1.00  0.00     0.001 A 
BRANCH  11  15
HETATM   15  N   UNL     1       4.337  33.628  62.595  1.00  0.00    -0.341 N 
HETATM   16  H   UNL     1       3.485  33.819  62.071  1.00  0.00     0.167 HD
BRANCH  15  17
HETATM   17  C   UNL     1       4.457  34.663  63.554  1.00  0.00     0.034 A 
HETATM   18  C   UNL     1       5.027  35.910  63.288  1.00  0.00     0.048 A 
HETATM   19  C   UNL     1       5.034  36.920  64.258  1.00  0.00     0.002 A 
HETATM   20  C   UNL     1       4.443  36.688  65.503  1.00  0.00     0.018 A 
HETATM   21  C   UNL     1       3.866  35.451  65.783  1.00  0.00     0.004 A 
HETATM   22  C   UNL     1       3.870  34.451  64.812  1.00  0.00     0.029 A 
BRANCH  19  23
HETATM   23  S   UNL     1       5.744  38.508  63.861  1.00  0.00    -0.134 SA
HETATM   24  C   UNL     1       6.323  38.157  62.180  1.00  0.00     0.095 C 
ENDBRANCH  19  23
ENDBRANCH  15  17
ENDBRANCH  11  15
ENDBRANCH   1   5
BRANCH   2  25
HETATM   25  C   UNL     1       5.119  31.035  55.989  1.00  0.00     0.124 C 
BRANCH  25  26
HETATM   26  C   UNL     1       4.992  29.632  55.370  1.00  0.00     0.047 C 
BRANCH  26  27
HETATM   27  C   UNL     1       4.539  28.393  56.154  1.00  0.00     0.236 C 
BRANCH  27  28
HETATM   28  N   UNL     1       5.602  27.477  56.775  1.00  0.00    -0.071 N 
HETATM   29  H   UNL     1       5.541  27.611  57.793  1.00  0.00     0.279 HD
HETATM   30  C   UNL     1       5.200  26.029  56.510  1.00  0.00     0.235 C 
HETATM   31  C   UNL     1       6.233  25.039  57.041  1.00  0.00     0.032 C 
HETATM   32  C   UNL     1       7.659  25.332  56.547  1.00  0.00    -0.007 C 
HETATM   33  C   UNL     1       7.994  26.759  56.983  1.00  0.00     0.032 C 
HETATM   34  C   UNL     1       7.024  27.775  56.404  1.00  0.00     0.235 C 
BRANCH  32  35
HETATM   35  C   UNL     1       7.787  25.076  55.024  1.00  0.00     0.043 C 
BRANCH  35  36
HETATM   36  C   UNL     1       8.064  23.650  54.616  1.00  0.00    -0.058 A 
HETATM   37  C   UNL     1       7.575  23.148  53.405  1.00  0.00     0.007 A 
HETATM   38  C   UNL     1       7.886  21.846  53.002  1.00  0.00     0.001 A 
HETATM   39  C   UNL     1       8.682  21.032  53.806  1.00  0.00     0.000 A 
HETATM   40  C   UNL     1       9.162  21.513  55.018  1.00  0.00     0.001 A 
HETATM   41  C   UNL     1       8.849  22.811  55.422  1.00  0.00     0.007 A 
ENDBRANCH  35  36
ENDBRANCH  32  35
ENDBRANCH  27  28
ENDBRANCH  26  27
ENDBRANCH  25  26
ENDBRANCH   2  25
TORSDOF 10
ENDMDL
MODEL 6
REMARK VINA RESULT:     -10.1      1.787      2.405
REMARK  10 active torsions:
REMARK  status: ('A' for Active; 'I' for Inactive)
REMARK    1  A    between atoms: S_2  and  C_3 
REMARK    2  A    between atoms: C_5  and  N_6 
REMARK    3  A    between atoms: N_6  and  C_7 
REMARK    4  A    between atoms: C_11  and  C_12 
REMARK       I    between atoms: C_12  and  N_13 
REMARK    5  A    between atoms: N_13  and  C_14 
REMARK    6  A    between atoms: C_14  and  C_15 
REMARK    7  A    between atoms: C_15  and  C_16 
REMARK    8  A    between atoms: C_16  and  N_17 
REMARK    9  A    between atoms: C_21  and  C_22 
REMARK   10  A    between atoms: C_22  and  C_23 
ROOT
HETATM    1  C   UNL     1       5.993  31.051  58.168  1.00  0.00     0.252 C 
HETATM    2  N   UNL     1       5.309  29.888  57.881  1.00  0.00    -0.357 N 
HETATM    3  O   UNL     1       5.571  32.154  57.837  1.00  0.00    -0.268 OA
HETATM    4  H   UNL     1       5.847  29.038  58.015  1.00  0.00     0.162 HD
ENDROOT
BRANCH   1   5
HETATM    5  C   UNL     1       7.380  30.953  58.722  1.00  0.00     0.048 A 
HETATM    6  C   UNL     1       8.544  30.569  58.022  1.00  0.00     0.009 A 
HETATM    7  C   UNL     1       9.765  30.846  58.674  1.00  0.00     0.070 A 
HETATM    8  C   UNL     1       8.589  29.922  56.758  1.00  0.00     0.015 A 
HETATM    9  N   UNL     1       9.845  31.390  59.900  1.00  0.00    -0.231 NA
HETATM   10  C   UNL     1      10.957  30.559  58.026  1.00  0.00     0.032 A 
HETATM   11  C   UNL     1       8.732  31.682  60.588  1.00  0.00     0.129 A 
HETATM   12  C   UNL     1       7.491  31.427  60.036  1.00  0.00     0.068 A 
HETATM   13  C   UNL     1      10.990  29.975  56.759  1.00  0.00     0.002 A 
HETATM   14  C   UNL     1       9.801  29.641  56.129  1.00  0.00     0.001 A 
BRANCH  11  15
HETATM   15  N   UNL     1       8.759  32.188  61.911  1.00  0.00    -0.341 N 
HETATM   16  H   UNL     1       9.278  31.544  62.506  1.00  0.00     0.167 HD
BRANCH  15  17
HETATM   17  C   UNL     1       7.691  32.686  62.697  1.00  0.00     0.034 A 
HETATM   18  C   UNL     1       6.377  32.809  62.238  1.00  0.00     0.048 A 
HETATM   19  C   UNL     1       5.352  33.225  63.097  1.00  0.00     0.002 A 
HETATM   20  C   UNL     1       5.639  33.499  64.437  1.00  0.00     0.018 A 
HETATM   21  C   UNL     1       6.943  33.375  64.911  1.00  0.00     0.004 A 
HETATM   22  C   UNL     1       7.958  32.966  64.048  1.00  0.00     0.029 A 
BRANCH  19  23
HETATM   23  S   UNL     1       3.684  33.337  62.474  1.00  0.00    -0.134 SA
HETATM   24  C   UNL     1       4.045  33.623  60.722  1.00  0.00     0.095 C 
ENDBRANCH  19  23
ENDBRANCH  15  17
ENDBRANCH  11  15
ENDBRANCH   1   5
BRANCH   2  25
HETATM   25  C   UNL     1       4.310  29.751  56.831  1.00  0.00     0.124 C 
BRANCH  25  26
HETATM   26  C   UNL     1       4.692  29.344  55.397  1.00  0.00     0.047 C 
BRANCH  26  27
HETATM   27  C   UNL     1       4.982  27.899  54.971  1.00  0.00     0.236 C 
BRANCH  27  28
HETATM   28  N   UNL     1       5.664  26.952  55.967  1.00  0.00    -0.071 N 
HETATM   29  H   UNL     1       5.202  27.102  56.873  1.00  0.00     0.279 HD
HETATM   30  C   UNL     1       5.346  25.517  55.558  1.00  0.00     0.235 C 
HETATM   31  C   UNL     1       6.035  24.496  56.459  1.00  0.00     0.032 C 
HETATM   32  C   UNL     1       7.549  24.728  56.587  1.00  0.00    -0.007 C 
HETATM   33  C   UNL     1       7.736  26.147  57.124  1.00  0.00     0.032 C 
HETATM   34  C   UNL     1       7.125  27.191  56.204  1.00  0.00     0.235 C 
BRANCH  32  35
HETATM   35  C   UNL     1       8.272  24.446  55.246  1.00  0.00     0.043 C 
BRANCH  35  36
HETATM   36  C   UNL     1       8.257  23.011  54.777  1.00  0.00    -0.058 A 
HETATM   37  C   UNL     1       8.490  21.966  55.678  1.00  0.00     0.007 A 
HETATM   38  C   UNL     1       8.415  20.637  55.252  1.00  0.00     0.001 A 
HETATM   39  C   UNL     1       8.113  20.338  53.924  1.00  0.00     0.000 A 
HETATM   40  C   UNL     1       7.894  21.368  53.016  1.00  0.00     0.001 A 
HETATM   41  C   UNL     1       7.973  22.694  53.440  1.00  0.00     0.007 A 
ENDBRANCH  35  36
ENDBRANCH  32  35
ENDBRANCH  27  28
ENDBRANCH  26  27
ENDBRANCH  25  26
ENDBRANCH   2  25
TORSDOF 10
ENDMDL
MODEL 7
REMARK VINA RESULT:     -10.1      3.670     11.432
REMARK  10 active torsions:
REMARK  status: ('A' for Active; 'I' for Inactive)
REMARK    1  A    between atoms: S_2  and  C_3 
REMARK    2  A    between atoms: C_5  and  N_6 
REMARK    3  A    between atoms: N_6  and  C_7 
REMARK    4  A    between atoms: C_11  and  C_12 
REMARK       I    between atoms: C_12  and  N_13 
REMARK    5  A    between atoms: N_13  and  C_14 
REMARK    6  A    between atoms: C_14  and  C_15 
REMARK    7  A    between atoms: C_15  and  C_16 
REMARK    8  A    between atoms: C_16  and  N_17 
REMARK    9  A    between atoms: C_21  and  C_22 
REMARK   10  A    between atoms: C_22  and  C_23 
ROOT
HETATM    1  C   UNL     1       8.540  29.537  57.999  1.00  0.00     0.252 C 
HETATM    2  N   UNL     1       8.643  30.047  59.276  1.00  0.00    -0.357 N 
HETATM    3  O   UNL     1       9.342  29.823  57.117  1.00  0.00    -0.268 OA
HETATM    4  H   UNL     1       7.820  29.911  59.853  1.00  0.00     0.162 HD
ENDROOT
BRANCH   1   5
HETATM    5  C   UNL     1       7.307  28.775  57.625  1.00  0.00     0.048 A 
HETATM    6  C   UNL     1       6.054  29.319  57.267  1.00  0.00     0.009 A 
HETATM    7  C   UNL     1       5.149  28.417  56.667  1.00  0.00     0.070 A 
HETATM    8  C   UNL     1       5.630  30.659  57.475  1.00  0.00     0.015 A 
HETATM    9  N   UNL     1       5.413  27.112  56.484  1.00  0.00    -0.231 NA
HETATM   10  C   UNL     1       3.920  28.885  56.228  1.00  0.00     0.032 A 
HETATM   11  C   UNL     1       6.577  26.590  56.896  1.00  0.00     0.129 A 
HETATM   12  C   UNL     1       7.518  27.395  57.511  1.00  0.00     0.068 A 
HETATM   13  C   UNL     1       3.535  30.217  56.386  1.00  0.00     0.002 A 
HETATM   14  C   UNL     1       4.386  31.104  57.026  1.00  0.00     0.001 A 
BRANCH  11  15
HETATM   15  N   UNL     1       6.877  25.209  56.793  1.00  0.00    -0.341 N 
HETATM   16  H   UNL     1       7.501  24.944  57.553  1.00  0.00     0.167 HD
BRANCH  15  17
HETATM   17  C   UNL     1       7.292  24.469  55.658  1.00  0.00     0.034 A 
HETATM   18  C   UNL     1       7.481  23.085  55.657  1.00  0.00     0.048 A 
HETATM   19  C   UNL     1       7.807  22.405  54.477  1.00  0.00     0.002 A 
HETATM   20  C   UNL     1       7.921  23.113  53.278  1.00  0.00     0.018 A 
HETATM   21  C   UNL     1       7.730  24.493  53.262  1.00  0.00     0.004 A 
HETATM   22  C   UNL     1       7.413  25.162  54.443  1.00  0.00     0.029 A 
BRANCH  19  23
HETATM   23  S   UNL     1       8.007  20.632  54.518  1.00  0.00    -0.134 SA
HETATM   24  C   UNL     1       8.473  20.350  52.790  1.00  0.00     0.095 C 
ENDBRANCH  19  23
ENDBRANCH  15  17
ENDBRANCH  11  15
ENDBRANCH   1   5
BRANCH   2  25
HETATM   25  C   UNL     1       9.374  31.255  59.631  1.00  0.00     0.124 C 
BRANCH  25  26
HETATM   26  C   UNL     1       9.372  31.813  61.064  1.00  0.00     0.047 C 
BRANCH  26  27
HETATM   27  C   UNL     1       8.897  31.017  62.287  1.00  0.00     0.236 C 
BRANCH  27  28
HETATM   28  N   UNL     1       7.732  31.563  63.123  1.00  0.00    -0.071 N 
HETATM   29  H   UNL     1       7.646  30.945  63.940  1.00  0.00     0.279 HD
HETATM   30  C   UNL     1       8.132  32.932  63.665  1.00  0.00     0.235 C 
HETATM   31  C   UNL     1       7.007  33.586  64.463  1.00  0.00     0.032 C 
HETATM   32  C   UNL     1       5.677  33.645  63.695  1.00  0.00    -0.007 C 
HETATM   33  C   UNL     1       5.318  32.208  63.319  1.00  0.00     0.032 C 
HETATM   34  C   UNL     1       6.388  31.559  62.457  1.00  0.00     0.235 C 
BRANCH  32  35
HETATM   35  C   UNL     1       5.768  34.622  62.495  1.00  0.00     0.043 C 
BRANCH  35  36
HETATM   36  C   UNL     1       4.608  34.592  61.530  1.00  0.00    -0.058 A 
HETATM   37  C   UNL     1       3.371  35.140  61.888  1.00  0.00     0.007 A 
HETATM   38  C   UNL     1       2.317  35.165  60.970  1.00  0.00     0.001 A 
HETATM   39  C   UNL     1       2.486  34.640  59.690  1.00  0.00     0.000 A 
HETATM   40  C   UNL     1       3.705  34.080  59.327  1.00  0.00     0.001 A 
HETATM   41  C   UNL     1       4.755  34.051  60.244  1.00  0.00     0.007 A 
ENDBRANCH  35  36
ENDBRANCH  32  35
ENDBRANCH  27  28
ENDBRANCH  26  27
ENDBRANCH  25  26
ENDBRANCH   2  25
TORSDOF 10
ENDMDL
MODEL 8
REMARK VINA RESULT:      -9.9      2.365      3.881
REMARK  10 active torsions:
REMARK  status: ('A' for Active; 'I' for Inactive)
REMARK    1  A    between atoms: S_2  and  C_3 
REMARK    2  A    between atoms: C_5  and  N_6 
REMARK    3  A    between atoms: N_6  and  C_7 
REMARK    4  A    between atoms: C_11  and  C_12 
REMARK       I    between atoms: C_12  and  N_13 
REMARK    5  A    between atoms: N_13  and  C_14 
REMARK    6  A    between atoms: C_14  and  C_15 
REMARK    7  A    between atoms: C_15  and  C_16 
REMARK    8  A    between atoms: C_16  and  N_17 
REMARK    9  A    between atoms: C_21  and  C_22 
REMARK   10  A    between atoms: C_22  and  C_23 
ROOT
HETATM    1  C   UNL     1       6.849  31.753  58.824  1.00  0.00     0.252 C 
HETATM    2  N   UNL     1       6.499  30.885  57.811  1.00  0.00    -0.357 N 
HETATM    3  O   UNL     1       7.972  31.761  59.316  1.00  0.00    -0.268 OA
HETATM    4  H   UNL     1       5.502  30.825  57.632  1.00  0.00     0.162 HD
ENDROOT
BRANCH   1   5
HETATM    5  C   UNL     1       5.776  32.569  59.476  1.00  0.00     0.048 A 
HETATM    6  C   UNL     1       4.824  33.385  58.827  1.00  0.00     0.009 A 
HETATM    7  C   UNL     1       3.738  33.805  59.626  1.00  0.00     0.070 A 
HETATM    8  C   UNL     1       4.877  33.827  57.478  1.00  0.00     0.015 A 
HETATM    9  N   UNL     1       3.619  33.508  60.931  1.00  0.00    -0.231 NA
HETATM   10  C   UNL     1       2.727  34.557  59.049  1.00  0.00     0.032 A 
HETATM   11  C   UNL     1       4.567  32.795  61.556  1.00  0.00     0.129 A 
HETATM   12  C   UNL     1       5.676  32.356  60.857  1.00  0.00     0.068 A 
HETATM   13  C   UNL     1       2.760  34.938  57.707  1.00  0.00     0.002 A 
HETATM   14  C   UNL     1       3.847  34.585  56.922  1.00  0.00     0.001 A 
BRANCH  11  15
HETATM   15  N   UNL     1       4.526  32.516  62.944  1.00  0.00    -0.341 N 
HETATM   16  H   UNL     1       3.558  32.536  63.261  1.00  0.00     0.167 HD
BRANCH  15  17
HETATM   17  C   UNL     1       5.301  33.076  63.989  1.00  0.00     0.034 A 
HETATM   18  C   UNL     1       4.763  33.569  65.181  1.00  0.00     0.048 A 
HETATM   19  C   UNL     1       5.595  34.028  66.210  1.00  0.00     0.002 A 
HETATM   20  C   UNL     1       6.982  33.972  66.055  1.00  0.00     0.018 A 
HETATM   21  C   UNL     1       7.535  33.478  64.876  1.00  0.00     0.004 A 
HETATM   22  C   UNL     1       6.698  33.029  63.855  1.00  0.00     0.029 A 
BRANCH  19  23
HETATM   23  S   UNL     1       4.863  34.619  67.726  1.00  0.00    -0.134 SA
HETATM   24  C   UNL     1       6.223  34.257  68.867  1.00  0.00     0.095 C 
ENDBRANCH  19  23
ENDBRANCH  15  17
ENDBRANCH  11  15
ENDBRANCH   1   5
BRANCH   2  25
HETATM   25  C   UNL     1       7.191  29.639  57.510  1.00  0.00     0.124 C 
BRANCH  25  26
HETATM   26  C   UNL     1       7.313  29.107  56.072  1.00  0.00     0.047 C 
BRANCH  26  27
HETATM   27  C   UNL     1       6.113  28.679  55.217  1.00  0.00     0.236 C 
BRANCH  27  28
HETATM   28  N   UNL     1       6.363  27.881  53.931  1.00  0.00    -0.071 N 
HETATM   29  H   UNL     1       6.689  28.558  53.229  1.00  0.00     0.279 HD
HETATM   30  C   UNL     1       7.529  26.928  54.177  1.00  0.00     0.235 C 
HETATM   31  C   UNL     1       7.815  26.043  52.967  1.00  0.00     0.032 C 
HETATM   32  C   UNL     1       6.571  25.299  52.456  1.00  0.00    -0.007 C 
HETATM   33  C   UNL     1       5.525  26.363  52.122  1.00  0.00     0.032 C 
HETATM   34  C   UNL     1       5.164  27.208  53.332  1.00  0.00     0.235 C 
BRANCH  32  35
HETATM   35  C   UNL     1       6.101  24.230  53.475  1.00  0.00     0.043 C 
BRANCH  35  36
HETATM   36  C   UNL     1       7.153  23.250  53.934  1.00  0.00    -0.058 A 
HETATM   37  C   UNL     1       7.511  23.172  55.285  1.00  0.00     0.007 A 
HETATM   38  C   UNL     1       8.441  22.221  55.715  1.00  0.00     0.001 A 
HETATM   39  C   UNL     1       9.026  21.344  54.802  1.00  0.00     0.000 A 
HETATM   40  C   UNL     1       8.690  21.422  53.456  1.00  0.00     0.001 A 
HETATM   41  C   UNL     1       7.765  22.373  53.026  1.00  0.00     0.007 A 
ENDBRANCH  35  36
ENDBRANCH  32  35
ENDBRANCH  27  28
ENDBRANCH  26  27
ENDBRANCH  25  26
ENDBRANCH   2  25
TORSDOF 10
ENDMDL
MODEL 9
REMARK VINA RESULT:      -9.9      1.962      2.971
REMARK  10 active torsions:
REMARK  status: ('A' for Active; 'I' for Inactive)
REMARK    1  A    between atoms: S_2  and  C_3 
REMARK    2  A    between atoms: C_5  and  N_6 
REMARK    3  A    between atoms: N_6  and  C_7 
REMARK    4  A    between atoms: C_11  and  C_12 
REMARK       I    between atoms: C_12  and  N_13 
REMARK    5  A    between atoms: N_13  and  C_14 
REMARK    6  A    between atoms: C_14  and  C_15 
REMARK    7  A    between atoms: C_15  and  C_16 
REMARK    8  A    between atoms: C_16  and  N_17 
REMARK    9  A    between atoms: C_21  and  C_22 
REMARK   10  A    between atoms: C_22  and  C_23 
ROOT
HETATM    1  C   UNL     1       5.588  31.254  58.132  1.00  0.00     0.252 C 
HETATM    2  N   UNL     1       4.944  30.034  58.105  1.00  0.00    -0.357 N 
HETATM    3  O   UNL     1       5.984  31.804  57.110  1.00  0.00    -0.268 OA
HETATM    4  H   UNL     1       4.853  29.585  59.010  1.00  0.00     0.162 HD
ENDROOT
BRANCH   1   5
HETATM    5  C   UNL     1       5.989  31.827  59.455  1.00  0.00     0.048 A 
HETATM    6  C   UNL     1       7.213  31.623  60.128  1.00  0.00     0.009 A 
HETATM    7  C   UNL     1       7.472  32.504  61.200  1.00  0.00     0.070 A 
HETATM    8  C   UNL     1       8.171  30.615  59.839  1.00  0.00     0.015 A 
HETATM    9  N   UNL     1       6.608  33.449  61.609  1.00  0.00    -0.231 NA
HETATM   10  C   UNL     1       8.680  32.411  61.873  1.00  0.00     0.032 A 
HETATM   11  C   UNL     1       5.417  33.586  61.011  1.00  0.00     0.129 A 
HETATM   12  C   UNL     1       5.069  32.754  59.963  1.00  0.00     0.068 A 
HETATM   13  C   UNL     1       9.640  31.454  61.545  1.00  0.00     0.002 A 
HETATM   14  C   UNL     1       9.378  30.542  60.534  1.00  0.00     0.001 A 
BRANCH  11  15
HETATM   15  N   UNL     1       4.442  34.517  61.448  1.00  0.00    -0.341 N 
HETATM   16  H   UNL     1       4.159  35.100  60.662  1.00  0.00     0.167 HD
BRANCH  15  17
HETATM   17  C   UNL     1       4.462  35.361  62.585  1.00  0.00     0.034 A 
HETATM   18  C   UNL     1       3.930  35.008  63.828  1.00  0.00     0.048 A 
HETATM   19  C   UNL     1       4.063  35.857  64.934  1.00  0.00     0.002 A 
HETATM   20  C   UNL     1       4.758  37.062  64.803  1.00  0.00     0.018 A 
HETATM   21  C   UNL     1       5.299  37.426  63.572  1.00  0.00     0.004 A 
HETATM   22  C   UNL     1       5.156  36.578  62.475  1.00  0.00     0.029 A 
BRANCH  19  23
HETATM   23  S   UNL     1       3.395  35.349  66.509  1.00  0.00    -0.134 SA
HETATM   24  C   UNL     1       4.616  34.085  66.950  1.00  0.00     0.095 C 
ENDBRANCH  19  23
ENDBRANCH  15  17
ENDBRANCH  11  15
ENDBRANCH   1   5
BRANCH   2  25
HETATM   25  C   UNL     1       5.038  29.071  57.016  1.00  0.00     0.124 C 
BRANCH  25  26
HETATM   26  C   UNL     1       5.042  29.512  55.543  1.00  0.00     0.047 C 
BRANCH  26  27
HETATM   27  C   UNL     1       4.469  28.664  54.399  1.00  0.00     0.236 C 
BRANCH  27  28
HETATM   28  N   UNL     1       5.435  27.998  53.410  1.00  0.00    -0.071 N 
HETATM   29  H   UNL     1       5.889  28.759  52.890  1.00  0.00     0.279 HD
HETATM   30  C   UNL     1       6.538  27.310  54.209  1.00  0.00     0.235 C 
HETATM   31  C   UNL     1       7.519  26.563  53.310  1.00  0.00     0.032 C 
HETATM   32  C   UNL     1       6.828  25.590  52.341  1.00  0.00    -0.007 C 
HETATM   33  C   UNL     1       5.845  26.415  51.511  1.00  0.00     0.032 C 
HETATM   34  C   UNL     1       4.808  27.108  52.379  1.00  0.00     0.235 C 
BRANCH  32  35
HETATM   35  C   UNL     1       6.191  24.401  53.103  1.00  0.00     0.043 C 
BRANCH  35  36
HETATM   36  C   UNL     1       7.156  23.459  53.782  1.00  0.00    -0.058 A 
HETATM   37  C   UNL     1       7.989  22.627  53.026  1.00  0.00     0.007 A 
HETATM   38  C   UNL     1       8.923  21.801  53.657  1.00  0.00     0.001 A 
HETATM   39  C   UNL     1       9.032  21.794  55.047  1.00  0.00     0.000 A 
HETATM   40  C   UNL     1       8.200  22.606  55.810  1.00  0.00     0.001 A 
HETATM   41  C   UNL     1       7.265  23.427  55.181  1.00  0.00     0.007 A 
ENDBRANCH  35  36
ENDBRANCH  32  35
ENDBRANCH  27  28
ENDBRANCH  26  27
ENDBRANCH  25  26
ENDBRANCH   2  25
TORSDOF 10
ENDMDL
MODEL 10
REMARK VINA RESULT:      -9.8      1.484      2.134
REMARK  10 active torsions:
REMARK  status: ('A' for Active; 'I' for Inactive)
REMARK    1  A    between atoms: S_2  and  C_3 
REMARK    2  A    between atoms: C_5  and  N_6 
REMARK    3  A    between atoms: N_6  and  C_7 
REMARK    4  A    between atoms: C_11  and  C_12 
REMARK       I    between atoms: C_12  and  N_13 
REMARK    5  A    between atoms: N_13  and  C_14 
REMARK    6  A    between atoms: C_14  and  C_15 
REMARK    7  A    between atoms: C_15  and  C_16 
REMARK    8  A    between atoms: C_16  and  N_17 
REMARK    9  A    between atoms: C_21  and  C_22 
REMARK   10  A    between atoms: C_22  and  C_23 
ROOT
HETATM    1  C   UNL     1       5.385  29.730  56.487  1.00  0.00     0.252 C 
HETATM    2  N   UNL     1       5.353  30.315  55.238  1.00  0.00    -0.357 N 
HETATM    3  O   UNL     1       4.868  28.641  56.709  1.00  0.00    -0.268 OA
HETATM    4  H   UNL     1       5.624  31.292  55.223  1.00  0.00     0.162 HD
ENDROOT
BRANCH   1   5
HETATM    5  C   UNL     1       5.889  30.533  57.645  1.00  0.00     0.048 A 
HETATM    6  C   UNL     1       7.234  30.682  58.048  1.00  0.00     0.009 A 
HETATM    7  C   UNL     1       7.481  31.723  58.970  1.00  0.00     0.070 A 
HETATM    8  C   UNL     1       8.329  29.878  57.632  1.00  0.00     0.015 A 
HETATM    9  N   UNL     1       6.515  32.501  59.487  1.00  0.00    -0.231 NA
HETATM   10  C   UNL     1       8.784  31.977  59.368  1.00  0.00     0.032 A 
HETATM   11  C   UNL     1       5.231  32.303  59.154  1.00  0.00     0.129 A 
HETATM   12  C   UNL     1       4.893  31.293  58.272  1.00  0.00     0.068 A 
HETATM   13  C   UNL     1       9.861  31.217  58.910  1.00  0.00     0.002 A 
HETATM   14  C   UNL     1       9.631  30.154  58.051  1.00  0.00     0.001 A 
BRANCH  11  15
HETATM   15  N   UNL     1       4.168  33.046  59.724  1.00  0.00    -0.341 N 
HETATM   16  H   UNL     1       4.046  33.911  59.200  1.00  0.00     0.167 HD
BRANCH  15  17
HETATM   17  C   UNL     1       3.931  33.365  61.083  1.00  0.00     0.034 A 
HETATM   18  C   UNL     1       4.880  33.208  62.097  1.00  0.00     0.048 A 
HETATM   19  C   UNL     1       4.609  33.627  63.406  1.00  0.00     0.002 A 
HETATM   20  C   UNL     1       3.384  34.230  63.701  1.00  0.00     0.018 A 
HETATM   21  C   UNL     1       2.430  34.399  62.700  1.00  0.00     0.004 A 
HETATM   22  C   UNL     1       2.706  33.973  61.402  1.00  0.00     0.029 A 
BRANCH  19  23
HETATM   23  S   UNL     1       5.864  33.436  64.660  1.00  0.00    -0.134 SA
HETATM   24  C   UNL     1       7.281  33.047  63.600  1.00  0.00     0.095 C 
ENDBRANCH  19  23
ENDBRANCH  15  17
ENDBRANCH  11  15
ENDBRANCH   1   5
BRANCH   2  25
HETATM   25  C   UNL     1       4.391  29.990  54.195  1.00  0.00     0.124 C 
BRANCH  25  26
HETATM   26  C   UNL     1       4.647  28.865  53.178  1.00  0.00     0.047 C 
BRANCH  26  27
HETATM   27  C   UNL     1       4.494  27.373  53.502  1.00  0.00     0.236 C 
BRANCH  27  28
HETATM   28  N   UNL     1       5.449  26.367  52.846  1.00  0.00    -0.071 N 
HETATM   29  H   UNL     1       5.348  26.491  51.831  1.00  0.00     0.279 HD
HETATM   30  C   UNL     1       6.880  26.775  53.185  1.00  0.00     0.235 C 
HETATM   31  C   UNL     1       7.906  25.793  52.624  1.00  0.00     0.032 C 
HETATM   32  C   UNL     1       7.622  24.334  53.016  1.00  0.00    -0.007 C 
HETATM   33  C   UNL     1       6.217  24.005  52.512  1.00  0.00     0.032 C 
HETATM   34  C   UNL     1       5.165  24.920  53.117  1.00  0.00     0.235 C 
BRANCH  32  35
HETATM   35  C   UNL     1       7.831  24.114  54.535  1.00  0.00     0.043 C 
BRANCH  35  36
HETATM   36  C   UNL     1       8.147  22.700  54.959  1.00  0.00    -0.058 A 
HETATM   37  C   UNL     1       8.115  22.338  56.311  1.00  0.00     0.007 A 
HETATM   38  C   UNL     1       8.348  21.014  56.693  1.00  0.00     0.001 A 
HETATM   39  C   UNL     1       8.621  20.041  55.733  1.00  0.00     0.000 A 
HETATM   40  C   UNL     1       8.670  20.390  54.389  1.00  0.00     0.001 A 
HETATM   41  C   UNL     1       8.441  21.712  54.007  1.00  0.00     0.007 A 
ENDBRANCH  35  36
ENDBRANCH  32  35
ENDBRANCH  27  28
ENDBRANCH  26  27
ENDBRANCH  25  26
ENDBRANCH   2  25
TORSDOF 10
ENDMDL
