MODEL 1
REMARK VINA RESULT:      -9.9      0.000      0.000
REMARK  6 active torsions:
REMARK  status: ('A' for Active; 'I' for Inactive)
REMARK    1  A    between atoms: N_4  and  C_5 
REMARK    2  A    between atoms: C_13  and  C_14 
REMARK       I    between atoms: C_14  and  N_15 
REMARK    3  A    between atoms: N_15  and  C_16 
REMARK    4  A    between atoms: C_16  and  C_17 
REMARK    5  A    between atoms: C_17  and  O_18 
REMARK    6  A    between atoms: C_17  and  C_19 
ROOT
HETATM    1  C   UNL     1       7.664  27.271  57.203  1.00  0.00     0.257 C 
HETATM    2  N   UNL     1       7.954  28.442  56.543  1.00  0.00    -0.354 N 
HETATM    3  O   UNL     1       7.669  27.230  58.432  1.00  0.00    -0.267 OA
HETATM    4  H   UNL     1       7.952  28.447  55.531  1.00  0.00     0.162 HD
ENDROOT
BRANCH   1   5
HETATM    5  C   UNL     1       7.336  26.111  56.393  1.00  0.00     0.098 C 
HETATM    6  C   UNL     1       6.252  26.010  55.480  1.00  0.00     0.070 C 
HETATM    7  C   UNL     1       5.228  27.040  55.154  1.00  0.00     0.073 C 
HETATM    8  N   UNL     1       6.176  24.806  54.910  1.00  0.00    -0.170 NA
HETATM    9  N   UNL     1       7.274  24.125  55.346  1.00  0.00    -0.221 N 
HETATM   10  C   UNL     1       7.928  24.865  56.322  1.00  0.00     0.145 C 
HETATM   11 CL   UNL     1       9.164  24.206  57.306  1.00  0.00    -0.061 Cl
BRANCH   9  12
HETATM   12  C   UNL     1       7.560  22.857  54.748  1.00  0.00     0.060 A 
HETATM   13  C   UNL     1       7.679  21.676  55.490  1.00  0.00     0.031 A 
HETATM   14  C   UNL     1       7.980  20.467  54.851  1.00  0.00     0.002 A 
HETATM   15  C   UNL     1       8.175  20.425  53.473  1.00  0.00     0.000 A 
HETATM   16  C   UNL     1       8.082  21.595  52.727  1.00  0.00     0.002 A 
HETATM   17  C   UNL     1       7.784  22.804  53.359  1.00  0.00     0.031 A 
ENDBRANCH   9  12
ENDBRANCH   1   5
BRANCH   2  18
HETATM   18  C   UNL     1       8.383  29.646  57.248  1.00  0.00     0.159 C 
BRANCH  18  19
HETATM   19  C   UNL     1       7.210  30.515  57.761  1.00  0.00     0.169 C 
BRANCH  19  20
HETATM   20  O   UNL     1       5.974  29.800  57.801  1.00  0.00    -0.389 OA
HETATM   21  H   UNL     1       5.578  29.923  58.689  1.00  0.00     0.210 HD
ENDBRANCH  19  20
BRANCH  19  22
HETATM   22  C   UNL     1       7.495  31.032  59.158  1.00  0.00    -0.025 A 
HETATM   23  C   UNL     1       8.518  30.460  59.930  1.00  0.00     0.053 A 
HETATM   24  C   UNL     1       8.764  30.926  61.222  1.00  0.00     0.138 A 
HETATM   25  F   UNL     1       9.750  30.351  61.931  1.00  0.00    -0.204 F 
HETATM   26  C   UNL     1       8.004  31.957  61.767  1.00  0.00     0.072 A 
HETATM   27 CL   UNL     1       8.309  32.529  63.361  1.00  0.00    -0.081 Cl
HETATM   28  C   UNL     1       6.982  32.531  61.016  1.00  0.00     0.028 A 
HETATM   29  C   UNL     1       6.728  32.067  59.721  1.00  0.00     0.012 A 
ENDBRANCH  19  22
ENDBRANCH  18  19
ENDBRANCH   2  18
TORSDOF 6
ENDMDL
MODEL 2
REMARK VINA RESULT:      -9.8      1.505      1.799
REMARK  6 active torsions:
REMARK  status: ('A' for Active; 'I' for Inactive)
REMARK    1  A    between atoms: N_4  and  C_5 
REMARK    2  A    between atoms: C_13  and  C_14 
REMARK       I    between atoms: C_14  and  N_15 
REMARK    3  A    between atoms: N_15  and  C_16 
REMARK    4  A    between atoms: C_16  and  C_17 
REMARK    5  A    between atoms: C_17  and  O_18 
REMARK    6  A    between atoms: C_17  and  C_19 
ROOT
HETATM    1  C   UNL     1       7.476  27.976  56.132  1.00  0.00     0.257 C 
HETATM    2  N   UNL     1       6.916  28.292  57.347  1.00  0.00    -0.354 N 
HETATM    3  O   UNL     1       8.213  28.775  55.557  1.00  0.00    -0.267 OA
HETATM    4  H   UNL     1       6.305  27.620  57.795  1.00  0.00     0.162 HD
ENDROOT
BRANCH   1   5
HETATM    5  C   UNL     1       7.176  26.667  55.578  1.00  0.00     0.098 C 
HETATM    6  C   UNL     1       6.162  26.374  54.628  1.00  0.00     0.070 C 
HETATM    7  C   UNL     1       5.195  27.314  53.998  1.00  0.00     0.073 C 
HETATM    8  N   UNL     1       6.096  25.073  54.338  1.00  0.00    -0.170 NA
HETATM    9  N   UNL     1       7.137  24.496  55.002  1.00  0.00    -0.221 N 
HETATM   10  C   UNL     1       7.736  25.430  55.836  1.00  0.00     0.145 C 
HETATM   11 CL   UNL     1       8.876  24.998  57.039  1.00  0.00    -0.061 Cl
BRANCH   9  12
HETATM   12  C   UNL     1       7.431  23.123  54.728  1.00  0.00     0.060 A 
HETATM   13  C   UNL     1       7.509  22.148  55.729  1.00  0.00     0.031 A 
HETATM   14  C   UNL     1       7.820  20.822  55.403  1.00  0.00     0.002 A 
HETATM   15  C   UNL     1       8.067  20.459  54.081  1.00  0.00     0.000 A 
HETATM   16  C   UNL     1       8.016  21.422  53.079  1.00  0.00     0.002 A 
HETATM   17  C   UNL     1       7.708  22.747  53.400  1.00  0.00     0.031 A 
ENDBRANCH   9  12
ENDBRANCH   1   5
BRANCH   2  18
HETATM   18  C   UNL     1       7.074  29.608  57.957  1.00  0.00     0.159 C 
BRANCH  18  19
HETATM   19  C   UNL     1       8.440  29.807  58.657  1.00  0.00     0.169 C 
BRANCH  19  20
HETATM   20  O   UNL     1       9.390  30.477  57.826  1.00  0.00    -0.389 OA
HETATM   21  H   UNL     1       9.468  29.978  56.986  1.00  0.00     0.210 HD
ENDBRANCH  19  20
BRANCH  19  22
HETATM   22  C   UNL     1       8.280  30.618  59.928  1.00  0.00    -0.025 A 
HETATM   23  C   UNL     1       7.270  31.587  60.028  1.00  0.00     0.053 A 
HETATM   24  C   UNL     1       7.138  32.344  61.192  1.00  0.00     0.138 A 
HETATM   25  F   UNL     1       6.162  33.264  61.249  1.00  0.00    -0.204 F 
HETATM   26  C   UNL     1       8.001  32.156  62.268  1.00  0.00     0.072 A 
HETATM   27 CL   UNL     1       7.836  33.092  63.704  1.00  0.00    -0.081 Cl
HETATM   28  C   UNL     1       9.011  31.202  62.183  1.00  0.00     0.028 A 
HETATM   29  C   UNL     1       9.151  30.441  61.018  1.00  0.00     0.012 A 
ENDBRANCH  19  22
ENDBRANCH  18  19
ENDBRANCH   2  18
TORSDOF 6
ENDMDL
MODEL 3
REMARK VINA RESULT:      -9.6      5.768      8.115
REMARK  6 active torsions:
REMARK  status: ('A' for Active; 'I' for Inactive)
REMARK    1  A    between atoms: N_4  and  C_5 
REMARK    2  A    between atoms: C_13  and  C_14 
REMARK       I    between atoms: C_14  and  N_15 
REMARK    3  A    between atoms: N_15  and  C_16 
REMARK    4  A    between atoms: C_16  and  C_17 
REMARK    5  A    between atoms: C_17  and  O_18 
REMARK    6  A    between atoms: C_17  and  C_19 
ROOT
HETATM    1  C   UNL     1       5.601  27.257  54.406  1.00  0.00     0.257 C 
HETATM    2  N   UNL     1       4.466  27.344  53.636  1.00  0.00    -0.354 N 
HETATM    3  O   UNL     1       6.162  28.274  54.809  1.00  0.00    -0.267 OA
HETATM    4  H   UNL     1       4.028  26.491  53.310  1.00  0.00     0.162 HD
ENDROOT
BRANCH   1   5
HETATM    5  C   UNL     1       6.086  25.927  54.734  1.00  0.00     0.098 C 
HETATM    6  C   UNL     1       5.843  25.226  55.946  1.00  0.00     0.070 C 
HETATM    7  C   UNL     1       5.062  25.679  57.128  1.00  0.00     0.073 C 
HETATM    8  N   UNL     1       6.453  24.039  55.978  1.00  0.00    -0.170 NA
HETATM    9  N   UNL     1       7.014  23.882  54.746  1.00  0.00    -0.221 N 
HETATM   10  C   UNL     1       6.887  25.058  54.020  1.00  0.00     0.145 C 
HETATM   11 CL   UNL     1       7.730  25.334  52.555  1.00  0.00    -0.061 Cl
BRANCH   9  12
HETATM   12  C   UNL     1       7.582  22.608  54.423  1.00  0.00     0.060 A 
HETATM   13  C   UNL     1       7.761  22.168  53.106  1.00  0.00     0.031 A 
HETATM   14  C   UNL     1       8.304  20.903  52.851  1.00  0.00     0.002 A 
HETATM   15  C   UNL     1       8.663  20.063  53.903  1.00  0.00     0.000 A 
HETATM   16  C   UNL     1       8.469  20.479  55.216  1.00  0.00     0.002 A 
HETATM   17  C   UNL     1       7.925  21.739  55.475  1.00  0.00     0.031 A 
ENDBRANCH   9  12
ENDBRANCH   1   5
BRANCH   2  18
HETATM   18  C   UNL     1       3.939  28.622  53.171  1.00  0.00     0.159 C 
BRANCH  18  19
HETATM   19  C   UNL     1       4.602  29.130  51.868  1.00  0.00     0.169 C 
BRANCH  19  20
HETATM   20  O   UNL     1       6.028  29.146  51.949  1.00  0.00    -0.389 OA
HETATM   21  H   UNL     1       6.379  29.492  51.102  1.00  0.00     0.210 HD
ENDBRANCH  19  20
BRANCH  19  22
HETATM   22  C   UNL     1       4.212  28.257  50.691  1.00  0.00    -0.025 A 
HETATM   23  C   UNL     1       3.029  28.510  49.982  1.00  0.00     0.053 A 
HETATM   24  C   UNL     1       2.664  27.693  48.912  1.00  0.00     0.138 A 
HETATM   25  F   UNL     1       1.522  27.966  48.259  1.00  0.00    -0.204 F 
HETATM   26  C   UNL     1       3.461  26.616  48.532  1.00  0.00     0.072 A 
HETATM   27 CL   UNL     1       3.008  25.608  47.211  1.00  0.00    -0.081 Cl
HETATM   28  C   UNL     1       4.635  26.348  49.229  1.00  0.00     0.028 A 
HETATM   29  C   UNL     1       5.005  27.161  50.304  1.00  0.00     0.012 A 
ENDBRANCH  19  22
ENDBRANCH  18  19
ENDBRANCH   2  18
TORSDOF 6
ENDMDL
MODEL 4
REMARK VINA RESULT:      -9.5      6.237      9.043
REMARK  6 active torsions:
REMARK  status: ('A' for Active; 'I' for Inactive)
REMARK    1  A    between atoms: N_4  and  C_5 
REMARK    2  A    between atoms: C_13  and  C_14 
REMARK       I    between atoms: C_14  and  N_15 
REMARK    3  A    between atoms: N_15  and  C_16 
REMARK    4  A    between atoms: C_16  and  C_17 
REMARK    5  A    between atoms: C_17  and  O_18 
REMARK    6  A    between atoms: C_17  and  C_19 
ROOT
HETATM    1  C   UNL     1       5.710  26.917  53.434  1.00  0.00     0.257 C 
HETATM    2  N   UNL     1       4.722  26.731  52.498  1.00  0.00    -0.354 N 
HETATM    3  O   UNL     1       6.135  28.045  53.678  1.00  0.00    -0.267 OA
HETATM    4  H   UNL     1       4.396  25.790  52.309  1.00  0.00     0.162 HD
ENDROOT
BRANCH   1   5
HETATM    5  C   UNL     1       6.205  25.740  54.127  1.00  0.00     0.098 C 
HETATM    6  C   UNL     1       5.975  25.415  55.490  1.00  0.00     0.070 C 
HETATM    7  C   UNL     1       5.199  26.186  56.499  1.00  0.00     0.073 C 
HETATM    8  N   UNL     1       6.593  24.291  55.858  1.00  0.00    -0.170 NA
HETATM    9  N   UNL     1       7.147  23.789  54.718  1.00  0.00    -0.221 N 
HETATM   10  C   UNL     1       7.008  24.706  53.685  1.00  0.00     0.145 C 
HETATM   11 CL   UNL     1       7.840  24.553  52.196  1.00  0.00    -0.061 Cl
BRANCH   9  12
HETATM   12  C   UNL     1       7.722  22.479  54.770  1.00  0.00     0.060 A 
HETATM   13  C   UNL     1       7.820  21.647  53.648  1.00  0.00     0.031 A 
HETATM   14  C   UNL     1       8.374  20.367  53.764  1.00  0.00     0.002 A 
HETATM   15  C   UNL     1       8.823  19.900  54.997  1.00  0.00     0.000 A 
HETATM   16  C   UNL     1       8.710  20.707  56.124  1.00  0.00     0.002 A 
HETATM   17  C   UNL     1       8.156  21.985  56.014  1.00  0.00     0.031 A 
ENDBRANCH   9  12
ENDBRANCH   1   5
BRANCH   2  18
HETATM   18  C   UNL     1       4.210  27.824  51.678  1.00  0.00     0.159 C 
BRANCH  18  19
HETATM   19  C   UNL     1       4.753  27.819  50.229  1.00  0.00     0.169 C 
BRANCH  19  20
HETATM   20  O   UNL     1       5.682  26.760  49.994  1.00  0.00    -0.389 OA
HETATM   21  H   UNL     1       6.329  26.751  50.730  1.00  0.00     0.210 HD
ENDBRANCH  19  20
BRANCH  19  22
HETATM   22  C   UNL     1       3.619  27.674  49.232  1.00  0.00    -0.025 A 
HETATM   23  C   UNL     1       3.627  26.627  48.297  1.00  0.00     0.053 A 
HETATM   24  C   UNL     1       2.592  26.509  47.369  1.00  0.00     0.138 A 
HETATM   25  F   UNL     1       2.636  25.496  46.489  1.00  0.00    -0.204 F 
HETATM   26  C   UNL     1       1.541  27.422  47.351  1.00  0.00     0.072 A 
HETATM   27 CL   UNL     1       0.266  27.274  46.204  1.00  0.00    -0.081 Cl
HETATM   28  C   UNL     1       1.522  28.469  48.267  1.00  0.00     0.028 A 
HETATM   29  C   UNL     1       2.557  28.596  49.199  1.00  0.00     0.012 A 
ENDBRANCH  19  22
ENDBRANCH  18  19
ENDBRANCH   2  18
TORSDOF 6
ENDMDL
MODEL 5
REMARK VINA RESULT:      -9.5      1.891      2.159
REMARK  6 active torsions:
REMARK  status: ('A' for Active; 'I' for Inactive)
REMARK    1  A    between atoms: N_4  and  C_5 
REMARK    2  A    between atoms: C_13  and  C_14 
REMARK       I    between atoms: C_14  and  N_15 
REMARK    3  A    between atoms: N_15  and  C_16 
REMARK    4  A    between atoms: C_16  and  C_17 
REMARK    5  A    between atoms: C_17  and  O_18 
REMARK    6  A    between atoms: C_17  and  C_19 
ROOT
HETATM    1  C   UNL     1       6.963  27.614  54.628  1.00  0.00     0.257 C 
HETATM    2  N   UNL     1       5.923  28.148  55.350  1.00  0.00    -0.354 N 
HETATM    3  O   UNL     1       7.904  28.320  54.271  1.00  0.00    -0.267 OA
HETATM    4  H   UNL     1       5.156  27.547  55.624  1.00  0.00     0.162 HD
ENDROOT
BRANCH   1   5
HETATM    5  C   UNL     1       6.909  26.193  54.330  1.00  0.00     0.098 C 
HETATM    6  C   UNL     1       6.196  25.591  53.259  1.00  0.00     0.070 C 
HETATM    7  C   UNL     1       5.358  26.257  52.225  1.00  0.00     0.073 C 
HETATM    8  N   UNL     1       6.298  24.260  53.264  1.00  0.00    -0.170 NA
HETATM    9  N   UNL     1       7.172  23.963  54.266  1.00  0.00    -0.221 N 
HETATM   10  C   UNL     1       7.470  25.113  54.984  1.00  0.00     0.145 C 
HETATM   11 CL   UNL     1       8.290  25.077  56.487  1.00  0.00    -0.061 Cl
BRANCH   9  12
HETATM   12  C   UNL     1       7.623  22.610  54.386  1.00  0.00     0.060 A 
HETATM   13  C   UNL     1       7.591  21.903  55.594  1.00  0.00     0.031 A 
HETATM   14  C   UNL     1       8.064  20.586  55.655  1.00  0.00     0.002 A 
HETATM   15  C   UNL     1       8.583  19.968  54.520  1.00  0.00     0.000 A 
HETATM   16  C   UNL     1       8.643  20.668  53.319  1.00  0.00     0.002 A 
HETATM   17  C   UNL     1       8.173  21.982  53.253  1.00  0.00     0.031 A 
ENDBRANCH   9  12
ENDBRANCH   1   5
BRANCH   2  18
HETATM   18  C   UNL     1       5.826  29.577  55.632  1.00  0.00     0.159 C 
BRANCH  18  19
HETATM   19  C   UNL     1       5.316  29.894  57.058  1.00  0.00     0.169 C 
BRANCH  19  20
HETATM   20  O   UNL     1       4.814  28.738  57.731  1.00  0.00    -0.389 OA
HETATM   21  H   UNL     1       5.353  28.593  58.536  1.00  0.00     0.210 HD
ENDBRANCH  19  20
BRANCH  19  22
HETATM   22  C   UNL     1       6.427  30.481  57.907  1.00  0.00    -0.025 A 
HETATM   23  C   UNL     1       7.725  29.952  57.843  1.00  0.00     0.053 A 
HETATM   24  C   UNL     1       8.739  30.482  58.640  1.00  0.00     0.138 A 
HETATM   25  F   UNL     1       9.967  29.947  58.552  1.00  0.00    -0.204 F 
HETATM   26  C   UNL     1       8.484  31.539  59.510  1.00  0.00     0.072 A 
HETATM   27 CL   UNL     1       9.738  32.192  60.494  1.00  0.00    -0.081 Cl
HETATM   28  C   UNL     1       7.201  32.072  59.591  1.00  0.00     0.028 A 
HETATM   29  C   UNL     1       6.178  31.543  58.797  1.00  0.00     0.012 A 
ENDBRANCH  19  22
ENDBRANCH  18  19
ENDBRANCH   2  18
TORSDOF 6
ENDMDL
MODEL 6
REMARK VINA RESULT:      -9.4      3.559      9.986
REMARK  6 active torsions:
REMARK  status: ('A' for Active; 'I' for Inactive)
REMARK    1  A    between atoms: N_4  and  C_5 
REMARK    2  A    between atoms: C_13  and  C_14 
REMARK       I    between atoms: C_14  and  N_15 
REMARK    3  A    between atoms: N_15  and  C_16 
REMARK    4  A    between atoms: C_16  and  C_17 
REMARK    5  A    between atoms: C_17  and  O_18 
REMARK    6  A    between atoms: C_17  and  C_19 
ROOT
HETATM    1  C   UNL     1       8.116  29.966  58.506  1.00  0.00     0.257 C 
HETATM    2  N   UNL     1       7.332  28.900  58.137  1.00  0.00    -0.354 N 
HETATM    3  O   UNL     1       9.237  30.114  58.021  1.00  0.00    -0.267 OA
HETATM    4  H   UNL     1       6.416  28.796  58.558  1.00  0.00     0.162 HD
ENDROOT
BRANCH   1   5
HETATM    5  C   UNL     1       7.559  30.907  59.462  1.00  0.00     0.098 C 
HETATM    6  C   UNL     1       6.526  31.847  59.203  1.00  0.00     0.070 C 
HETATM    7  C   UNL     1       5.797  32.082  57.927  1.00  0.00     0.073 C 
HETATM    8  N   UNL     1       6.252  32.608  60.265  1.00  0.00    -0.170 NA
HETATM    9  N   UNL     1       7.015  32.111  61.279  1.00  0.00    -0.221 N 
HETATM   10  C   UNL     1       7.885  31.149  60.782  1.00  0.00     0.145 C 
HETATM   11 CL   UNL     1       9.192  30.527  61.697  1.00  0.00    -0.061 Cl
BRANCH   9  12
HETATM   12  C   UNL     1       6.790  32.615  62.599  1.00  0.00     0.060 A 
HETATM   13  C   UNL     1       7.832  32.940  63.476  1.00  0.00     0.031 A 
HETATM   14  C   UNL     1       7.551  33.410  64.764  1.00  0.00     0.002 A 
HETATM   15  C   UNL     1       6.233  33.550  65.194  1.00  0.00     0.000 A 
HETATM   16  C   UNL     1       5.189  33.209  64.341  1.00  0.00     0.002 A 
HETATM   17  C   UNL     1       5.465  32.737  63.055  1.00  0.00     0.031 A 
ENDBRANCH   9  12
ENDBRANCH   1   5
BRANCH   2  18
HETATM   18  C   UNL     1       7.818  27.845  57.254  1.00  0.00     0.159 C 
BRANCH  18  19
HETATM   19  C   UNL     1       7.173  27.869  55.847  1.00  0.00     0.169 C 
BRANCH  19  20
HETATM   20  O   UNL     1       7.711  28.897  55.014  1.00  0.00    -0.389 OA
HETATM   21  H   UNL     1       8.575  28.591  54.668  1.00  0.00     0.210 HD
ENDBRANCH  19  20
BRANCH  19  22
HETATM   22  C   UNL     1       7.377  26.543  55.140  1.00  0.00    -0.025 A 
HETATM   23  C   UNL     1       7.623  26.506  53.759  1.00  0.00     0.053 A 
HETATM   24  C   UNL     1       7.791  25.283  53.109  1.00  0.00     0.138 A 
HETATM   25  F   UNL     1       8.022  25.289  51.786  1.00  0.00    -0.204 F 
HETATM   26  C   UNL     1       7.716  24.084  53.813  1.00  0.00     0.072 A 
HETATM   27 CL   UNL     1       7.922  22.576  53.009  1.00  0.00    -0.081 Cl
HETATM   28  C   UNL     1       7.467  24.103  55.182  1.00  0.00     0.028 A 
HETATM   29  C   UNL     1       7.295  25.326  55.840  1.00  0.00     0.012 A 
ENDBRANCH  19  22
ENDBRANCH  18  19
ENDBRANCH   2  18
TORSDOF 6
ENDMDL
MODEL 7
REMARK VINA RESULT:      -9.3      3.041      9.679
REMARK  6 active torsions:
REMARK  status: ('A' for Active; 'I' for Inactive)
REMARK    1  A    between atoms: N_4  and  C_5 
REMARK    2  A    between atoms: C_13  and  C_14 
REMARK       I    between atoms: C_14  and  N_15 
REMARK    3  A    between atoms: N_15  and  C_16 
REMARK    4  A    between atoms: C_16  and  C_17 
REMARK    5  A    between atoms: C_17  and  O_18 
REMARK    6  A    between atoms: C_17  and  C_19 
ROOT
HETATM    1  C   UNL     1       7.788  29.505  57.472  1.00  0.00     0.257 C 
HETATM    2  N   UNL     1       7.058  28.344  57.390  1.00  0.00    -0.354 N 
HETATM    3  O   UNL     1       8.754  29.689  56.734  1.00  0.00    -0.267 OA
HETATM    4  H   UNL     1       6.272  28.214  58.015  1.00  0.00     0.162 HD
ENDROOT
BRANCH   1   5
HETATM    5  C   UNL     1       7.359  30.498  58.441  1.00  0.00     0.098 C 
HETATM    6  C   UNL     1       6.199  31.313  58.344  1.00  0.00     0.070 C 
HETATM    7  C   UNL     1       5.185  31.340  57.255  1.00  0.00     0.073 C 
HETATM    8  N   UNL     1       6.087  32.163  59.367  1.00  0.00    -0.170 NA
HETATM    9  N   UNL     1       7.105  31.850  60.217  1.00  0.00    -0.221 N 
HETATM   10  C   UNL     1       7.941  30.915  59.623  1.00  0.00     0.145 C 
HETATM   11 CL   UNL     1       9.477  30.512  60.263  1.00  0.00    -0.061 Cl
BRANCH   9  12
HETATM   12  C   UNL     1       7.125  32.479  61.502  1.00  0.00     0.060 A 
HETATM   13  C   UNL     1       7.965  32.061  62.540  1.00  0.00     0.031 A 
HETATM   14  C   UNL     1       7.927  32.703  63.784  1.00  0.00     0.002 A 
HETATM   15  C   UNL     1       7.046  33.758  64.008  1.00  0.00     0.000 A 
HETATM   16  C   UNL     1       6.189  34.169  62.992  1.00  0.00     0.002 A 
HETATM   17  C   UNL     1       6.222  33.530  61.750  1.00  0.00     0.031 A 
ENDBRANCH   9  12
ENDBRANCH   1   5
BRANCH   2  18
HETATM   18  C   UNL     1       7.446  27.241  56.517  1.00  0.00     0.159 C 
BRANCH  18  19
HETATM   19  C   UNL     1       8.219  26.116  57.247  1.00  0.00     0.169 C 
BRANCH  19  20
HETATM   20  O   UNL     1       7.753  25.906  58.580  1.00  0.00    -0.389 OA
HETATM   21  H   UNL     1       6.821  25.607  58.536  1.00  0.00     0.210 HD
ENDBRANCH  19  20
BRANCH  19  22
HETATM   22  C   UNL     1       8.095  24.805  56.497  1.00  0.00    -0.025 A 
HETATM   23  C   UNL     1       8.423  23.594  57.125  1.00  0.00     0.053 A 
HETATM   24  C   UNL     1       8.326  22.391  56.426  1.00  0.00     0.138 A 
HETATM   25  F   UNL     1       8.652  21.254  57.061  1.00  0.00    -0.204 F 
HETATM   26  C   UNL     1       7.905  22.369  55.099  1.00  0.00     0.072 A 
HETATM   27 CL   UNL     1       7.786  20.884  54.237  1.00  0.00    -0.081 Cl
HETATM   28  C   UNL     1       7.580  23.562  54.458  1.00  0.00     0.028 A 
HETATM   29  C   UNL     1       7.679  24.772  55.153  1.00  0.00     0.012 A 
ENDBRANCH  19  22
ENDBRANCH  18  19
ENDBRANCH   2  18
TORSDOF 6
ENDMDL
MODEL 8
REMARK VINA RESULT:      -9.2      5.304      8.178
REMARK  6 active torsions:
REMARK  status: ('A' for Active; 'I' for Inactive)
REMARK    1  A    between atoms: N_4  and  C_5 
REMARK    2  A    between atoms: C_13  and  C_14 
REMARK       I    between atoms: C_14  and  N_15 
REMARK    3  A    between atoms: N_15  and  C_16 
REMARK    4  A    between atoms: C_16  and  C_17 
REMARK    5  A    between atoms: C_17  and  O_18 
REMARK    6  A    between atoms: C_17  and  C_19 
ROOT
HETATM    1  C   UNL     1       6.534  26.792  55.079  1.00  0.00     0.257 C 
HETATM    2  N   UNL     1       6.155  25.641  55.729  1.00  0.00    -0.354 N 
HETATM    3  O   UNL     1       7.443  27.489  55.523  1.00  0.00    -0.267 OA
HETATM    4  H   UNL     1       5.397  25.089  55.347  1.00  0.00     0.162 HD
ENDROOT
BRANCH   1   5
HETATM    5  C   UNL     1       5.834  27.127  53.851  1.00  0.00     0.098 C 
HETATM    6  C   UNL     1       4.710  27.988  53.739  1.00  0.00     0.070 C 
HETATM    7  C   UNL     1       4.006  28.724  54.824  1.00  0.00     0.073 C 
HETATM    8  N   UNL     1       4.254  28.072  52.488  1.00  0.00    -0.170 NA
HETATM    9  N   UNL     1       5.135  27.360  51.729  1.00  0.00    -0.221 N 
HETATM   10  C   UNL     1       6.037  26.699  52.553  1.00  0.00     0.145 C 
HETATM   11 CL   UNL     1       7.092  25.481  51.977  1.00  0.00    -0.061 Cl
BRANCH   9  12
HETATM   12  C   UNL     1       5.005  27.428  50.306  1.00  0.00     0.060 A 
HETATM   13  C   UNL     1       4.563  26.349  49.530  1.00  0.00     0.031 A 
HETATM   14  C   UNL     1       4.474  26.469  48.138  1.00  0.00     0.002 A 
HETATM   15  C   UNL     1       4.835  27.656  47.506  1.00  0.00     0.000 A 
HETATM   16  C   UNL     1       5.298  28.728  48.262  1.00  0.00     0.002 A 
HETATM   17  C   UNL     1       5.390  28.613  49.652  1.00  0.00     0.031 A 
ENDBRANCH   9  12
ENDBRANCH   1   5
BRANCH   2  18
HETATM   18  C   UNL     1       6.726  25.251  57.014  1.00  0.00     0.159 C 
BRANCH  18  19
HETATM   19  C   UNL     1       8.149  24.654  56.905  1.00  0.00     0.169 C 
BRANCH  19  20
HETATM   20  O   UNL     1       8.628  24.145  58.151  1.00  0.00    -0.389 OA
HETATM   21  H   UNL     1       9.581  23.941  58.053  1.00  0.00     0.210 HD
ENDBRANCH  19  20
BRANCH  19  22
HETATM   22  C   UNL     1       8.182  23.522  55.897  1.00  0.00    -0.025 A 
HETATM   23  C   UNL     1       7.938  22.202  56.304  1.00  0.00     0.053 A 
HETATM   24  C   UNL     1       7.988  21.161  55.376  1.00  0.00     0.138 A 
HETATM   25  F   UNL     1       7.752  19.911  55.805  1.00  0.00    -0.204 F 
HETATM   26  C   UNL     1       8.281  21.411  54.038  1.00  0.00     0.072 A 
HETATM   27 CL   UNL     1       8.342  20.125  52.895  1.00  0.00    -0.081 Cl
HETATM   28  C   UNL     1       8.531  22.715  53.619  1.00  0.00     0.028 A 
HETATM   29  C   UNL     1       8.485  23.762  54.544  1.00  0.00     0.012 A 
ENDBRANCH  19  22
ENDBRANCH  18  19
ENDBRANCH   2  18
TORSDOF 6
ENDMDL
MODEL 9
REMARK VINA RESULT:      -9.1      3.601      9.310
REMARK  6 active torsions:
REMARK  status: ('A' for Active; 'I' for Inactive)
REMARK    1  A    between atoms: N_4  and  C_5 
REMARK    2  A    between atoms: C_13  and  C_14 
REMARK       I    between atoms: C_14  and  N_15 
REMARK    3  A    between atoms: N_15  and  C_16 
REMARK    4  A    between atoms: C_16  and  C_17 
REMARK    5  A    between atoms: C_17  and  O_18 
REMARK    6  A    between atoms: C_17  and  C_19 
ROOT
HETATM    1  C   UNL     1       8.013  28.598  55.297  1.00  0.00     0.257 C 
HETATM    2  N   UNL     1       7.260  27.474  55.057  1.00  0.00    -0.354 N 
HETATM    3  O   UNL     1       8.920  28.918  54.531  1.00  0.00    -0.267 OA
HETATM    4  H   UNL     1       6.525  27.228  55.708  1.00  0.00     0.162 HD
ENDROOT
BRANCH   1   5
HETATM    5  C   UNL     1       7.678  29.390  56.468  1.00  0.00     0.098 C 
HETATM    6  C   UNL     1       6.384  29.862  56.814  1.00  0.00     0.070 C 
HETATM    7  C   UNL     1       5.107  29.665  56.075  1.00  0.00     0.073 C 
HETATM    8  N   UNL     1       6.391  30.600  57.926  1.00  0.00    -0.170 NA
HETATM    9  N   UNL     1       7.667  30.535  58.400  1.00  0.00    -0.221 N 
HETATM   10  C   UNL     1       8.479  29.892  57.476  1.00  0.00     0.145 C 
HETATM   11 CL   UNL     1      10.187  29.891  57.591  1.00  0.00    -0.061 Cl
BRANCH   9  12
HETATM   12  C   UNL     1       7.931  31.084  59.695  1.00  0.00     0.060 A 
HETATM   13  C   UNL     1       7.309  32.244  60.171  1.00  0.00     0.031 A 
HETATM   14  C   UNL     1       7.623  32.746  61.440  1.00  0.00     0.002 A 
HETATM   15  C   UNL     1       8.565  32.104  62.240  1.00  0.00     0.000 A 
HETATM   16  C   UNL     1       9.207  30.963  61.771  1.00  0.00     0.002 A 
HETATM   17  C   UNL     1       8.899  30.460  60.504  1.00  0.00     0.031 A 
ENDBRANCH   9  12
ENDBRANCH   1   5
BRANCH   2  18
HETATM   18  C   UNL     1       7.561  26.556  53.963  1.00  0.00     0.159 C 
BRANCH  18  19
HETATM   19  C   UNL     1       6.480  25.468  53.752  1.00  0.00     0.169 C 
BRANCH  19  20
HETATM   20  O   UNL     1       6.011  25.414  52.404  1.00  0.00    -0.389 OA
HETATM   21  H   UNL     1       6.008  26.325  52.043  1.00  0.00     0.210 HD
ENDBRANCH  19  20
BRANCH  19  22
HETATM   22  C   UNL     1       7.020  24.098  54.113  1.00  0.00    -0.025 A 
HETATM   23  C   UNL     1       7.367  23.184  53.106  1.00  0.00     0.053 A 
HETATM   24  C   UNL     1       7.844  21.918  53.443  1.00  0.00     0.138 A 
HETATM   25  F   UNL     1       8.163  21.071  52.451  1.00  0.00    -0.204 F 
HETATM   26  C   UNL     1       7.983  21.537  54.775  1.00  0.00     0.072 A 
HETATM   27 CL   UNL     1       8.572  19.973  55.188  1.00  0.00    -0.081 Cl
HETATM   28  C   UNL     1       7.638  22.430  55.786  1.00  0.00     0.028 A 
HETATM   29  C   UNL     1       7.155  23.700  55.456  1.00  0.00     0.012 A 
ENDBRANCH  19  22
ENDBRANCH  18  19
ENDBRANCH   2  18
TORSDOF 6
ENDMDL
MODEL 10
REMARK VINA RESULT:      -9.1      3.189      4.932
REMARK  6 active torsions:
REMARK  status: ('A' for Active; 'I' for Inactive)
REMARK    1  A    between atoms: N_4  and  C_5 
REMARK    2  A    between atoms: C_13  and  C_14 
REMARK       I    between atoms: C_14  and  N_15 
REMARK    3  A    between atoms: N_15  and  C_16 
REMARK    4  A    between atoms: C_16  and  C_17 
REMARK    5  A    between atoms: C_17  and  O_18 
REMARK    6  A    between atoms: C_17  and  C_19 
ROOT
HETATM    1  C   UNL     1       7.370  30.828  58.798  1.00  0.00     0.257 C 
HETATM    2  N   UNL     1       7.541  30.748  60.160  1.00  0.00    -0.354 N 
HETATM    3  O   UNL     1       6.895  31.840  58.288  1.00  0.00    -0.267 OA
HETATM    4  H   UNL     1       7.926  29.899  60.556  1.00  0.00     0.162 HD
ENDROOT
BRANCH   1   5
HETATM    5  C   UNL     1       7.791  29.687  58.003  1.00  0.00     0.098 C 
HETATM    6  C   UNL     1       9.112  29.426  57.552  1.00  0.00     0.070 C 
HETATM    7  C   UNL     1      10.337  30.239  57.779  1.00  0.00     0.073 C 
HETATM    8  N   UNL     1       9.186  28.323  56.804  1.00  0.00    -0.170 NA
HETATM    9  N   UNL     1       7.941  27.771  56.842  1.00  0.00    -0.221 N 
HETATM   10  C   UNL     1       7.062  28.638  57.478  1.00  0.00     0.145 C 
HETATM   11 CL   UNL     1       5.364  28.419  57.446  1.00  0.00    -0.061 Cl
BRANCH   9  12
HETATM   12  C   UNL     1       7.765  26.467  56.277  1.00  0.00     0.060 A 
HETATM   13  C   UNL     1       7.250  26.259  54.992  1.00  0.00     0.031 A 
HETATM   14  C   UNL     1       7.083  24.959  54.500  1.00  0.00     0.002 A 
HETATM   15  C   UNL     1       7.416  23.857  55.285  1.00  0.00     0.000 A 
HETATM   16  C   UNL     1       7.907  24.050  56.572  1.00  0.00     0.002 A 
HETATM   17  C   UNL     1       8.074  25.345  57.068  1.00  0.00     0.031 A 
ENDBRANCH   9  12
ENDBRANCH   1   5
BRANCH   2  18
HETATM   18  C   UNL     1       7.076  31.793  61.065  1.00  0.00     0.159 C 
BRANCH  18  19
HETATM   19  C   UNL     1       7.727  31.733  62.468  1.00  0.00     0.169 C 
BRANCH  19  20
HETATM   20  O   UNL     1       9.080  32.191  62.466  1.00  0.00    -0.389 OA
HETATM   21  H   UNL     1       9.224  32.718  61.652  1.00  0.00     0.210 HD
ENDBRANCH  19  20
BRANCH  19  22
HETATM   22  C   UNL     1       6.950  32.579  63.458  1.00  0.00    -0.025 A 
HETATM   23  C   UNL     1       5.575  32.798  63.278  1.00  0.00     0.053 A 
HETATM   24  C   UNL     1       4.868  33.593  64.180  1.00  0.00     0.138 A 
HETATM   25  F   UNL     1       3.555  33.781  63.973  1.00  0.00    -0.204 F 
HETATM   26  C   UNL     1       5.509  34.182  65.267  1.00  0.00     0.072 A 
HETATM   27 CL   UNL     1       4.634  35.164  66.379  1.00  0.00    -0.081 Cl
HETATM   28  C   UNL     1       6.873  33.980  65.456  1.00  0.00     0.028 A 
HETATM   29  C   UNL     1       7.589  33.186  64.554  1.00  0.00     0.012 A 
ENDBRANCH  19  22
ENDBRANCH  18  19
ENDBRANCH   2  18
TORSDOF 6
ENDMDL
