MODEL 1
REMARK VINA RESULT:      -9.6      0.000      0.000
REMARK  8 active torsions:
REMARK  status: ('A' for Active; 'I' for Inactive)
REMARK    1  A    between atoms: C_2  and  C_3 
REMARK    2  A    between atoms: C_3  and  O_4 
REMARK    3  A    between atoms: O_4  and  C_5 
REMARK    4  A    between atoms: C_8  and  C_9 
REMARK    5  A    between atoms: C_13  and  C_14 
REMARK       I    between atoms: C_14  and  N_15 
REMARK    6  A    between atoms: N_15  and  N_16 
REMARK    7  A    between atoms: C_17  and  C_18 
REMARK    8  A    between atoms: C_21  and  O_22 
ROOT
HETATM    1  C   UNL     1       8.428  28.373  57.184  1.00  0.00     0.089 A 
HETATM    2  N   UNL     1       9.567  29.018  56.893  1.00  0.00    -0.174 NA
HETATM    3  N   UNL     1       9.584  30.070  57.724  1.00  0.00    -0.272 N 
HETATM    4  H   UNL     1      10.366  30.719  57.686  1.00  0.00     0.189 HD
HETATM    5  C   UNL     1       8.516  30.132  58.574  1.00  0.00     0.121 A 
HETATM    6  C   UNL     1       7.735  29.046  58.230  1.00  0.00     0.071 A 
ENDROOT
BRANCH   5   7
HETATM    7  C   UNL     1       8.408  31.176  59.563  1.00  0.00     0.289 C 
HETATM    8  N   UNL     1       7.856  30.771  60.769  1.00  0.00    -0.242 N 
HETATM    9  H   UNL     1       7.565  29.814  60.904  1.00  0.00     0.192 HD
HETATM   10  O   UNL     1       8.795  32.316  59.324  1.00  0.00    -0.264 OA
BRANCH   8  11
HETATM   11  N   UNL     1       7.751  31.650  61.809  1.00  0.00    -0.184 NA
HETATM   12  C   UNL     1       6.621  31.639  62.439  1.00  0.00     0.150 C 
BRANCH  12  13
HETATM   13  C   UNL     1       6.364  32.525  63.592  1.00  0.00    -0.017 A 
HETATM   14  C   UNL     1       5.061  32.826  63.988  1.00  0.00     0.016 A 
HETATM   15  C   UNL     1       4.850  33.666  65.084  1.00  0.00     0.037 A 
HETATM   16  C   UNL     1       5.930  34.202  65.791  1.00  0.00     0.068 A 
HETATM   17  C   UNL     1       7.232  33.902  65.385  1.00  0.00     0.037 A 
HETATM   18  C   UNL     1       7.451  33.064  64.285  1.00  0.00     0.016 A 
BRANCH  16  19
HETATM   19  O   UNL     1       5.582  35.002  66.845  1.00  0.00    -0.356 OA
HETATM   20  C   UNL     1       5.183  34.350  68.044  1.00  0.00     0.210 C 
ENDBRANCH  16  19
ENDBRANCH  12  13
ENDBRANCH   8  11
ENDBRANCH   5   7
BRANCH   1  21
HETATM   21  C   UNL     1       8.044  27.137  56.499  1.00  0.00    -0.005 A 
HETATM   22  C   UNL     1       8.206  25.896  57.131  1.00  0.00     0.016 A 
HETATM   23  C   UNL     1       7.801  24.708  56.507  1.00  0.00     0.037 A 
HETATM   24  C   UNL     1       7.232  24.746  55.236  1.00  0.00     0.068 A 
HETATM   25  C   UNL     1       7.093  25.975  54.588  1.00  0.00     0.037 A 
HETATM   26  C   UNL     1       7.491  27.163  55.212  1.00  0.00     0.016 A 
BRANCH  24  27
HETATM   27  O   UNL     1       6.783  23.670  54.523  1.00  0.00    -0.351 OA
BRANCH  27  28
HETATM   28  C   UNL     1       7.597  22.496  54.547  1.00  0.00     0.175 C 
BRANCH  28  29
HETATM   29  C   UNL     1       7.928  22.129  53.103  1.00  0.00     0.022 C 
HETATM   30  C   UNL     1       8.154  20.636  52.938  1.00  0.00     0.007 C 
ENDBRANCH  28  29
ENDBRANCH  27  28
ENDBRANCH  24  27
ENDBRANCH   1  21
TORSDOF 8
ENDMDL
MODEL 2
REMARK VINA RESULT:      -9.3      1.698     11.788
REMARK  8 active torsions:
REMARK  status: ('A' for Active; 'I' for Inactive)
REMARK    1  A    between atoms: C_2  and  C_3 
REMARK    2  A    between atoms: C_3  and  O_4 
REMARK    3  A    between atoms: O_4  and  C_5 
REMARK    4  A    between atoms: C_8  and  C_9 
REMARK    5  A    between atoms: C_13  and  C_14 
REMARK       I    between atoms: C_14  and  N_15 
REMARK    6  A    between atoms: N_15  and  N_16 
REMARK    7  A    between atoms: C_17  and  C_18 
REMARK    8  A    between atoms: C_21  and  O_22 
ROOT
HETATM    1  C   UNL     1       8.523  31.684  60.174  1.00  0.00     0.089 A 
HETATM    2  N   UNL     1       9.457  32.324  59.454  1.00  0.00    -0.174 NA
HETATM    3  N   UNL     1       9.738  31.488  58.443  1.00  0.00    -0.272 N 
HETATM    4  H   UNL     1      10.434  31.761  57.754  1.00  0.00     0.189 HD
HETATM    5  C   UNL     1       9.007  30.333  58.449  1.00  0.00     0.121 A 
HETATM    6  C   UNL     1       8.219  30.426  59.579  1.00  0.00     0.071 A 
ENDROOT
BRANCH   5   7
HETATM    7  C   UNL     1       9.155  29.351  57.403  1.00  0.00     0.289 C 
HETATM    8  N   UNL     1       8.357  28.227  57.552  1.00  0.00    -0.242 N 
HETATM    9  H   UNL     1       7.736  28.141  58.344  1.00  0.00     0.192 HD
HETATM   10  O   UNL     1       9.927  29.536  56.466  1.00  0.00    -0.264 OA
BRANCH   8  11
HETATM   11  N   UNL     1       8.361  27.248  56.600  1.00  0.00    -0.184 NA
HETATM   12  C   UNL     1       7.974  26.079  56.999  1.00  0.00     0.150 C 
BRANCH  12  13
HETATM   13  C   UNL     1       7.914  24.925  56.081  1.00  0.00    -0.017 A 
HETATM   14  C   UNL     1       8.726  23.807  56.279  1.00  0.00     0.016 A 
HETATM   15  C   UNL     1       8.645  22.730  55.394  1.00  0.00     0.037 A 
HETATM   16  C   UNL     1       7.755  22.757  54.316  1.00  0.00     0.068 A 
HETATM   17  C   UNL     1       6.950  23.881  54.120  1.00  0.00     0.037 A 
HETATM   18  C   UNL     1       7.029  24.966  55.000  1.00  0.00     0.016 A 
BRANCH  16  19
HETATM   19  O   UNL     1       7.773  21.636  53.533  1.00  0.00    -0.356 OA
HETATM   20  C   UNL     1       8.370  20.471  54.089  1.00  0.00     0.210 C 
ENDBRANCH  16  19
ENDBRANCH  12  13
ENDBRANCH   8  11
ENDBRANCH   5   7
BRANCH   1  21
HETATM   21  C   UNL     1       7.926  32.283  61.370  1.00  0.00    -0.005 A 
HETATM   22  C   UNL     1       8.519  32.097  62.627  1.00  0.00     0.016 A 
HETATM   23  C   UNL     1       7.985  32.700  63.774  1.00  0.00     0.037 A 
HETATM   24  C   UNL     1       6.846  33.496  63.679  1.00  0.00     0.068 A 
HETATM   25  C   UNL     1       6.233  33.662  62.436  1.00  0.00     0.037 A 
HETATM   26  C   UNL     1       6.768  33.065  61.288  1.00  0.00     0.016 A 
BRANCH  24  27
HETATM   27  O   UNL     1       6.234  34.151  64.711  1.00  0.00    -0.351 OA
BRANCH  27  28
HETATM   28  C   UNL     1       4.944  33.677  65.100  1.00  0.00     0.175 C 
BRANCH  28  29
HETATM   29  C   UNL     1       4.656  34.208  66.502  1.00  0.00     0.022 C 
HETATM   30  C   UNL     1       3.741  35.420  66.470  1.00  0.00     0.007 C 
ENDBRANCH  28  29
ENDBRANCH  27  28
ENDBRANCH  24  27
ENDBRANCH   1  21
TORSDOF 8
ENDMDL
MODEL 3
REMARK VINA RESULT:      -8.2      1.632      1.924
REMARK  8 active torsions:
REMARK  status: ('A' for Active; 'I' for Inactive)
REMARK    1  A    between atoms: C_2  and  C_3 
REMARK    2  A    between atoms: C_3  and  O_4 
REMARK    3  A    between atoms: O_4  and  C_5 
REMARK    4  A    between atoms: C_8  and  C_9 
REMARK    5  A    between atoms: C_13  and  C_14 
REMARK       I    between atoms: C_14  and  N_15 
REMARK    6  A    between atoms: N_15  and  N_16 
REMARK    7  A    between atoms: C_17  and  C_18 
REMARK    8  A    between atoms: C_21  and  O_22 
ROOT
HETATM    1  C   UNL     1       7.374  27.787  56.240  1.00  0.00     0.089 A 
HETATM    2  N   UNL     1       7.783  28.827  55.497  1.00  0.00    -0.174 NA
HETATM    3  N   UNL     1       7.399  29.910  56.189  1.00  0.00    -0.272 N 
HETATM    4  H   UNL     1       7.602  30.833  55.815  1.00  0.00     0.189 HD
HETATM    5  C   UNL     1       6.778  29.630  57.374  1.00  0.00     0.121 A 
HETATM    6  C   UNL     1       6.731  28.250  57.424  1.00  0.00     0.071 A 
ENDROOT
BRANCH   5   7
HETATM    7  C   UNL     1       6.348  30.683  58.259  1.00  0.00     0.289 C 
HETATM    8  N   UNL     1       7.167  30.881  59.360  1.00  0.00    -0.242 N 
HETATM    9  H   UNL     1       7.990  30.312  59.495  1.00  0.00     0.192 HD
HETATM   10  O   UNL     1       5.338  31.338  58.019  1.00  0.00    -0.264 OA
BRANCH   8  11
HETATM   11  N   UNL     1       6.902  31.886  60.246  1.00  0.00    -0.184 NA
HETATM   12  C   UNL     1       6.941  31.554  61.496  1.00  0.00     0.150 C 
BRANCH  12  13
HETATM   13  C   UNL     1       6.688  32.536  62.569  1.00  0.00    -0.017 A 
HETATM   14  C   UNL     1       7.570  32.668  63.643  1.00  0.00     0.016 A 
HETATM   15  C   UNL     1       7.304  33.607  64.642  1.00  0.00     0.037 A 
HETATM   16  C   UNL     1       6.169  34.420  64.575  1.00  0.00     0.068 A 
HETATM   17  C   UNL     1       5.287  34.278  63.501  1.00  0.00     0.037 A 
HETATM   18  C   UNL     1       5.544  33.336  62.498  1.00  0.00     0.016 A 
BRANCH  16  19
HETATM   19  O   UNL     1       6.034  35.299  65.614  1.00  0.00    -0.356 OA
HETATM   20  C   UNL     1       4.709  35.604  66.031  1.00  0.00     0.210 C 
ENDBRANCH  16  19
ENDBRANCH  12  13
ENDBRANCH   8  11
ENDBRANCH   5   7
BRANCH   1  21
HETATM   21  C   UNL     1       7.626  26.403  55.834  1.00  0.00    -0.005 A 
HETATM   22  C   UNL     1       8.037  25.451  56.778  1.00  0.00     0.016 A 
HETATM   23  C   UNL     1       8.239  24.113  56.414  1.00  0.00     0.037 A 
HETATM   24  C   UNL     1       8.035  23.709  55.096  1.00  0.00     0.068 A 
HETATM   25  C   UNL     1       7.653  24.656  54.145  1.00  0.00     0.037 A 
HETATM   26  C   UNL     1       7.446  25.992  54.507  1.00  0.00     0.016 A 
BRANCH  24  27
HETATM   27  O   UNL     1       8.181  22.439  54.612  1.00  0.00    -0.351 OA
BRANCH  27  28
HETATM   28  C   UNL     1       7.762  22.210  53.267  1.00  0.00     0.175 C 
BRANCH  28  29
HETATM   29  C   UNL     1       8.123  20.772  52.904  1.00  0.00     0.022 C 
HETATM   30  C   UNL     1       8.780  20.044  54.064  1.00  0.00     0.007 C 
ENDBRANCH  28  29
ENDBRANCH  27  28
ENDBRANCH  24  27
ENDBRANCH   1  21
TORSDOF 8
ENDMDL
MODEL 4
REMARK VINA RESULT:      -8.2      1.620     11.985
REMARK  8 active torsions:
REMARK  status: ('A' for Active; 'I' for Inactive)
REMARK    1  A    between atoms: C_2  and  C_3 
REMARK    2  A    between atoms: C_3  and  O_4 
REMARK    3  A    between atoms: O_4  and  C_5 
REMARK    4  A    between atoms: C_8  and  C_9 
REMARK    5  A    between atoms: C_13  and  C_14 
REMARK       I    between atoms: C_14  and  N_15 
REMARK    6  A    between atoms: N_15  and  N_16 
REMARK    7  A    between atoms: C_17  and  C_18 
REMARK    8  A    between atoms: C_21  and  O_22 
ROOT
HETATM    1  C   UNL     1       6.582  32.369  60.984  1.00  0.00     0.089 A 
HETATM    2  N   UNL     1       5.867  32.974  60.023  1.00  0.00    -0.174 NA
HETATM    3  N   UNL     1       6.094  32.246  58.921  1.00  0.00    -0.272 N 
HETATM    4  H   UNL     1       5.651  32.519  58.047  1.00  0.00     0.189 HD
HETATM    5  C   UNL     1       6.908  31.166  59.118  1.00  0.00     0.121 A 
HETATM    6  C   UNL     1       7.257  31.233  60.452  1.00  0.00     0.071 A 
ENDROOT
BRANCH   5   7
HETATM    7  C   UNL     1       7.212  30.254  58.043  1.00  0.00     0.289 C 
HETATM    8  N   UNL     1       7.942  29.138  58.424  1.00  0.00    -0.242 N 
HETATM    9  H   UNL     1       8.219  29.011  59.387  1.00  0.00     0.192 HD
HETATM   10  O   UNL     1       6.828  30.475  56.898  1.00  0.00    -0.264 OA
BRANCH   8  11
HETATM   11  N   UNL     1       8.245  28.169  57.512  1.00  0.00    -0.184 NA
HETATM   12  C   UNL     1       7.710  27.010  57.727  1.00  0.00     0.150 C 
BRANCH  12  13
HETATM   13  C   UNL     1       7.937  25.867  56.820  1.00  0.00    -0.017 A 
HETATM   14  C   UNL     1       8.651  24.746  57.244  1.00  0.00     0.016 A 
HETATM   15  C   UNL     1       8.848  23.680  56.364  1.00  0.00     0.037 A 
HETATM   16  C   UNL     1       8.332  23.722  55.065  1.00  0.00     0.068 A 
HETATM   17  C   UNL     1       7.622  24.850  54.646  1.00  0.00     0.037 A 
HETATM   18  C   UNL     1       7.425  25.924  55.521  1.00  0.00     0.016 A 
BRANCH  16  19
HETATM   19  O   UNL     1       8.591  22.610  54.312  1.00  0.00    -0.356 OA
HETATM   20  C   UNL     1       7.903  22.497  53.073  1.00  0.00     0.210 C 
ENDBRANCH  16  19
ENDBRANCH  12  13
ENDBRANCH   8  11
ENDBRANCH   5   7
BRANCH   1  21
HETATM   21  C   UNL     1       6.585  32.854  62.366  1.00  0.00    -0.005 A 
HETATM   22  C   UNL     1       5.410  33.358  62.943  1.00  0.00     0.016 A 
HETATM   23  C   UNL     1       5.386  33.783  64.278  1.00  0.00     0.037 A 
HETATM   24  C   UNL     1       6.540  33.713  65.054  1.00  0.00     0.068 A 
HETATM   25  C   UNL     1       7.720  33.239  64.479  1.00  0.00     0.037 A 
HETATM   26  C   UNL     1       7.746  32.809  63.147  1.00  0.00     0.016 A 
BRANCH  24  27
HETATM   27  O   UNL     1       6.650  34.079  66.367  1.00  0.00    -0.351 OA
BRANCH  27  28
HETATM   28  C   UNL     1       5.432  34.259  67.090  1.00  0.00     0.175 C 
BRANCH  28  29
HETATM   29  C   UNL     1       5.719  35.192  68.263  1.00  0.00     0.022 C 
HETATM   30  C   UNL     1       6.311  34.446  69.446  1.00  0.00     0.007 C 
ENDBRANCH  28  29
ENDBRANCH  27  28
ENDBRANCH  24  27
ENDBRANCH   1  21
TORSDOF 8
ENDMDL
MODEL 5
REMARK VINA RESULT:      -8.1      9.255     13.641
REMARK  8 active torsions:
REMARK  status: ('A' for Active; 'I' for Inactive)
REMARK    1  A    between atoms: C_2  and  C_3 
REMARK    2  A    between atoms: C_3  and  O_4 
REMARK    3  A    between atoms: O_4  and  C_5 
REMARK    4  A    between atoms: C_8  and  C_9 
REMARK    5  A    between atoms: C_13  and  C_14 
REMARK       I    between atoms: C_14  and  N_15 
REMARK    6  A    between atoms: N_15  and  N_16 
REMARK    7  A    between atoms: C_17  and  C_18 
REMARK    8  A    between atoms: C_21  and  O_22 
ROOT
HETATM    1  C   UNL     1       5.728  25.760  52.415  1.00  0.00     0.089 A 
HETATM    2  N   UNL     1       4.793  26.529  52.993  1.00  0.00    -0.174 NA
HETATM    3  N   UNL     1       4.222  27.192  51.977  1.00  0.00    -0.272 N 
HETATM    4  H   UNL     1       3.473  27.850  52.173  1.00  0.00     0.189 HD
HETATM    5  C   UNL     1       4.721  26.871  50.746  1.00  0.00     0.121 A 
HETATM    6  C   UNL     1       5.719  25.952  51.004  1.00  0.00     0.071 A 
ENDROOT
BRANCH   5   7
HETATM    7  C   UNL     1       4.182  27.459  49.545  1.00  0.00     0.289 C 
HETATM    8  N   UNL     1       3.161  26.730  48.954  1.00  0.00    -0.242 N 
HETATM    9  H   UNL     1       2.849  25.861  49.364  1.00  0.00     0.192 HD
HETATM   10  O   UNL     1       4.611  28.527  49.115  1.00  0.00    -0.264 OA
BRANCH   8  11
HETATM   11  N   UNL     1       2.527  27.207  47.843  1.00  0.00    -0.184 NA
HETATM   12  C   UNL     1       1.307  27.601  48.022  1.00  0.00     0.150 C 
BRANCH  12  13
HETATM   13  C   UNL     1       0.498  28.152  46.916  1.00  0.00    -0.017 A 
HETATM   14  C   UNL     1       0.013  27.325  45.902  1.00  0.00     0.016 A 
HETATM   15  C   UNL     1      -0.751  27.875  44.870  1.00  0.00     0.037 A 
HETATM   16  C   UNL     1      -1.040  29.243  44.846  1.00  0.00     0.068 A 
HETATM   17  C   UNL     1      -0.545  30.065  45.861  1.00  0.00     0.037 A 
HETATM   18  C   UNL     1       0.224  29.522  46.896  1.00  0.00     0.016 A 
BRANCH  16  19
HETATM   19  O   UNL     1      -1.801  29.646  43.784  1.00  0.00    -0.356 OA
HETATM   20  C   UNL     1      -1.937  28.732  42.704  1.00  0.00     0.210 C 
ENDBRANCH  16  19
ENDBRANCH  12  13
ENDBRANCH   8  11
ENDBRANCH   5   7
BRANCH   1  21
HETATM   21  C   UNL     1       6.571  24.851  53.196  1.00  0.00    -0.005 A 
HETATM   22  C   UNL     1       7.574  24.099  52.568  1.00  0.00     0.016 A 
HETATM   23  C   UNL     1       8.417  23.260  53.308  1.00  0.00     0.037 A 
HETATM   24  C   UNL     1       8.265  23.159  54.689  1.00  0.00     0.068 A 
HETATM   25  C   UNL     1       7.251  23.883  55.318  1.00  0.00     0.037 A 
HETATM   26  C   UNL     1       6.411  24.726  54.582  1.00  0.00     0.016 A 
BRANCH  24  27
HETATM   27  O   UNL     1       9.026  22.393  55.528  1.00  0.00    -0.351 OA
BRANCH  27  28
HETATM   28  C   UNL     1       8.357  21.794  56.639  1.00  0.00     0.175 C 
BRANCH  28  29
HETATM   29  C   UNL     1       7.989  20.366  56.247  1.00  0.00     0.022 C 
HETATM   30  C   UNL     1       8.762  19.898  55.026  1.00  0.00     0.007 C 
ENDBRANCH  28  29
ENDBRANCH  27  28
ENDBRANCH  24  27
ENDBRANCH   1  21
TORSDOF 8
ENDMDL
MODEL 6
REMARK VINA RESULT:      -8.0      2.161     11.971
REMARK  8 active torsions:
REMARK  status: ('A' for Active; 'I' for Inactive)
REMARK    1  A    between atoms: C_2  and  C_3 
REMARK    2  A    between atoms: C_3  and  O_4 
REMARK    3  A    between atoms: O_4  and  C_5 
REMARK    4  A    between atoms: C_8  and  C_9 
REMARK    5  A    between atoms: C_13  and  C_14 
REMARK       I    between atoms: C_14  and  N_15 
REMARK    6  A    between atoms: N_15  and  N_16 
REMARK    7  A    between atoms: C_17  and  C_18 
REMARK    8  A    between atoms: C_21  and  O_22 
ROOT
HETATM    1  C   UNL     1       7.663  32.158  62.013  1.00  0.00     0.089 A 
HETATM    2  N   UNL     1       8.926  31.710  62.079  1.00  0.00    -0.174 NA
HETATM    3  N   UNL     1       9.126  31.083  60.911  1.00  0.00    -0.272 N 
HETATM    4  H   UNL     1      10.028  30.652  60.728  1.00  0.00     0.189 HD
HETATM    5  C   UNL     1       8.056  31.122  60.061  1.00  0.00     0.121 A 
HETATM    6  C   UNL     1       7.079  31.802  60.763  1.00  0.00     0.071 A 
ENDROOT
BRANCH   5   7
HETATM    7  C   UNL     1       8.125  30.537  58.745  1.00  0.00     0.289 C 
HETATM    8  N   UNL     1       6.958  29.915  58.329  1.00  0.00    -0.242 N 
HETATM    9  H   UNL     1       6.145  29.895  58.929  1.00  0.00     0.192 HD
HETATM   10  O   UNL     1       9.150  30.612  58.073  1.00  0.00    -0.264 OA
BRANCH   8  11
HETATM   11  N   UNL     1       6.874  29.370  57.080  1.00  0.00    -0.184 NA
HETATM   12  C   UNL     1       6.790  28.079  57.037  1.00  0.00     0.150 C 
BRANCH  12  13
HETATM   13  C   UNL     1       6.681  27.349  55.759  1.00  0.00    -0.017 A 
HETATM   14  C   UNL     1       5.677  26.401  55.558  1.00  0.00     0.016 A 
HETATM   15  C   UNL     1       5.599  25.728  54.337  1.00  0.00     0.037 A 
HETATM   16  C   UNL     1       6.511  25.997  53.312  1.00  0.00     0.068 A 
HETATM   17  C   UNL     1       7.518  26.943  53.523  1.00  0.00     0.037 A 
HETATM   18  C   UNL     1       7.605  27.618  54.746  1.00  0.00     0.016 A 
BRANCH  16  19
HETATM   19  O   UNL     1       6.317  25.273  52.169  1.00  0.00    -0.356 OA
HETATM   20  C   UNL     1       5.070  25.440  51.505  1.00  0.00     0.210 C 
ENDBRANCH  16  19
ENDBRANCH  12  13
ENDBRANCH   8  11
ENDBRANCH   5   7
BRANCH   1  21
HETATM   21  C   UNL     1       7.058  32.928  63.102  1.00  0.00    -0.005 A 
HETATM   22  C   UNL     1       5.771  33.467  62.961  1.00  0.00     0.016 A 
HETATM   23  C   UNL     1       5.163  34.167  64.011  1.00  0.00     0.037 A 
HETATM   24  C   UNL     1       5.837  34.343  65.217  1.00  0.00     0.068 A 
HETATM   25  C   UNL     1       7.129  33.835  65.356  1.00  0.00     0.037 A 
HETATM   26  C   UNL     1       7.737  33.130  64.310  1.00  0.00     0.016 A 
BRANCH  24  27
HETATM   27  O   UNL     1       5.355  34.990  66.321  1.00  0.00    -0.351 OA
BRANCH  27  28
HETATM   28  C   UNL     1       4.537  34.227  67.210  1.00  0.00     0.175 C 
BRANCH  28  29
HETATM   29  C   UNL     1       5.240  34.177  68.563  1.00  0.00     0.022 C 
HETATM   30  C   UNL     1       6.321  35.238  68.679  1.00  0.00     0.007 C 
ENDBRANCH  28  29
ENDBRANCH  27  28
ENDBRANCH  24  27
ENDBRANCH   1  21
TORSDOF 8
ENDMDL
MODEL 7
REMARK VINA RESULT:      -7.7      2.589      2.832
REMARK  8 active torsions:
REMARK  status: ('A' for Active; 'I' for Inactive)
REMARK    1  A    between atoms: C_2  and  C_3 
REMARK    2  A    between atoms: C_3  and  O_4 
REMARK    3  A    between atoms: O_4  and  C_5 
REMARK    4  A    between atoms: C_8  and  C_9 
REMARK    5  A    between atoms: C_13  and  C_14 
REMARK       I    between atoms: C_14  and  N_15 
REMARK    6  A    between atoms: N_15  and  N_16 
REMARK    7  A    between atoms: C_17  and  C_18 
REMARK    8  A    between atoms: C_21  and  O_22 
ROOT
HETATM    1  C   UNL     1       6.239  28.066  56.909  1.00  0.00     0.089 A 
HETATM    2  N   UNL     1       4.996  28.498  57.169  1.00  0.00    -0.174 NA
HETATM    3  N   UNL     1       5.168  29.646  57.840  1.00  0.00    -0.272 N 
HETATM    4  H   UNL     1       4.352  30.165  58.152  1.00  0.00     0.189 HD
HETATM    5  C   UNL     1       6.476  30.007  58.010  1.00  0.00     0.121 A 
HETATM    6  C   UNL     1       7.197  28.983  57.428  1.00  0.00     0.071 A 
ENDROOT
BRANCH   5   7
HETATM    7  C   UNL     1       6.831  31.240  58.668  1.00  0.00     0.289 C 
HETATM    8  N   UNL     1       5.811  31.807  59.418  1.00  0.00    -0.242 N 
HETATM    9  H   UNL     1       4.907  31.361  59.473  1.00  0.00     0.192 HD
HETATM   10  O   UNL     1       7.958  31.714  58.558  1.00  0.00    -0.264 OA
BRANCH   8  11
HETATM   11  N   UNL     1       6.036  32.946  60.136  1.00  0.00    -0.184 NA
HETATM   12  C   UNL     1       5.103  33.273  60.972  1.00  0.00     0.150 C 
BRANCH  12  13
HETATM   13  C   UNL     1       5.209  34.472  61.826  1.00  0.00    -0.017 A 
HETATM   14  C   UNL     1       5.834  34.411  63.073  1.00  0.00     0.016 A 
HETATM   15  C   UNL     1       5.922  35.562  63.858  1.00  0.00     0.037 A 
HETATM   16  C   UNL     1       5.396  36.776  63.407  1.00  0.00     0.068 A 
HETATM   17  C   UNL     1       4.766  36.829  62.161  1.00  0.00     0.037 A 
HETATM   18  C   UNL     1       4.671  35.678  61.370  1.00  0.00     0.016 A 
BRANCH  16  19
HETATM   19  O   UNL     1       5.555  37.824  64.271  1.00  0.00    -0.356 OA
HETATM   20  C   UNL     1       6.211  38.981  63.766  1.00  0.00     0.210 C 
ENDBRANCH  16  19
ENDBRANCH  12  13
ENDBRANCH   8  11
ENDBRANCH   5   7
BRANCH   1  21
HETATM   21  C   UNL     1       6.486  26.832  56.159  1.00  0.00    -0.005 A 
HETATM   22  C   UNL     1       7.546  25.986  56.516  1.00  0.00     0.016 A 
HETATM   23  C   UNL     1       7.768  24.781  55.837  1.00  0.00     0.037 A 
HETATM   24  C   UNL     1       6.933  24.407  54.786  1.00  0.00     0.068 A 
HETATM   25  C   UNL     1       5.894  25.257  54.406  1.00  0.00     0.037 A 
HETATM   26  C   UNL     1       5.667  26.460  55.087  1.00  0.00     0.016 A 
BRANCH  24  27
HETATM   27  O   UNL     1       7.028  23.257  54.052  1.00  0.00    -0.351 OA
BRANCH  27  28
HETATM   28  C   UNL     1       7.809  22.200  54.611  1.00  0.00     0.175 C 
BRANCH  28  29
HETATM   29  C   UNL     1       8.832  21.772  53.562  1.00  0.00     0.022 C 
HETATM   30  C   UNL     1       8.552  20.375  53.036  1.00  0.00     0.007 C 
ENDBRANCH  28  29
ENDBRANCH  27  28
ENDBRANCH  24  27
ENDBRANCH   1  21
TORSDOF 8
ENDMDL
MODEL 8
REMARK VINA RESULT:      -7.7      2.193     11.964
REMARK  8 active torsions:
REMARK  status: ('A' for Active; 'I' for Inactive)
REMARK    1  A    between atoms: C_2  and  C_3 
REMARK    2  A    between atoms: C_3  and  O_4 
REMARK    3  A    between atoms: O_4  and  C_5 
REMARK    4  A    between atoms: C_8  and  C_9 
REMARK    5  A    between atoms: C_13  and  C_14 
REMARK       I    between atoms: C_14  and  N_15 
REMARK    6  A    between atoms: N_15  and  N_16 
REMARK    7  A    between atoms: C_17  and  C_18 
REMARK    8  A    between atoms: C_21  and  O_22 
ROOT
HETATM    1  C   UNL     1       6.412  31.899  59.081  1.00  0.00     0.089 A 
HETATM    2  N   UNL     1       5.806  32.281  57.947  1.00  0.00    -0.174 NA
HETATM    3  N   UNL     1       6.225  31.402  57.025  1.00  0.00    -0.272 N 
HETATM    4  H   UNL     1       5.894  31.492  56.068  1.00  0.00     0.189 HD
HETATM    5  C   UNL     1       7.063  30.436  57.509  1.00  0.00     0.121 A 
HETATM    6  C   UNL     1       7.217  30.748  58.845  1.00  0.00     0.071 A 
ENDROOT
BRANCH   5   7
HETATM    7  C   UNL     1       7.564  29.387  56.656  1.00  0.00     0.289 C 
HETATM    8  N   UNL     1       6.594  28.518  56.181  1.00  0.00    -0.242 N 
HETATM    9  H   UNL     1       5.624  28.644  56.435  1.00  0.00     0.192 HD
HETATM   10  O   UNL     1       8.759  29.308  56.387  1.00  0.00    -0.264 OA
BRANCH   8  11
HETATM   11  N   UNL     1       6.930  27.515  55.318  1.00  0.00    -0.184 NA
HETATM   12  C   UNL     1       6.898  26.318  55.812  1.00  0.00     0.150 C 
BRANCH  12  13
HETATM   13  C   UNL     1       7.224  25.132  54.996  1.00  0.00    -0.017 A 
HETATM   14  C   UNL     1       7.368  25.231  53.612  1.00  0.00     0.016 A 
HETATM   15  C   UNL     1       7.679  24.091  52.868  1.00  0.00     0.037 A 
HETATM   16  C   UNL     1       7.854  22.853  53.495  1.00  0.00     0.068 A 
HETATM   17  C   UNL     1       7.702  22.760  54.880  1.00  0.00     0.037 A 
HETATM   18  C   UNL     1       7.386  23.898  55.632  1.00  0.00     0.016 A 
BRANCH  16  19
HETATM   19  O   UNL     1       8.161  21.823  52.650  1.00  0.00    -0.356 OA
HETATM   20  C   UNL     1       7.867  20.508  53.104  1.00  0.00     0.210 C 
ENDBRANCH  16  19
ENDBRANCH  12  13
ENDBRANCH   8  11
ENDBRANCH   5   7
BRANCH   1  21
HETATM   21  C   UNL     1       6.194  32.602  60.347  1.00  0.00    -0.005 A 
HETATM   22  C   UNL     1       5.055  33.399  60.529  1.00  0.00     0.016 A 
HETATM   23  C   UNL     1       4.810  34.041  61.750  1.00  0.00     0.037 A 
HETATM   24  C   UNL     1       5.705  33.897  62.807  1.00  0.00     0.068 A 
HETATM   25  C   UNL     1       6.855  33.128  62.626  1.00  0.00     0.037 A 
HETATM   26  C   UNL     1       7.100  32.481  61.408  1.00  0.00     0.016 A 
BRANCH  24  27
HETATM   27  O   UNL     1       5.580  34.453  64.050  1.00  0.00    -0.351 OA
BRANCH  27  28
HETATM   28  C   UNL     1       4.876  33.689  65.030  1.00  0.00     0.175 C 
BRANCH  28  29
HETATM   29  C   UNL     1       5.354  34.144  66.406  1.00  0.00     0.022 C 
HETATM   30  C   UNL     1       6.863  34.052  66.540  1.00  0.00     0.007 C 
ENDBRANCH  28  29
ENDBRANCH  27  28
ENDBRANCH  24  27
ENDBRANCH   1  21
TORSDOF 8
ENDMDL
MODEL 9
REMARK VINA RESULT:      -7.7      2.302     12.242
REMARK  8 active torsions:
REMARK  status: ('A' for Active; 'I' for Inactive)
REMARK    1  A    between atoms: C_2  and  C_3 
REMARK    2  A    between atoms: C_3  and  O_4 
REMARK    3  A    between atoms: O_4  and  C_5 
REMARK    4  A    between atoms: C_8  and  C_9 
REMARK    5  A    between atoms: C_13  and  C_14 
REMARK       I    between atoms: C_14  and  N_15 
REMARK    6  A    between atoms: N_15  and  N_16 
REMARK    7  A    between atoms: C_17  and  C_18 
REMARK    8  A    between atoms: C_21  and  O_22 
ROOT
HETATM    1  C   UNL     1       5.823  33.265  62.466  1.00  0.00     0.089 A 
HETATM    2  N   UNL     1       4.903  33.772  61.631  1.00  0.00    -0.174 NA
HETATM    3  N   UNL     1       5.243  33.299  60.423  1.00  0.00    -0.272 N 
HETATM    4  H   UNL     1       4.682  33.555  59.615  1.00  0.00     0.189 HD
HETATM    5  C   UNL     1       6.334  32.476  60.429  1.00  0.00     0.121 A 
HETATM    6  C   UNL     1       6.744  32.451  61.748  1.00  0.00     0.071 A 
ENDROOT
BRANCH   5   7
HETATM    7  C   UNL     1       6.800  31.845  59.219  1.00  0.00     0.289 C 
HETATM    8  N   UNL     1       5.851  31.068  58.572  1.00  0.00    -0.242 N 
HETATM    9  H   UNL     1       4.919  30.976  58.951  1.00  0.00     0.192 HD
HETATM   10  O   UNL     1       7.949  32.015  58.819  1.00  0.00    -0.264 OA
BRANCH   8  11
HETATM   11  N   UNL     1       6.149  30.462  57.385  1.00  0.00    -0.184 NA
HETATM   12  C   UNL     1       6.176  29.168  57.409  1.00  0.00     0.150 C 
BRANCH  12  13
HETATM   13  C   UNL     1       6.471  28.374  56.200  1.00  0.00    -0.017 A 
HETATM   14  C   UNL     1       5.687  27.273  55.856  1.00  0.00     0.016 A 
HETATM   15  C   UNL     1       5.990  26.542  54.705  1.00  0.00     0.037 A 
HETATM   16  C   UNL     1       7.066  26.907  53.890  1.00  0.00     0.068 A 
HETATM   17  C   UNL     1       7.850  28.007  54.244  1.00  0.00     0.037 A 
HETATM   18  C   UNL     1       7.556  28.741  55.398  1.00  0.00     0.016 A 
BRANCH  16  19
HETATM   19  O   UNL     1       7.246  26.111  52.793  1.00  0.00    -0.356 OA
HETATM   20  C   UNL     1       7.929  24.881  52.995  1.00  0.00     0.210 C 
ENDBRANCH  16  19
ENDBRANCH  12  13
ENDBRANCH   8  11
ENDBRANCH   5   7
BRANCH   1  21
HETATM   21  C   UNL     1       5.789  33.533  63.906  1.00  0.00    -0.005 A 
HETATM   22  C   UNL     1       6.981  33.620  64.639  1.00  0.00     0.016 A 
HETATM   23  C   UNL     1       6.967  33.920  66.008  1.00  0.00     0.037 A 
HETATM   24  C   UNL     1       5.757  34.132  66.664  1.00  0.00     0.068 A 
HETATM   25  C   UNL     1       4.564  34.018  65.948  1.00  0.00     0.037 A 
HETATM   26  C   UNL     1       4.576  33.724  64.579  1.00  0.00     0.016 A 
BRANCH  24  27
HETATM   27  O   UNL     1       5.602  34.444  67.986  1.00  0.00    -0.351 OA
BRANCH  27  28
HETATM   28  C   UNL     1       6.731  35.013  68.650  1.00  0.00     0.175 C 
BRANCH  28  29
HETATM   29  C   UNL     1       6.560  34.775  70.148  1.00  0.00     0.022 C 
HETATM   30  C   UNL     1       7.344  33.564  70.622  1.00  0.00     0.007 C 
ENDBRANCH  28  29
ENDBRANCH  27  28
ENDBRANCH  24  27
ENDBRANCH   1  21
TORSDOF 8
ENDMDL
MODEL 10
REMARK VINA RESULT:      -7.7      3.878      4.281
REMARK  8 active torsions:
REMARK  status: ('A' for Active; 'I' for Inactive)
REMARK    1  A    between atoms: C_2  and  C_3 
REMARK    2  A    between atoms: C_3  and  O_4 
REMARK    3  A    between atoms: O_4  and  C_5 
REMARK    4  A    between atoms: C_8  and  C_9 
REMARK    5  A    between atoms: C_13  and  C_14 
REMARK       I    between atoms: C_14  and  N_15 
REMARK    6  A    between atoms: N_15  and  N_16 
REMARK    7  A    between atoms: C_17  and  C_18 
REMARK    8  A    between atoms: C_21  and  O_22 
ROOT
HETATM    1  C   UNL     1       5.118  27.363  55.141  1.00  0.00     0.089 A 
HETATM    2  N   UNL     1       4.533  28.024  54.130  1.00  0.00    -0.174 NA
HETATM    3  N   UNL     1       3.870  29.029  54.719  1.00  0.00    -0.272 N 
HETATM    4  H   UNL     1       3.339  29.677  54.143  1.00  0.00     0.189 HD
HETATM    5  C   UNL     1       4.016  29.079  56.077  1.00  0.00     0.121 A 
HETATM    6  C   UNL     1       4.810  27.991  56.382  1.00  0.00     0.071 A 
ENDROOT
BRANCH   5   7
HETATM    7  C   UNL     1       3.406  30.129  56.856  1.00  0.00     0.289 C 
HETATM    8  N   UNL     1       3.826  30.184  58.176  1.00  0.00    -0.242 N 
HETATM    9  H   UNL     1       4.505  29.524  58.526  1.00  0.00     0.192 HD
HETATM   10  O   UNL     1       2.594  30.899  56.352  1.00  0.00    -0.264 OA
BRANCH   8  11
HETATM   11  N   UNL     1       3.367  31.168  59.004  1.00  0.00    -0.184 NA
HETATM   12  C   UNL     1       4.265  31.986  59.452  1.00  0.00     0.150 C 
BRANCH  12  13
HETATM   13  C   UNL     1       3.918  33.108  60.347  1.00  0.00    -0.017 A 
HETATM   14  C   UNL     1       4.026  34.430  59.915  1.00  0.00     0.016 A 
HETATM   15  C   UNL     1       3.689  35.470  60.784  1.00  0.00     0.037 A 
HETATM   16  C   UNL     1       3.238  35.200  62.080  1.00  0.00     0.068 A 
HETATM   17  C   UNL     1       3.139  33.874  62.508  1.00  0.00     0.037 A 
HETATM   18  C   UNL     1       3.479  32.827  61.644  1.00  0.00     0.016 A 
BRANCH  16  19
HETATM   19  O   UNL     1       2.937  36.308  62.822  1.00  0.00    -0.356 OA
HETATM   20  C   UNL     1       3.715  37.474  62.584  1.00  0.00     0.210 C 
ENDBRANCH  16  19
ENDBRANCH  12  13
ENDBRANCH   8  11
ENDBRANCH   5   7
BRANCH   1  21
HETATM   21  C   UNL     1       5.966  26.192  54.910  1.00  0.00    -0.005 A 
HETATM   22  C   UNL     1       6.551  25.515  55.990  1.00  0.00     0.016 A 
HETATM   23  C   UNL     1       7.328  24.367  55.787  1.00  0.00     0.037 A 
HETATM   24  C   UNL     1       7.536  23.882  54.498  1.00  0.00     0.068 A 
HETATM   25  C   UNL     1       6.981  24.566  53.416  1.00  0.00     0.037 A 
HETATM   26  C   UNL     1       6.200  25.711  53.615  1.00  0.00     0.016 A 
BRANCH  24  27
HETATM   27  O   UNL     1       8.257  22.770  54.163  1.00  0.00    -0.351 OA
BRANCH  27  28
HETATM   28  C   UNL     1       7.907  22.119  52.942  1.00  0.00     0.175 C 
BRANCH  28  29
HETATM   29  C   UNL     1       7.866  20.617  53.210  1.00  0.00     0.022 C 
HETATM   30  C   UNL     1       8.269  20.286  54.635  1.00  0.00     0.007 C 
ENDBRANCH  28  29
ENDBRANCH  27  28
ENDBRANCH  24  27
ENDBRANCH   1  21
TORSDOF 8
ENDMDL
