MODEL 1
REMARK VINA RESULT:      -9.8      0.000      0.000
REMARK  6 active torsions:
REMARK  status: ('A' for Active; 'I' for Inactive)
REMARK    1  A    between atoms: O_2  and  C_3 
REMARK    2  A    between atoms: C_5  and  N_6 
REMARK    3  A    between atoms: C_7  and  O_8 
REMARK    4  A    between atoms: C_7  and  C_9 
REMARK       I    between atoms: C_9  and  N_10 
REMARK    5  A    between atoms: N_10  and  C_11 
REMARK    6  A    between atoms: C_11  and  C_12 
ROOT
HETATM    1  N   UNL     1       5.123  27.509  52.081  1.00  0.00    -0.254 N 
HETATM    2  C   UNL     1       5.206  26.437  53.087  1.00  0.00     0.256 C 
HETATM    3  C   UNL     1       5.338  26.960  54.505  1.00  0.00     0.034 A 
HETATM    4  C   UNL     1       5.904  28.214  54.689  1.00  0.00     0.048 A 
HETATM    5  N   UNL     1       6.218  28.970  53.569  1.00  0.00    -0.308 N 
HETATM    6  C   UNL     1       5.817  28.694  52.293  1.00  0.00     0.330 C 
HETATM    7  O   UNL     1       6.127  29.514  51.430  1.00  0.00    -0.246 OA
HETATM    8  C   UNL     1       5.028  26.190  55.639  1.00  0.00     0.015 A 
HETATM    9  C   UNL     1       5.277  26.684  56.921  1.00  0.00     0.001 A 
HETATM   10  C   UNL     1       5.853  27.942  57.083  1.00  0.00     0.002 A 
HETATM   11  C   UNL     1       6.172  28.711  55.965  1.00  0.00     0.030 A 
HETATM   12  H   UNL     1       6.644  29.882  53.679  1.00  0.00     0.170 HD
ENDROOT
BRANCH   2  13
HETATM   13  O   UNL     1       3.988  25.683  53.076  1.00  0.00    -0.359 OA
HETATM   14  H   UNL     1       4.255  24.769  53.288  1.00  0.00     0.213 HD
ENDBRANCH   2  13
BRANCH   2  15
HETATM   15  C   UNL     1       6.445  25.494  52.791  1.00  0.00     0.279 C 
HETATM   16  N   UNL     1       6.375  24.199  53.253  1.00  0.00    -0.352 N 
HETATM   17  H   UNL     1       5.596  23.918  53.836  1.00  0.00     0.162 HD
HETATM   18  O   UNL     1       7.393  25.905  52.112  1.00  0.00    -0.268 OA
BRANCH  16  19
HETATM   19  C   UNL     1       7.367  23.209  52.912  1.00  0.00     0.163 C 
BRANCH  19  20
HETATM   20  C   UNL     1       7.819  22.456  54.136  1.00  0.00    -0.019 A 
HETATM   21  C   UNL     1       8.249  21.119  54.081  1.00  0.00     0.042 A 
HETATM   22 CL   UNL     1       8.294  20.235  52.597  1.00  0.00    -0.084 Cl
HETATM   23  C   UNL     1       8.649  20.451  55.242  1.00  0.00     0.024 A 
HETATM   24  C   UNL     1       8.622  21.106  56.473  1.00  0.00     0.002 A 
HETATM   25  C   UNL     1       8.191  22.428  56.545  1.00  0.00     0.001 A 
HETATM   26  C   UNL     1       7.790  23.097  55.387  1.00  0.00     0.010 A 
ENDBRANCH  19  20
ENDBRANCH  16  19
ENDBRANCH   2  15
BRANCH   1  27
HETATM   27  C   UNL     1       4.482  27.277  50.804  1.00  0.00     0.045 A 
HETATM   28  C   UNL     1       3.442  28.121  50.374  1.00  0.00     0.066 A 
HETATM   29  C   UNL     1       2.760  27.912  49.167  1.00  0.00     0.070 A 
HETATM   30  C   UNL     1       3.119  26.839  48.358  1.00  0.00     0.037 A 
HETATM   31  C   UNL     1       4.149  25.990  48.759  1.00  0.00     0.005 A 
HETATM   32  C   UNL     1       4.819  26.204  49.968  1.00  0.00     0.030 A 
BRANCH  29  33
HETATM   33  O   UNL     1       1.763  28.814  48.909  1.00  0.00    -0.356 OA
HETATM   34  C   UNL     1       1.408  29.701  49.962  1.00  0.00     0.210 C 
ENDBRANCH  29  33
ENDBRANCH   1  27
TORSDOF 6
ENDMDL
MODEL 2
REMARK VINA RESULT:      -9.7      3.115      6.298
REMARK  6 active torsions:
REMARK  status: ('A' for Active; 'I' for Inactive)
REMARK    1  A    between atoms: O_2  and  C_3 
REMARK    2  A    between atoms: C_5  and  N_6 
REMARK    3  A    between atoms: C_7  and  O_8 
REMARK    4  A    between atoms: C_7  and  C_9 
REMARK       I    between atoms: C_9  and  N_10 
REMARK    5  A    between atoms: N_10  and  C_11 
REMARK    6  A    between atoms: C_11  and  C_12 
ROOT
HETATM    1  N   UNL     1       6.101  28.308  55.877  1.00  0.00    -0.254 N 
HETATM    2  C   UNL     1       7.164  27.508  55.245  1.00  0.00     0.256 C 
HETATM    3  C   UNL     1       6.726  26.858  53.945  1.00  0.00     0.034 A 
HETATM    4  C   UNL     1       5.376  26.592  53.770  1.00  0.00     0.048 A 
HETATM    5  N   UNL     1       4.483  27.031  54.738  1.00  0.00    -0.308 N 
HETATM    6  C   UNL     1       4.779  27.904  55.746  1.00  0.00     0.330 C 
HETATM    7  O   UNL     1       3.845  28.241  56.472  1.00  0.00    -0.246 OA
HETATM    8  C   UNL     1       7.632  26.405  52.971  1.00  0.00     0.015 A 
HETATM    9  C   UNL     1       7.176  25.712  51.848  1.00  0.00     0.001 A 
HETATM   10  C   UNL     1       5.816  25.449  51.695  1.00  0.00     0.002 A 
HETATM   11  C   UNL     1       4.910  25.887  52.661  1.00  0.00     0.030 A 
HETATM   12  H   UNL     1       3.494  26.837  54.637  1.00  0.00     0.170 HD
ENDROOT
BRANCH   2  13
HETATM   13  O   UNL     1       8.253  28.367  54.887  1.00  0.00    -0.359 OA
HETATM   14  H   UNL     1       8.614  27.987  54.064  1.00  0.00     0.213 HD
ENDBRANCH   2  13
BRANCH   2  15
HETATM   15  C   UNL     1       7.658  26.366  56.227  1.00  0.00     0.279 C 
HETATM   16  N   UNL     1       7.176  25.095  56.007  1.00  0.00    -0.352 N 
HETATM   17  H   UNL     1       6.465  24.945  55.302  1.00  0.00     0.162 HD
HETATM   18  O   UNL     1       8.492  26.617  57.103  1.00  0.00    -0.268 OA
BRANCH  16  19
HETATM   19  C   UNL     1       7.671  23.952  56.735  1.00  0.00     0.163 C 
BRANCH  19  20
HETATM   20  C   UNL     1       7.824  22.760  55.825  1.00  0.00    -0.019 A 
HETATM   21  C   UNL     1       8.163  21.485  56.308  1.00  0.00     0.042 A 
HETATM   22 CL   UNL     1       8.429  21.186  57.989  1.00  0.00    -0.084 Cl
HETATM   23  C   UNL     1       8.308  20.406  55.430  1.00  0.00     0.024 A 
HETATM   24  C   UNL     1       8.120  20.587  54.060  1.00  0.00     0.002 A 
HETATM   25  C   UNL     1       7.792  21.846  53.566  1.00  0.00     0.001 A 
HETATM   26  C   UNL     1       7.648  22.926  54.440  1.00  0.00     0.010 A 
ENDBRANCH  19  20
ENDBRANCH  16  19
ENDBRANCH   2  15
BRANCH   1  27
HETATM   27  C   UNL     1       6.429  29.395  56.775  1.00  0.00     0.045 A 
HETATM   28  C   UNL     1       7.361  29.197  57.810  1.00  0.00     0.066 A 
HETATM   29  C   UNL     1       7.679  30.204  58.732  1.00  0.00     0.070 A 
HETATM   30  C   UNL     1       7.061  31.445  58.627  1.00  0.00     0.037 A 
HETATM   31  C   UNL     1       6.136  31.669  57.608  1.00  0.00     0.005 A 
HETATM   32  C   UNL     1       5.822  30.655  56.696  1.00  0.00     0.030 A 
BRANCH  29  33
HETATM   33  O   UNL     1       8.590  29.839  59.686  1.00  0.00    -0.356 OA
HETATM   34  C   UNL     1       8.710  30.685  60.822  1.00  0.00     0.210 C 
ENDBRANCH  29  33
ENDBRANCH   1  27
TORSDOF 6
ENDMDL
MODEL 3
REMARK VINA RESULT:      -9.4      2.089      2.593
REMARK  6 active torsions:
REMARK  status: ('A' for Active; 'I' for Inactive)
REMARK    1  A    between atoms: O_2  and  C_3 
REMARK    2  A    between atoms: C_5  and  N_6 
REMARK    3  A    between atoms: C_7  and  O_8 
REMARK    4  A    between atoms: C_7  and  C_9 
REMARK       I    between atoms: C_9  and  N_10 
REMARK    5  A    between atoms: N_10  and  C_11 
REMARK    6  A    between atoms: C_11  and  C_12 
ROOT
HETATM    1  N   UNL     1       4.340  28.833  51.510  1.00  0.00    -0.254 N 
HETATM    2  C   UNL     1       4.562  28.136  52.788  1.00  0.00     0.256 C 
HETATM    3  C   UNL     1       4.279  29.008  53.998  1.00  0.00     0.034 A 
HETATM    4  C   UNL     1       4.403  30.382  53.856  1.00  0.00     0.048 A 
HETATM    5  N   UNL     1       4.669  30.897  52.596  1.00  0.00    -0.308 N 
HETATM    6  C   UNL     1       4.600  30.195  51.426  1.00  0.00     0.330 C 
HETATM    7  O   UNL     1       4.799  30.830  50.391  1.00  0.00    -0.246 OA
HETATM    8  C   UNL     1       4.019  28.484  55.276  1.00  0.00     0.015 A 
HETATM    9  C   UNL     1       3.879  29.335  56.374  1.00  0.00     0.001 A 
HETATM   10  C   UNL     1       4.015  30.712  56.211  1.00  0.00     0.002 A 
HETATM   11  C   UNL     1       4.282  31.240  54.949  1.00  0.00     0.030 A 
HETATM   12  H   UNL     1       4.777  31.896  52.471  1.00  0.00     0.170 HD
ENDROOT
BRANCH   2  13
HETATM   13  O   UNL     1       3.646  27.039  52.893  1.00  0.00    -0.359 OA
HETATM   14  H   UNL     1       4.017  26.345  52.316  1.00  0.00     0.213 HD
ENDBRANCH   2  13
BRANCH   2  15
HETATM   15  C   UNL     1       6.058  27.622  52.888  1.00  0.00     0.279 C 
HETATM   16  N   UNL     1       6.268  26.267  52.758  1.00  0.00    -0.352 N 
HETATM   17  H   UNL     1       5.473  25.642  52.698  1.00  0.00     0.162 HD
HETATM   18  O   UNL     1       6.986  28.428  53.009  1.00  0.00    -0.268 OA
BRANCH  16  19
HETATM   19  C   UNL     1       7.592  25.702  52.676  1.00  0.00     0.163 C 
BRANCH  19  20
HETATM   20  C   UNL     1       7.673  24.408  53.443  1.00  0.00    -0.019 A 
HETATM   21  C   UNL     1       7.685  24.366  54.847  1.00  0.00     0.042 A 
HETATM   22 CL   UNL     1       7.605  25.802  55.804  1.00  0.00    -0.084 Cl
HETATM   23  C   UNL     1       7.774  23.145  55.523  1.00  0.00     0.024 A 
HETATM   24  C   UNL     1       7.857  21.951  54.806  1.00  0.00     0.002 A 
HETATM   25  C   UNL     1       7.854  21.977  53.415  1.00  0.00     0.001 A 
HETATM   26  C   UNL     1       7.767  23.195  52.737  1.00  0.00     0.010 A 
ENDBRANCH  19  20
ENDBRANCH  16  19
ENDBRANCH   2  15
BRANCH   1  27
HETATM   27  C   UNL     1       4.034  28.090  50.306  1.00  0.00     0.045 A 
HETATM   28  C   UNL     1       2.740  28.142  49.756  1.00  0.00     0.066 A 
HETATM   29  C   UNL     1       2.382  27.407  48.618  1.00  0.00     0.070 A 
HETATM   30  C   UNL     1       3.330  26.598  48.001  1.00  0.00     0.037 A 
HETATM   31  C   UNL     1       4.620  26.531  48.524  1.00  0.00     0.005 A 
HETATM   32  C   UNL     1       4.966  27.264  49.664  1.00  0.00     0.030 A 
BRANCH  29  33
HETATM   33  O   UNL     1       1.078  27.558  48.226  1.00  0.00    -0.356 OA
HETATM   34  C   UNL     1       0.791  27.362  46.848  1.00  0.00     0.210 C 
ENDBRANCH  29  33
ENDBRANCH   1  27
TORSDOF 6
ENDMDL
MODEL 4
REMARK VINA RESULT:      -9.3      3.128      6.240
REMARK  6 active torsions:
REMARK  status: ('A' for Active; 'I' for Inactive)
REMARK    1  A    between atoms: O_2  and  C_3 
REMARK    2  A    between atoms: C_5  and  N_6 
REMARK    3  A    between atoms: C_7  and  O_8 
REMARK    4  A    between atoms: C_7  and  C_9 
REMARK       I    between atoms: C_9  and  N_10 
REMARK    5  A    between atoms: N_10  and  C_11 
REMARK    6  A    between atoms: C_11  and  C_12 
ROOT
HETATM    1  N   UNL     1       6.957  29.090  55.580  1.00  0.00    -0.254 N 
HETATM    2  C   UNL     1       6.879  27.968  54.629  1.00  0.00     0.256 C 
HETATM    3  C   UNL     1       5.811  28.160  53.568  1.00  0.00     0.034 A 
HETATM    4  C   UNL     1       4.725  28.967  53.873  1.00  0.00     0.048 A 
HETATM    5  N   UNL     1       4.722  29.645  55.083  1.00  0.00    -0.308 N 
HETATM    6  C   UNL     1       5.796  29.774  55.918  1.00  0.00     0.330 C 
HETATM    7  O   UNL     1       5.634  30.473  56.918  1.00  0.00    -0.246 OA
HETATM    8  C   UNL     1       5.810  27.465  52.347  1.00  0.00     0.015 A 
HETATM    9  C   UNL     1       4.741  27.597  51.458  1.00  0.00     0.001 A 
HETATM   10  C   UNL     1       3.656  28.407  51.787  1.00  0.00     0.002 A 
HETATM   11  C   UNL     1       3.644  29.093  53.000  1.00  0.00     0.030 A 
HETATM   12  H   UNL     1       3.934  30.230  55.333  1.00  0.00     0.170 HD
ENDROOT
BRANCH   2  13
HETATM   13  O   UNL     1       8.113  27.875  53.907  1.00  0.00    -0.359 OA
HETATM   14  H   UNL     1       8.768  27.576  54.566  1.00  0.00     0.213 HD
ENDBRANCH   2  13
BRANCH   2  15
HETATM   15  C   UNL     1       6.579  26.613  55.394  1.00  0.00     0.279 C 
HETATM   16  N   UNL     1       7.478  25.584  55.227  1.00  0.00    -0.352 N 
HETATM   17  H   UNL     1       8.236  25.685  54.563  1.00  0.00     0.162 HD
HETATM   18  O   UNL     1       5.610  26.530  56.156  1.00  0.00    -0.268 OA
BRANCH  16  19
HETATM   19  C   UNL     1       7.395  24.362  55.990  1.00  0.00     0.163 C 
BRANCH  19  20
HETATM   20  C   UNL     1       7.649  23.163  55.115  1.00  0.00    -0.019 A 
HETATM   21  C   UNL     1       8.032  21.917  55.641  1.00  0.00     0.042 A 
HETATM   22 CL   UNL     1       8.239  21.666  57.338  1.00  0.00    -0.084 Cl
HETATM   23  C   UNL     1       8.272  20.830  54.794  1.00  0.00     0.024 A 
HETATM   24  C   UNL     1       8.136  20.973  53.413  1.00  0.00     0.002 A 
HETATM   25  C   UNL     1       7.765  22.203  52.878  1.00  0.00     0.001 A 
HETATM   26  C   UNL     1       7.527  23.291  53.721  1.00  0.00     0.010 A 
ENDBRANCH  19  20
ENDBRANCH  16  19
ENDBRANCH   2  15
BRANCH   1  27
HETATM   27  C   UNL     1       8.183  29.369  56.296  1.00  0.00     0.045 A 
HETATM   28  C   UNL     1       8.149  29.618  57.680  1.00  0.00     0.066 A 
HETATM   29  C   UNL     1       9.302  29.936  58.411  1.00  0.00     0.070 A 
HETATM   30  C   UNL     1      10.527  30.005  57.756  1.00  0.00     0.037 A 
HETATM   31  C   UNL     1      10.589  29.760  56.386  1.00  0.00     0.005 A 
HETATM   32  C   UNL     1       9.431  29.449  55.664  1.00  0.00     0.030 A 
BRANCH  29  33
HETATM   33  O   UNL     1       9.089  30.167  59.744  1.00  0.00    -0.356 OA
HETATM   34  C   UNL     1       7.939  30.925  60.091  1.00  0.00     0.210 C 
ENDBRANCH  29  33
ENDBRANCH   1  27
TORSDOF 6
ENDMDL
MODEL 5
REMARK VINA RESULT:      -9.2      3.191      7.420
REMARK  6 active torsions:
REMARK  status: ('A' for Active; 'I' for Inactive)
REMARK    1  A    between atoms: O_2  and  C_3 
REMARK    2  A    between atoms: C_5  and  N_6 
REMARK    3  A    between atoms: C_7  and  O_8 
REMARK    4  A    between atoms: C_7  and  C_9 
REMARK       I    between atoms: C_9  and  N_10 
REMARK    5  A    between atoms: N_10  and  C_11 
REMARK    6  A    between atoms: C_11  and  C_12 
ROOT
HETATM    1  N   UNL     1       6.854  25.403  53.664  1.00  0.00    -0.254 N 
HETATM    2  C   UNL     1       6.084  26.510  54.257  1.00  0.00     0.256 C 
HETATM    3  C   UNL     1       5.139  27.173  53.272  1.00  0.00     0.034 A 
HETATM    4  C   UNL     1       5.453  27.111  51.922  1.00  0.00     0.048 A 
HETATM    5  N   UNL     1       6.550  26.356  51.531  1.00  0.00    -0.308 N 
HETATM    6  C   UNL     1       7.227  25.477  52.327  1.00  0.00     0.330 C 
HETATM    7  O   UNL     1       8.133  24.838  51.794  1.00  0.00    -0.246 OA
HETATM    8  C   UNL     1       4.034  27.944  53.670  1.00  0.00     0.015 A 
HETATM    9  C   UNL     1       3.266  28.624  52.722  1.00  0.00     0.001 A 
HETATM   10  C   UNL     1       3.604  28.554  51.372  1.00  0.00     0.002 A 
HETATM   11  C   UNL     1       4.704  27.799  50.968  1.00  0.00     0.030 A 
HETATM   12  H   UNL     1       6.807  26.308  50.553  1.00  0.00     0.170 HD
ENDROOT
BRANCH   2  13
HETATM   13  O   UNL     1       5.243  25.995  55.296  1.00  0.00    -0.359 OA
HETATM   14  H   UNL     1       4.353  26.339  55.094  1.00  0.00     0.213 HD
ENDBRANCH   2  13
BRANCH   2  15
HETATM   15  C   UNL     1       7.059  27.620  54.830  1.00  0.00     0.279 C 
HETATM   16  N   UNL     1       6.946  27.927  56.168  1.00  0.00    -0.352 N 
HETATM   17  H   UNL     1       6.199  27.515  56.714  1.00  0.00     0.162 HD
HETATM   18  O   UNL     1       7.922  28.125  54.104  1.00  0.00    -0.268 OA
BRANCH  16  19
HETATM   19  C   UNL     1       7.878  28.804  56.834  1.00  0.00     0.163 C 
BRANCH  19  20
HETATM   20  C   UNL     1       7.154  29.908  57.559  1.00  0.00    -0.019 A 
HETATM   21  C   UNL     1       7.781  30.706  58.531  1.00  0.00     0.042 A 
HETATM   22 CL   UNL     1       9.438  30.482  58.966  1.00  0.00    -0.084 Cl
HETATM   23  C   UNL     1       7.071  31.713  59.192  1.00  0.00     0.024 A 
HETATM   24  C   UNL     1       5.726  31.934  58.895  1.00  0.00     0.002 A 
HETATM   25  C   UNL     1       5.089  31.146  57.940  1.00  0.00     0.001 A 
HETATM   26  C   UNL     1       5.795  30.138  57.280  1.00  0.00     0.010 A 
ENDBRANCH  19  20
ENDBRANCH  16  19
ENDBRANCH   2  15
BRANCH   1  27
HETATM   27  C   UNL     1       7.377  24.339  54.492  1.00  0.00     0.045 A 
HETATM   28  C   UNL     1       7.298  23.004  54.057  1.00  0.00     0.066 A 
HETATM   29  C   UNL     1       7.750  21.933  54.842  1.00  0.00     0.070 A 
HETATM   30  C   UNL     1       8.301  22.190  56.093  1.00  0.00     0.037 A 
HETATM   31  C   UNL     1       8.395  23.504  56.547  1.00  0.00     0.005 A 
HETATM   32  C   UNL     1       7.935  24.565  55.758  1.00  0.00     0.030 A 
BRANCH  29  33
HETATM   33  O   UNL     1       7.581  20.698  54.277  1.00  0.00    -0.356 OA
HETATM   34  C   UNL     1       8.441  20.359  53.198  1.00  0.00     0.210 C 
ENDBRANCH  29  33
ENDBRANCH   1  27
TORSDOF 6
ENDMDL
MODEL 6
REMARK VINA RESULT:      -9.1      2.057      5.472
REMARK  6 active torsions:
REMARK  status: ('A' for Active; 'I' for Inactive)
REMARK    1  A    between atoms: O_2  and  C_3 
REMARK    2  A    between atoms: C_5  and  N_6 
REMARK    3  A    between atoms: C_7  and  O_8 
REMARK    4  A    between atoms: C_7  and  C_9 
REMARK       I    between atoms: C_9  and  N_10 
REMARK    5  A    between atoms: N_10  and  C_11 
REMARK    6  A    between atoms: C_11  and  C_12 
ROOT
HETATM    1  N   UNL     1       5.594  27.997  54.324  1.00  0.00    -0.254 N 
HETATM    2  C   UNL     1       5.839  27.373  53.013  1.00  0.00     0.256 C 
HETATM    3  C   UNL     1       4.974  27.951  51.908  1.00  0.00     0.034 A 
HETATM    4  C   UNL     1       3.757  28.516  52.259  1.00  0.00     0.048 A 
HETATM    5  N   UNL     1       3.441  28.626  53.605  1.00  0.00    -0.308 N 
HETATM    6  C   UNL     1       4.313  28.434  54.639  1.00  0.00     0.330 C 
HETATM    7  O   UNL     1       3.879  28.644  55.770  1.00  0.00    -0.246 OA
HETATM    8  C   UNL     1       5.291  27.831  50.544  1.00  0.00     0.015 A 
HETATM    9  C   UNL     1       4.400  28.282  49.568  1.00  0.00     0.001 A 
HETATM   10  C   UNL     1       3.180  28.840  49.942  1.00  0.00     0.002 A 
HETATM   11  C   UNL     1       2.852  28.955  51.292  1.00  0.00     0.030 A 
HETATM   12  H   UNL     1       2.552  29.023  53.885  1.00  0.00     0.170 HD
ENDROOT
BRANCH   2  13
HETATM   13  O   UNL     1       7.188  27.635  52.610  1.00  0.00    -0.359 OA
HETATM   14  H   UNL     1       7.317  28.590  52.767  1.00  0.00     0.213 HD
ENDBRANCH   2  13
BRANCH   2  15
HETATM   15  C   UNL     1       5.574  25.812  53.083  1.00  0.00     0.279 C 
HETATM   16  N   UNL     1       6.638  24.980  52.815  1.00  0.00    -0.352 N 
HETATM   17  H   UNL     1       7.514  25.376  52.496  1.00  0.00     0.162 HD
HETATM   18  O   UNL     1       4.469  25.383  53.433  1.00  0.00    -0.268 OA
BRANCH  16  19
HETATM   19  C   UNL     1       6.559  23.552  52.999  1.00  0.00     0.163 C 
BRANCH  19  20
HETATM   20  C   UNL     1       7.281  23.130  54.252  1.00  0.00    -0.019 A 
HETATM   21  C   UNL     1       7.892  21.871  54.380  1.00  0.00     0.042 A 
HETATM   22 CL   UNL     1       7.862  20.707  53.103  1.00  0.00    -0.084 Cl
HETATM   23  C   UNL     1       8.542  21.512  55.565  1.00  0.00     0.024 A 
HETATM   24  C   UNL     1       8.588  22.401  56.638  1.00  0.00     0.002 A 
HETATM   25  C   UNL     1       7.981  23.649  56.529  1.00  0.00     0.001 A 
HETATM   26  C   UNL     1       7.329  24.010  55.348  1.00  0.00     0.010 A 
ENDBRANCH  19  20
ENDBRANCH  16  19
ENDBRANCH   2  15
BRANCH   1  27
HETATM   27  C   UNL     1       6.618  27.996  55.347  1.00  0.00     0.045 A 
HETATM   28  C   UNL     1       7.719  28.864  55.242  1.00  0.00     0.066 A 
HETATM   29  C   UNL     1       8.759  28.869  56.183  1.00  0.00     0.070 A 
HETATM   30  C   UNL     1       8.707  27.994  57.262  1.00  0.00     0.037 A 
HETATM   31  C   UNL     1       7.625  27.125  57.391  1.00  0.00     0.005 A 
HETATM   32  C   UNL     1       6.596  27.123  56.443  1.00  0.00     0.030 A 
BRANCH  29  33
HETATM   33  O   UNL     1       9.762  29.763  55.921  1.00  0.00    -0.356 OA
HETATM   34  C   UNL     1      10.700  30.005  56.962  1.00  0.00     0.210 C 
ENDBRANCH  29  33
ENDBRANCH   1  27
TORSDOF 6
ENDMDL
MODEL 7
REMARK VINA RESULT:      -9.1      4.414      8.136
REMARK  6 active torsions:
REMARK  status: ('A' for Active; 'I' for Inactive)
REMARK    1  A    between atoms: O_2  and  C_3 
REMARK    2  A    between atoms: C_5  and  N_6 
REMARK    3  A    between atoms: C_7  and  O_8 
REMARK    4  A    between atoms: C_7  and  C_9 
REMARK       I    between atoms: C_9  and  N_10 
REMARK    5  A    between atoms: N_10  and  C_11 
REMARK    6  A    between atoms: C_11  and  C_12 
ROOT
HETATM    1  N   UNL     1       6.684  27.333  55.501  1.00  0.00    -0.254 N 
HETATM    2  C   UNL     1       6.108  28.289  56.462  1.00  0.00     0.256 C 
HETATM    3  C   UNL     1       5.022  29.160  55.857  1.00  0.00     0.034 A 
HETATM    4  C   UNL     1       5.057  29.393  54.490  1.00  0.00     0.048 A 
HETATM    5  N   UNL     1       6.012  28.733  53.730  1.00  0.00    -0.308 N 
HETATM    6  C   UNL     1       6.786  27.695  54.163  1.00  0.00     0.330 C 
HETATM    7  O   UNL     1       7.531  27.180  53.331  1.00  0.00    -0.246 OA
HETATM    8  C   UNL     1       4.062  29.835  56.629  1.00  0.00     0.015 A 
HETATM    9  C   UNL     1       3.158  30.713  56.027  1.00  0.00     0.001 A 
HETATM   10  C   UNL     1       3.216  30.938  54.653  1.00  0.00     0.002 A 
HETATM   11  C   UNL     1       4.171  30.280  53.879  1.00  0.00     0.030 A 
HETATM   12  H   UNL     1       6.065  28.897  52.732  1.00  0.00     0.170 HD
ENDROOT
BRANCH   2  13
HETATM   13  O   UNL     1       5.465  27.567  57.519  1.00  0.00    -0.359 OA
HETATM   14  H   UNL     1       4.744  27.074  57.084  1.00  0.00     0.213 HD
ENDBRANCH   2  13
BRANCH   2  15
HETATM   15  C   UNL     1       7.236  29.238  57.044  1.00  0.00     0.279 C 
HETATM   16  N   UNL     1       7.232  29.461  58.403  1.00  0.00    -0.352 N 
HETATM   17  H   UNL     1       6.472  29.098  58.966  1.00  0.00     0.162 HD
HETATM   18  O   UNL     1       8.112  29.693  56.300  1.00  0.00    -0.268 OA
BRANCH  16  19
HETATM   19  C   UNL     1       8.295  30.176  59.065  1.00  0.00     0.163 C 
BRANCH  19  20
HETATM   20  C   UNL     1       7.741  31.149  60.074  1.00  0.00    -0.019 A 
HETATM   21  C   UNL     1       8.240  31.237  61.385  1.00  0.00     0.042 A 
HETATM   22 CL   UNL     1       9.533  30.234  61.940  1.00  0.00    -0.084 Cl
HETATM   23  C   UNL     1       7.690  32.144  62.296  1.00  0.00     0.024 A 
HETATM   24  C   UNL     1       6.635  32.972  61.913  1.00  0.00     0.002 A 
HETATM   25  C   UNL     1       6.126  32.890  60.620  1.00  0.00     0.001 A 
HETATM   26  C   UNL     1       6.671  31.984  59.709  1.00  0.00     0.010 A 
ENDBRANCH  19  20
ENDBRANCH  16  19
ENDBRANCH   2  15
BRANCH   1  27
HETATM   27  C   UNL     1       7.304  26.108  55.958  1.00  0.00     0.045 A 
HETATM   28  C   UNL     1       7.020  24.891  55.312  1.00  0.00     0.066 A 
HETATM   29  C   UNL     1       7.560  23.672  55.744  1.00  0.00     0.070 A 
HETATM   30  C   UNL     1       8.410  23.654  56.845  1.00  0.00     0.037 A 
HETATM   31  C   UNL     1       8.710  24.847  57.501  1.00  0.00     0.005 A 
HETATM   32  C   UNL     1       8.161  26.057  57.065  1.00  0.00     0.030 A 
BRANCH  29  33
HETATM   33  O   UNL     1       7.167  22.582  55.015  1.00  0.00    -0.356 OA
HETATM   34  C   UNL     1       7.644  22.493  53.680  1.00  0.00     0.210 C 
ENDBRANCH  29  33
ENDBRANCH   1  27
TORSDOF 6
ENDMDL
MODEL 8
REMARK VINA RESULT:      -9.0      3.045      4.628
REMARK  6 active torsions:
REMARK  status: ('A' for Active; 'I' for Inactive)
REMARK    1  A    between atoms: O_2  and  C_3 
REMARK    2  A    between atoms: C_5  and  N_6 
REMARK    3  A    between atoms: C_7  and  O_8 
REMARK    4  A    between atoms: C_7  and  C_9 
REMARK       I    between atoms: C_9  and  N_10 
REMARK    5  A    between atoms: N_10  and  C_11 
REMARK    6  A    between atoms: C_11  and  C_12 
ROOT
HETATM    1  N   UNL     1       7.208  28.477  55.457  1.00  0.00    -0.254 N 
HETATM    2  C   UNL     1       7.235  28.385  56.927  1.00  0.00     0.256 C 
HETATM    3  C   UNL     1       8.265  29.301  57.562  1.00  0.00     0.034 A 
HETATM    4  C   UNL     1       9.372  29.662  56.808  1.00  0.00     0.048 A 
HETATM    5  N   UNL     1       9.429  29.261  55.481  1.00  0.00    -0.308 N 
HETATM    6  C   UNL     1       8.389  28.730  54.771  1.00  0.00     0.330 C 
HETATM    7  O   UNL     1       8.598  28.498  53.581  1.00  0.00    -0.246 OA
HETATM    8  C   UNL     1       8.210  29.699  58.908  1.00  0.00     0.015 A 
HETATM    9  C   UNL     1       9.246  30.449  59.468  1.00  0.00     0.001 A 
HETATM   10  C   UNL     1      10.353  30.795  58.694  1.00  0.00     0.002 A 
HETATM   11  C   UNL     1      10.420  30.398  57.360  1.00  0.00     0.030 A 
HETATM   12  H   UNL     1      10.233  29.502  54.915  1.00  0.00     0.170 HD
ENDROOT
BRANCH   2  13
HETATM   13  O   UNL     1       5.974  28.816  57.450  1.00  0.00    -0.359 OA
HETATM   14  H   UNL     1       5.956  29.780  57.301  1.00  0.00     0.213 HD
ENDBRANCH   2  13
BRANCH   2  15
HETATM   15  C   UNL     1       7.547  26.899  57.383  1.00  0.00     0.279 C 
HETATM   16  N   UNL     1       7.857  25.990  56.396  1.00  0.00    -0.352 N 
HETATM   17  H   UNL     1       7.787  26.264  55.424  1.00  0.00     0.162 HD
HETATM   18  O   UNL     1       7.572  26.609  58.584  1.00  0.00    -0.268 OA
BRANCH  16  19
HETATM   19  C   UNL     1       8.309  24.654  56.701  1.00  0.00     0.163 C 
BRANCH  19  20
HETATM   20  C   UNL     1       8.176  23.754  55.499  1.00  0.00    -0.019 A 
HETATM   21  C   UNL     1       8.175  22.353  55.606  1.00  0.00     0.042 A 
HETATM   22 CL   UNL     1       8.324  21.553  57.130  1.00  0.00    -0.084 Cl
HETATM   23  C   UNL     1       8.063  21.553  54.465  1.00  0.00     0.024 A 
HETATM   24  C   UNL     1       7.954  22.138  53.204  1.00  0.00     0.002 A 
HETATM   25  C   UNL     1       7.961  23.525  53.082  1.00  0.00     0.001 A 
HETATM   26  C   UNL     1       8.075  24.327  54.219  1.00  0.00     0.010 A 
ENDBRANCH  19  20
ENDBRANCH  16  19
ENDBRANCH   2  15
BRANCH   1  27
HETATM   27  C   UNL     1       6.014  28.132  54.716  1.00  0.00     0.045 A 
HETATM   28  C   UNL     1       5.807  26.807  54.291  1.00  0.00     0.066 A 
HETATM   29  C   UNL     1       4.689  26.431  53.533  1.00  0.00     0.070 A 
HETATM   30  C   UNL     1       3.744  27.391  53.189  1.00  0.00     0.037 A 
HETATM   31  C   UNL     1       3.923  28.711  53.600  1.00  0.00     0.005 A 
HETATM   32  C   UNL     1       5.045  29.077  54.351  1.00  0.00     0.030 A 
BRANCH  29  33
HETATM   33  O   UNL     1       4.652  25.107  53.187  1.00  0.00    -0.356 OA
HETATM   34  C   UNL     1       4.829  24.794  51.812  1.00  0.00     0.210 C 
ENDBRANCH  29  33
ENDBRANCH   1  27
TORSDOF 6
ENDMDL
MODEL 9
REMARK VINA RESULT:      -8.9      1.558      2.173
REMARK  6 active torsions:
REMARK  status: ('A' for Active; 'I' for Inactive)
REMARK    1  A    between atoms: O_2  and  C_3 
REMARK    2  A    between atoms: C_5  and  N_6 
REMARK    3  A    between atoms: C_7  and  O_8 
REMARK    4  A    between atoms: C_7  and  C_9 
REMARK       I    between atoms: C_9  and  N_10 
REMARK    5  A    between atoms: N_10  and  C_11 
REMARK    6  A    between atoms: C_11  and  C_12 
ROOT
HETATM    1  N   UNL     1       5.105  27.655  52.631  1.00  0.00    -0.254 N 
HETATM    2  C   UNL     1       5.117  26.363  53.338  1.00  0.00     0.256 C 
HETATM    3  C   UNL     1       5.559  26.481  54.786  1.00  0.00     0.034 A 
HETATM    4  C   UNL     1       6.387  27.538  55.132  1.00  0.00     0.048 A 
HETATM    5  N   UNL     1       6.680  28.493  54.169  1.00  0.00    -0.308 N 
HETATM    6  C   UNL     1       6.048  28.619  52.964  1.00  0.00     0.330 C 
HETATM    7  O   UNL     1       6.389  29.570  52.262  1.00  0.00    -0.246 OA
HETATM    8  C   UNL     1       5.269  25.508  55.757  1.00  0.00     0.015 A 
HETATM    9  C   UNL     1       5.799  25.613  57.045  1.00  0.00     0.001 A 
HETATM   10  C   UNL     1       6.635  26.680  57.369  1.00  0.00     0.002 A 
HETATM   11  C   UNL     1       6.935  27.646  56.410  1.00  0.00     0.030 A 
HETATM   12  H   UNL     1       7.293  29.267  54.395  1.00  0.00     0.170 HD
ENDROOT
BRANCH   2  13
HETATM   13  O   UNL     1       3.783  25.843  53.393  1.00  0.00    -0.359 OA
HETATM   14  H   UNL     1       3.893  24.875  53.457  1.00  0.00     0.213 HD
ENDBRANCH   2  13
BRANCH   2  15
HETATM   15  C   UNL     1       6.082  25.339  52.608  1.00  0.00     0.279 C 
HETATM   16  N   UNL     1       7.342  25.174  53.140  1.00  0.00    -0.352 N 
HETATM   17  H   UNL     1       7.643  25.764  53.906  1.00  0.00     0.162 HD
HETATM   18  O   UNL     1       5.676  24.679  51.646  1.00  0.00    -0.268 OA
BRANCH  16  19
HETATM   19  C   UNL     1       8.249  24.161  52.658  1.00  0.00     0.163 C 
BRANCH  19  20
HETATM   20  C   UNL     1       8.150  22.910  53.491  1.00  0.00    -0.019 A 
HETATM   21  C   UNL     1       8.371  22.911  54.878  1.00  0.00     0.042 A 
HETATM   22 CL   UNL     1       8.771  24.355  55.738  1.00  0.00    -0.084 Cl
HETATM   23  C   UNL     1       8.282  21.725  55.615  1.00  0.00     0.024 A 
HETATM   24  C   UNL     1       7.977  20.524  54.976  1.00  0.00     0.002 A 
HETATM   25  C   UNL     1       7.764  20.506  53.600  1.00  0.00     0.001 A 
HETATM   26  C   UNL     1       7.853  21.687  52.862  1.00  0.00     0.010 A 
ENDBRANCH  19  20
ENDBRANCH  16  19
ENDBRANCH   2  15
BRANCH   1  27
HETATM   27  C   UNL     1       4.251  27.861  51.482  1.00  0.00     0.045 A 
HETATM   28  C   UNL     1       4.628  27.358  50.223  1.00  0.00     0.066 A 
HETATM   29  C   UNL     1       3.857  27.569  49.072  1.00  0.00     0.070 A 
HETATM   30  C   UNL     1       2.675  28.295  49.166  1.00  0.00     0.037 A 
HETATM   31  C   UNL     1       2.276  28.802  50.402  1.00  0.00     0.005 A 
HETATM   32  C   UNL     1       3.056  28.591  51.544  1.00  0.00     0.030 A 
BRANCH  29  33
HETATM   33  O   UNL     1       4.378  27.028  47.927  1.00  0.00    -0.356 OA
HETATM   34  C   UNL     1       5.390  27.773  47.263  1.00  0.00     0.210 C 
ENDBRANCH  29  33
ENDBRANCH   1  27
TORSDOF 6
ENDMDL
MODEL 10
REMARK VINA RESULT:      -8.7      3.415      7.023
REMARK  6 active torsions:
REMARK  status: ('A' for Active; 'I' for Inactive)
REMARK    1  A    between atoms: O_2  and  C_3 
REMARK    2  A    between atoms: C_5  and  N_6 
REMARK    3  A    between atoms: C_7  and  O_8 
REMARK    4  A    between atoms: C_7  and  C_9 
REMARK       I    between atoms: C_9  and  N_10 
REMARK    5  A    between atoms: N_10  and  C_11 
REMARK    6  A    between atoms: C_11  and  C_12 
ROOT
HETATM    1  N   UNL     1       6.525  25.862  53.646  1.00  0.00    -0.254 N 
HETATM    2  C   UNL     1       6.232  26.915  54.634  1.00  0.00     0.256 C 
HETATM    3  C   UNL     1       5.194  27.911  54.152  1.00  0.00     0.034 A 
HETATM    4  C   UNL     1       5.054  28.099  52.784  1.00  0.00     0.048 A 
HETATM    5  N   UNL     1       5.787  27.292  51.926  1.00  0.00    -0.308 N 
HETATM    6  C   UNL     1       6.472  26.168  52.292  1.00  0.00     0.330 C 
HETATM    7  O   UNL     1       7.008  25.532  51.386  1.00  0.00    -0.246 OA
HETATM    8  C   UNL     1       4.460  28.734  55.022  1.00  0.00     0.015 A 
HETATM    9  C   UNL     1       3.601  29.712  54.515  1.00  0.00     0.001 A 
HETATM   10  C   UNL     1       3.481  29.889  53.138  1.00  0.00     0.002 A 
HETATM   11  C   UNL     1       4.212  29.083  52.267  1.00  0.00     0.030 A 
HETATM   12  H   UNL     1       5.711  27.419  50.924  1.00  0.00     0.170 HD
ENDROOT
BRANCH   2  13
HETATM   13  O   UNL     1       5.665  26.318  55.806  1.00  0.00    -0.359 OA
HETATM   14  H   UNL     1       5.341  25.446  55.513  1.00  0.00     0.213 HD
ENDBRANCH   2  13
BRANCH   2  15
HETATM   15  C   UNL     1       7.552  27.714  55.000  1.00  0.00     0.279 C 
HETATM   16  N   UNL     1       7.901  27.776  56.330  1.00  0.00    -0.352 N 
HETATM   17  H   UNL     1       7.273  27.400  57.030  1.00  0.00     0.162 HD
HETATM   18  O   UNL     1       8.257  28.193  54.106  1.00  0.00    -0.268 OA
BRANCH  16  19
HETATM   19  C   UNL     1       9.155  28.338  56.767  1.00  0.00     0.163 C 
BRANCH  19  20
HETATM   20  C   UNL     1       8.929  29.544  57.642  1.00  0.00    -0.019 A 
HETATM   21  C   UNL     1       9.966  30.425  57.991  1.00  0.00     0.042 A 
HETATM   22 CL   UNL     1      11.587  30.193  57.437  1.00  0.00    -0.084 Cl
HETATM   23  C   UNL     1       9.718  31.526  58.816  1.00  0.00     0.024 A 
HETATM   24  C   UNL     1       8.434  31.760  59.307  1.00  0.00     0.002 A 
HETATM   25  C   UNL     1       7.398  30.891  58.977  1.00  0.00     0.001 A 
HETATM   26  C   UNL     1       7.643  29.789  58.154  1.00  0.00     0.010 A 
ENDBRANCH  19  20
ENDBRANCH  16  19
ENDBRANCH   2  15
BRANCH   1  27
HETATM   27  C   UNL     1       7.037  24.576  54.067  1.00  0.00     0.045 A 
HETATM   28  C   UNL     1       7.610  24.428  55.343  1.00  0.00     0.066 A 
HETATM   29  C   UNL     1       8.160  23.215  55.780  1.00  0.00     0.070 A 
HETATM   30  C   UNL     1       8.140  22.113  54.933  1.00  0.00     0.037 A 
HETATM   31  C   UNL     1       7.577  22.231  53.664  1.00  0.00     0.005 A 
HETATM   32  C   UNL     1       7.035  23.448  53.235  1.00  0.00     0.030 A 
BRANCH  29  33
HETATM   33  O   UNL     1       8.691  23.250  57.042  1.00  0.00    -0.356 OA
HETATM   34  C   UNL     1       8.772  24.520  57.673  1.00  0.00     0.210 C 
ENDBRANCH  29  33
ENDBRANCH   1  27
TORSDOF 6
ENDMDL
