MODEL 1
REMARK VINA RESULT:     -10.4      0.000      0.000
REMARK  1 active torsions:
REMARK  status: ('A' for Active; 'I' for Inactive)
REMARK    1  A    between atoms: C_8  and  C_9 
ROOT
HETATM    1  C   UNL     1       4.734  25.055  51.756  1.00  0.00     0.073 C 
HETATM    2  C   UNL     1       5.278  26.348  52.255  1.00  0.00     0.062 A 
HETATM    3  N   UNL     1       5.292  27.405  51.441  1.00  0.00    -0.178 NA
HETATM    4  N   UNL     1       5.788  28.384  52.199  1.00  0.00    -0.262 N 
HETATM    5  H   UNL     1       5.873  29.305  51.785  1.00  0.00     0.191 HD
HETATM    6  C   UNL     1       6.159  27.994  53.460  1.00  0.00     0.134 A 
HETATM    7  C   UNL     1       5.816  26.653  53.555  1.00  0.00     0.032 A 
HETATM    8  C   UNL     1       5.839  25.697  54.709  1.00  0.00     0.119 C 
HETATM    9  S   UNL     1       6.191  26.379  56.343  1.00  0.00    -0.141 SA
HETATM   10  C   UNL     1       7.690  27.339  55.978  1.00  0.00     0.136 C 
HETATM   11  C   UNL     1       8.534  27.392  57.252  1.00  0.00     0.031 C 
HETATM   12  C   UNL     1       7.324  28.741  55.509  1.00  0.00     0.236 C 
HETATM   13  O   UNL     1       7.663  29.754  56.129  1.00  0.00    -0.272 OA
HETATM   14  N   UNL     1       6.699  28.932  54.308  1.00  0.00    -0.311 N 
HETATM   15  H   UNL     1       6.651  29.914  54.058  1.00  0.00     0.170 HD
ENDROOT
BRANCH   8  16
HETATM   16  C   UNL     1       6.702  24.494  54.351  1.00  0.00    -0.039 A 
HETATM   17  C   UNL     1       6.830  23.457  55.299  1.00  0.00     0.021 A 
HETATM   18  C   UNL     1       7.566  22.289  55.031  1.00  0.00    -0.025 A 
HETATM   19  C   UNL     1       8.220  22.158  53.789  1.00  0.00    -0.026 A 
HETATM   20  C   UNL     1       7.652  21.246  55.968  1.00  0.00     0.012 A 
HETATM   21  C   UNL     1       8.123  23.197  52.853  1.00  0.00     0.013 A 
HETATM   22  C   UNL     1       8.947  20.987  53.515  1.00  0.00     0.012 A 
HETATM   23  C   UNL     1       7.374  24.345  53.127  1.00  0.00     0.009 A 
HETATM   24  C   UNL     1       9.020  19.958  54.455  1.00  0.00     0.001 A 
HETATM   25  C   UNL     1       8.372  20.086  55.679  1.00  0.00     0.001 A 
ENDBRANCH   8  16
TORSDOF 1
ENDMDL
MODEL 2
REMARK VINA RESULT:      -9.5      3.549      5.535
REMARK  1 active torsions:
REMARK  status: ('A' for Active; 'I' for Inactive)
REMARK    1  A    between atoms: C_8  and  C_9 
ROOT
HETATM    1  C   UNL     1       9.630  28.822  57.125  1.00  0.00     0.073 C 
HETATM    2  C   UNL     1       8.570  29.545  57.880  1.00  0.00     0.062 A 
HETATM    3  N   UNL     1       8.816  29.936  59.132  1.00  0.00    -0.178 NA
HETATM    4  N   UNL     1       7.703  30.577  59.490  1.00  0.00    -0.262 N 
HETATM    5  H   UNL     1       7.670  30.985  60.417  1.00  0.00     0.191 HD
HETATM    6  C   UNL     1       6.711  30.568  58.542  1.00  0.00     0.134 A 
HETATM    7  C   UNL     1       7.249  29.914  57.443  1.00  0.00     0.032 A 
HETATM    8  C   UNL     1       6.725  29.701  56.055  1.00  0.00     0.119 C 
HETATM    9  S   UNL     1       5.210  30.570  55.598  1.00  0.00    -0.141 SA
HETATM   10  C   UNL     1       4.149  30.134  57.007  1.00  0.00     0.136 C 
HETATM   11  C   UNL     1       2.700  30.131  56.519  1.00  0.00     0.031 C 
HETATM   12  C   UNL     1       4.337  31.130  58.144  1.00  0.00     0.236 C 
HETATM   13  O   UNL     1       3.416  31.840  58.559  1.00  0.00    -0.272 OA
HETATM   14  N   UNL     1       5.518  31.188  58.829  1.00  0.00    -0.311 N 
HETATM   15  H   UNL     1       5.453  31.785  59.647  1.00  0.00     0.170 HD
ENDROOT
BRANCH   8  16
HETATM   16  C   UNL     1       6.686  28.207  55.756  1.00  0.00    -0.039 A 
HETATM   17  C   UNL     1       7.188  27.761  54.515  1.00  0.00     0.021 A 
HETATM   18  C   UNL     1       7.236  26.397  54.178  1.00  0.00    -0.025 A 
HETATM   19  C   UNL     1       6.743  25.444  55.093  1.00  0.00    -0.026 A 
HETATM   20  C   UNL     1       7.776  25.963  52.956  1.00  0.00     0.012 A 
HETATM   21  C   UNL     1       6.214  25.881  56.315  1.00  0.00     0.013 A 
HETATM   22  C   UNL     1       6.800  24.080  54.762  1.00  0.00     0.012 A 
HETATM   23  C   UNL     1       6.189  27.240  56.643  1.00  0.00     0.009 A 
HETATM   24  C   UNL     1       7.344  23.663  53.546  1.00  0.00     0.001 A 
HETATM   25  C   UNL     1       7.833  24.603  52.644  1.00  0.00     0.001 A 
ENDBRANCH   8  16
TORSDOF 1
ENDMDL
MODEL 3
REMARK VINA RESULT:      -9.5      2.418      4.216
REMARK  1 active torsions:
REMARK  status: ('A' for Active; 'I' for Inactive)
REMARK    1  A    between atoms: C_8  and  C_9 
ROOT
HETATM    1  C   UNL     1       9.086  28.023  56.986  1.00  0.00     0.073 C 
HETATM    2  C   UNL     1       7.845  28.833  56.839  1.00  0.00     0.062 A 
HETATM    3  N   UNL     1       7.500  29.677  57.813  1.00  0.00    -0.178 NA
HETATM    4  N   UNL     1       6.393  30.261  57.352  1.00  0.00    -0.262 N 
HETATM    5  H   UNL     1       5.956  30.968  57.931  1.00  0.00     0.191 HD
HETATM    6  C   UNL     1       5.964  29.787  56.139  1.00  0.00     0.134 A 
HETATM    7  C   UNL     1       6.911  28.853  55.744  1.00  0.00     0.032 A 
HETATM    8  C   UNL     1       7.085  28.089  54.466  1.00  0.00     0.119 C 
HETATM    9  S   UNL     1       6.022  28.540  53.079  1.00  0.00    -0.141 SA
HETATM   10  C   UNL     1       4.398  28.514  53.893  1.00  0.00     0.136 C 
HETATM   11  C   UNL     1       3.350  28.156  52.839  1.00  0.00     0.031 C 
HETATM   12  C   UNL     1       4.095  29.868  54.522  1.00  0.00     0.236 C 
HETATM   13  O   UNL     1       3.135  30.560  54.169  1.00  0.00    -0.272 OA
HETATM   14  N   UNL     1       4.819  30.316  55.592  1.00  0.00    -0.311 N 
HETATM   15  H   UNL     1       4.416  31.155  55.997  1.00  0.00     0.170 HD
ENDROOT
BRANCH   8  16
HETATM   16  C   UNL     1       7.094  26.596  54.768  1.00  0.00    -0.039 A 
HETATM   17  C   UNL     1       7.582  25.717  53.778  1.00  0.00     0.021 A 
HETATM   18  C   UNL     1       7.672  24.330  53.992  1.00  0.00    -0.025 A 
HETATM   19  C   UNL     1       7.238  23.794  55.222  1.00  0.00    -0.026 A 
HETATM   20  C   UNL     1       8.197  23.470  53.013  1.00  0.00     0.012 A 
HETATM   21  C   UNL     1       6.724  24.657  56.199  1.00  0.00     0.013 A 
HETATM   22  C   UNL     1       7.338  22.410  55.442  1.00  0.00     0.012 A 
HETATM   23  C   UNL     1       6.656  26.036  55.978  1.00  0.00     0.009 A 
HETATM   24  C   UNL     1       7.865  21.568  54.461  1.00  0.00     0.001 A 
HETATM   25  C   UNL     1       8.297  22.098  53.249  1.00  0.00     0.001 A 
ENDBRANCH   8  16
TORSDOF 1
ENDMDL
MODEL 4
REMARK VINA RESULT:      -9.4      2.261      3.481
REMARK  1 active torsions:
REMARK  status: ('A' for Active; 'I' for Inactive)
REMARK    1  A    between atoms: C_8  and  C_9 
ROOT
HETATM    1  C   UNL     1       7.381  25.140  57.409  1.00  0.00     0.073 C 
HETATM    2  C   UNL     1       6.263  25.903  56.790  1.00  0.00     0.062 A 
HETATM    3  N   UNL     1       5.190  26.198  57.526  1.00  0.00    -0.178 NA
HETATM    4  N   UNL     1       4.421  26.908  56.699  1.00  0.00    -0.262 N 
HETATM    5  H   UNL     1       3.543  27.262  57.058  1.00  0.00     0.191 HD
HETATM    6  C   UNL     1       4.921  27.037  55.428  1.00  0.00     0.134 A 
HETATM    7  C   UNL     1       6.157  26.406  55.445  1.00  0.00     0.032 A 
HETATM    8  C   UNL     1       7.245  26.319  54.418  1.00  0.00     0.119 C 
HETATM    9  S   UNL     1       7.071  27.336  52.937  1.00  0.00    -0.141 SA
HETATM   10  C   UNL     1       5.375  26.909  52.447  1.00  0.00     0.136 C 
HETATM   11  C   UNL     1       5.275  27.055  50.928  1.00  0.00     0.031 C 
HETATM   12  C   UNL     1       4.372  27.817  53.147  1.00  0.00     0.236 C 
HETATM   13  O   UNL     1       3.622  28.575  52.526  1.00  0.00    -0.272 OA
HETATM   14  N   UNL     1       4.187  27.736  54.499  1.00  0.00    -0.311 N 
HETATM   15  H   UNL     1       3.392  28.287  54.806  1.00  0.00     0.170 HD
ENDROOT
BRANCH   8  16
HETATM   16  C   UNL     1       7.541  24.854  54.121  1.00  0.00    -0.039 A 
HETATM   17  C   UNL     1       8.066  24.055  55.158  1.00  0.00     0.021 A 
HETATM   18  C   UNL     1       8.321  22.683  54.986  1.00  0.00    -0.025 A 
HETATM   19  C   UNL     1       8.071  22.089  53.731  1.00  0.00    -0.026 A 
HETATM   20  C   UNL     1       8.805  21.889  56.038  1.00  0.00     0.012 A 
HETATM   21  C   UNL     1       7.578  22.883  52.686  1.00  0.00     0.013 A 
HETATM   22  C   UNL     1       8.315  20.716  53.560  1.00  0.00     0.012 A 
HETATM   23  C   UNL     1       7.314  24.242  52.878  1.00  0.00     0.009 A 
HETATM   24  C   UNL     1       8.793  19.940  54.617  1.00  0.00     0.001 A 
HETATM   25  C   UNL     1       9.036  20.525  55.855  1.00  0.00     0.001 A 
ENDBRANCH   8  16
TORSDOF 1
ENDMDL
MODEL 5
REMARK VINA RESULT:      -9.4      2.819      6.044
REMARK  1 active torsions:
REMARK  status: ('A' for Active; 'I' for Inactive)
REMARK    1  A    between atoms: C_8  and  C_9 
ROOT
HETATM    1  C   UNL     1       7.450  24.131  55.649  1.00  0.00     0.073 C 
HETATM    2  C   UNL     1       7.299  24.512  54.217  1.00  0.00     0.062 A 
HETATM    3  N   UNL     1       7.947  23.811  53.286  1.00  0.00    -0.178 NA
HETATM    4  N   UNL     1       7.566  24.375  52.139  1.00  0.00    -0.262 N 
HETATM    5  H   UNL     1       7.927  23.984  51.277  1.00  0.00     0.191 HD
HETATM    6  C   UNL     1       6.739  25.459  52.286  1.00  0.00     0.134 A 
HETATM    7  C   UNL     1       6.512  25.576  53.650  1.00  0.00     0.032 A 
HETATM    8  C   UNL     1       5.597  26.467  54.436  1.00  0.00     0.119 C 
HETATM    9  S   UNL     1       4.419  27.470  53.508  1.00  0.00    -0.141 SA
HETATM   10  C   UNL     1       5.527  28.224  52.283  1.00  0.00     0.136 C 
HETATM   11  C   UNL     1       4.941  29.581  51.893  1.00  0.00     0.031 C 
HETATM   12  C   UNL     1       5.668  27.322  51.063  1.00  0.00     0.236 C 
HETATM   13  O   UNL     1       5.311  27.676  49.936  1.00  0.00    -0.272 OA
HETATM   14  N   UNL     1       6.308  26.118  51.159  1.00  0.00    -0.311 N 
HETATM   15  H   UNL     1       6.457  25.696  50.248  1.00  0.00     0.170 HD
ENDROOT
BRANCH   8  16
HETATM   16  C   UNL     1       6.415  27.263  55.445  1.00  0.00    -0.039 A 
HETATM   17  C   UNL     1       7.634  27.832  55.018  1.00  0.00     0.021 A 
HETATM   18  C   UNL     1       8.426  28.623  55.869  1.00  0.00    -0.025 A 
HETATM   19  C   UNL     1       8.007  28.834  57.199  1.00  0.00    -0.026 A 
HETATM   20  C   UNL     1       9.616  29.217  55.420  1.00  0.00     0.012 A 
HETATM   21  C   UNL     1       6.813  28.247  57.640  1.00  0.00     0.013 A 
HETATM   22  C   UNL     1       8.791  29.633  58.048  1.00  0.00     0.012 A 
HETATM   23  C   UNL     1       6.028  27.477  56.777  1.00  0.00     0.009 A 
HETATM   24  C   UNL     1       9.970  30.220  57.586  1.00  0.00     0.001 A 
HETATM   25  C   UNL     1      10.382  30.014  56.273  1.00  0.00     0.001 A 
ENDBRANCH   8  16
TORSDOF 1
ENDMDL
MODEL 6
REMARK VINA RESULT:      -9.0     10.993     14.614
REMARK  1 active torsions:
REMARK  status: ('A' for Active; 'I' for Inactive)
REMARK    1  A    between atoms: C_8  and  C_9 
ROOT
HETATM    1  C   UNL     1       7.236  33.460  64.929  1.00  0.00     0.073 C 
HETATM    2  C   UNL     1       6.697  32.898  63.660  1.00  0.00     0.062 A 
HETATM    3  N   UNL     1       7.435  32.030  62.968  1.00  0.00    -0.178 NA
HETATM    4  N   UNL     1       6.656  31.700  61.937  1.00  0.00    -0.262 N 
HETATM    5  H   UNL     1       7.013  31.022  61.274  1.00  0.00     0.191 HD
HETATM    6  C   UNL     1       5.458  32.366  61.893  1.00  0.00     0.134 A 
HETATM    7  C   UNL     1       5.427  33.158  63.033  1.00  0.00     0.032 A 
HETATM    8  C   UNL     1       4.346  34.009  63.626  1.00  0.00     0.119 C 
HETATM    9  S   UNL     1       2.704  33.900  62.884  1.00  0.00    -0.141 SA
HETATM   10  C   UNL     1       3.124  34.122  61.131  1.00  0.00     0.136 C 
HETATM   11  C   UNL     1       1.923  34.767  60.439  1.00  0.00     0.031 C 
HETATM   12  C   UNL     1       3.466  32.783  60.490  1.00  0.00     0.236 C 
HETATM   13  O   UNL     1       2.808  32.310  59.558  1.00  0.00    -0.272 OA
HETATM   14  N   UNL     1       4.596  32.106  60.855  1.00  0.00    -0.311 N 
HETATM   15  H   UNL     1       4.774  31.312  60.248  1.00  0.00     0.170 HD
ENDROOT
BRANCH   8  16
HETATM   16  C   UNL     1       4.854  35.438  63.774  1.00  0.00    -0.039 A 
HETATM   17  C   UNL     1       5.495  36.038  62.669  1.00  0.00     0.021 A 
HETATM   18  C   UNL     1       5.949  37.368  62.703  1.00  0.00    -0.025 A 
HETATM   19  C   UNL     1       5.787  38.120  63.884  1.00  0.00    -0.026 A 
HETATM   20  C   UNL     1       6.548  37.966  61.582  1.00  0.00     0.012 A 
HETATM   21  C   UNL     1       5.180  37.522  64.997  1.00  0.00     0.013 A 
HETATM   22  C   UNL     1       6.231  39.453  63.916  1.00  0.00     0.012 A 
HETATM   23  C   UNL     1       4.718  36.204  64.942  1.00  0.00     0.009 A 
HETATM   24  C   UNL     1       6.821  40.035  62.793  1.00  0.00     0.001 A 
HETATM   25  C   UNL     1       6.978  39.294  61.627  1.00  0.00     0.001 A 
ENDBRANCH   8  16
TORSDOF 1
ENDMDL
MODEL 7
REMARK VINA RESULT:      -8.7      2.045      2.876
REMARK  1 active torsions:
REMARK  status: ('A' for Active; 'I' for Inactive)
REMARK    1  A    between atoms: C_8  and  C_9 
ROOT
HETATM    1  C   UNL     1       3.511  27.859  52.860  1.00  0.00     0.073 C 
HETATM    2  C   UNL     1       4.023  29.043  53.604  1.00  0.00     0.062 A 
HETATM    3  N   UNL     1       3.807  30.264  53.112  1.00  0.00    -0.178 NA
HETATM    4  N   UNL     1       4.344  31.075  54.025  1.00  0.00    -0.262 N 
HETATM    5  H   UNL     1       4.279  32.073  53.866  1.00  0.00     0.191 HD
HETATM    6  C   UNL     1       4.959  30.430  55.067  1.00  0.00     0.134 A 
HETATM    7  C   UNL     1       4.751  29.076  54.846  1.00  0.00     0.032 A 
HETATM    8  C   UNL     1       5.053  27.871  55.685  1.00  0.00     0.119 C 
HETATM    9  S   UNL     1       5.625  28.158  57.372  1.00  0.00    -0.141 SA
HETATM   10  C   UNL     1       6.952  29.359  57.065  1.00  0.00     0.136 C 
HETATM   11  C   UNL     1       7.997  29.196  58.170  1.00  0.00     0.031 C 
HETATM   12  C   UNL     1       6.396  30.777  57.049  1.00  0.00     0.236 C 
HETATM   13  O   UNL     1       6.751  31.635  57.863  1.00  0.00    -0.272 OA
HETATM   14  N   UNL     1       5.558  31.184  56.049  1.00  0.00    -0.311 N 
HETATM   15  H   UNL     1       5.386  32.183  56.082  1.00  0.00     0.170 HD
ENDROOT
BRANCH   8  16
HETATM   16  C   UNL     1       5.939  26.916  54.894  1.00  0.00    -0.039 A 
HETATM   17  C   UNL     1       6.078  25.592  55.362  1.00  0.00     0.021 A 
HETATM   18  C   UNL     1       6.835  24.632  54.667  1.00  0.00    -0.025 A 
HETATM   19  C   UNL     1       7.499  25.006  53.480  1.00  0.00    -0.026 A 
HETATM   20  C   UNL     1       6.933  23.306  55.121  1.00  0.00     0.012 A 
HETATM   21  C   UNL     1       7.390  26.328  53.025  1.00  0.00     0.013 A 
HETATM   22  C   UNL     1       8.246  24.046  52.779  1.00  0.00     0.012 A 
HETATM   23  C   UNL     1       6.620  27.267  53.718  1.00  0.00     0.009 A 
HETATM   24  C   UNL     1       8.331  22.731  53.241  1.00  0.00     0.001 A 
HETATM   25  C   UNL     1       7.673  22.361  54.409  1.00  0.00     0.001 A 
ENDBRANCH   8  16
TORSDOF 1
ENDMDL
MODEL 8
REMARK VINA RESULT:      -8.5     11.298     15.255
REMARK  1 active torsions:
REMARK  status: ('A' for Active; 'I' for Inactive)
REMARK    1  A    between atoms: C_8  and  C_9 
ROOT
HETATM    1  C   UNL     1       3.828  35.780  66.273  1.00  0.00     0.073 C 
HETATM    2  C   UNL     1       5.034  34.936  66.053  1.00  0.00     0.062 A 
HETATM    3  N   UNL     1       5.888  34.746  67.060  1.00  0.00    -0.178 NA
HETATM    4  N   UNL     1       6.808  33.927  66.549  1.00  0.00    -0.262 N 
HETATM    5  H   UNL     1       7.561  33.626  67.155  1.00  0.00     0.191 HD
HETATM    6  C   UNL     1       6.624  33.622  65.224  1.00  0.00     0.134 A 
HETATM    7  C   UNL     1       5.442  34.250  64.855  1.00  0.00     0.032 A 
HETATM    8  C   UNL     1       4.636  34.193  63.593  1.00  0.00     0.119 C 
HETATM    9  S   UNL     1       5.124  32.979  62.351  1.00  0.00    -0.141 SA
HETATM   10  C   UNL     1       6.902  33.331  62.233  1.00  0.00     0.136 C 
HETATM   11  C   UNL     1       7.359  32.974  60.818  1.00  0.00     0.031 C 
HETATM   12  C   UNL     1       7.676  32.530  63.272  1.00  0.00     0.236 C 
HETATM   13  O   UNL     1       8.526  31.690  62.960  1.00  0.00    -0.272 OA
HETATM   14  N   UNL     1       7.533  32.798  64.605  1.00  0.00    -0.311 N 
HETATM   15  H   UNL     1       8.212  32.295  65.167  1.00  0.00     0.170 HD
ENDROOT
BRANCH   8  16
HETATM   16  C   UNL     1       4.472  35.603  63.037  1.00  0.00    -0.039 A 
HETATM   17  C   UNL     1       5.634  36.364  62.793  1.00  0.00     0.021 A 
HETATM   18  C   UNL     1       5.576  37.653  62.235  1.00  0.00    -0.025 A 
HETATM   19  C   UNL     1       4.320  38.217  61.933  1.00  0.00    -0.026 A 
HETATM   20  C   UNL     1       6.743  38.385  61.959  1.00  0.00     0.012 A 
HETATM   21  C   UNL     1       3.159  37.479  62.201  1.00  0.00     0.013 A 
HETATM   22  C   UNL     1       4.261  39.501  61.365  1.00  0.00     0.012 A 
HETATM   23  C   UNL     1       3.233  36.191  62.741  1.00  0.00     0.009 A 
HETATM   24  C   UNL     1       5.429  40.214  61.093  1.00  0.00     0.001 A 
HETATM   25  C   UNL     1       6.669  39.657  61.387  1.00  0.00     0.001 A 
ENDBRANCH   8  16
TORSDOF 1
ENDMDL
MODEL 9
REMARK VINA RESULT:      -8.5     10.888     13.265
REMARK  1 active torsions:
REMARK  status: ('A' for Active; 'I' for Inactive)
REMARK    1  A    between atoms: C_8  and  C_9 
ROOT
HETATM    1  C   UNL     1       2.566  33.860  63.288  1.00  0.00     0.073 C 
HETATM    2  C   UNL     1       2.657  34.987  62.318  1.00  0.00     0.062 A 
HETATM    3  N   UNL     1       1.774  35.059  61.321  1.00  0.00    -0.178 NA
HETATM    4  N   UNL     1       2.104  36.184  60.684  1.00  0.00    -0.262 N 
HETATM    5  H   UNL     1       1.543  36.456  59.886  1.00  0.00     0.191 HD
HETATM    6  C   UNL     1       3.210  36.819  61.189  1.00  0.00     0.134 A 
HETATM    7  C   UNL     1       3.599  36.075  62.293  1.00  0.00     0.032 A 
HETATM    8  C   UNL     1       4.643  36.317  63.341  1.00  0.00     0.119 C 
HETATM    9  S   UNL     1       5.461  37.926  63.340  1.00  0.00    -0.141 SA
HETATM   10  C   UNL     1       5.938  38.047  61.591  1.00  0.00     0.136 C 
HETATM   11  C   UNL     1       7.200  38.906  61.507  1.00  0.00     0.031 C 
HETATM   12  C   UNL     1       4.809  38.658  60.771  1.00  0.00     0.236 C 
HETATM   13  O   UNL     1       4.937  39.725  60.163  1.00  0.00    -0.272 OA
HETATM   14  N   UNL     1       3.638  37.978  60.585  1.00  0.00    -0.311 N 
HETATM   15  H   UNL     1       3.040  38.433  59.903  1.00  0.00     0.170 HD
ENDROOT
BRANCH   8  16
HETATM   16  C   UNL     1       5.611  35.141  63.369  1.00  0.00    -0.039 A 
HETATM   17  C   UNL     1       5.982  34.552  62.142  1.00  0.00     0.021 A 
HETATM   18  C   UNL     1       6.908  33.495  62.072  1.00  0.00    -0.025 A 
HETATM   19  C   UNL     1       7.464  32.988  63.265  1.00  0.00    -0.026 A 
HETATM   20  C   UNL     1       7.300  32.944  60.841  1.00  0.00     0.012 A 
HETATM   21  C   UNL     1       7.077  33.548  64.490  1.00  0.00     0.013 A 
HETATM   22  C   UNL     1       8.397  31.940  63.196  1.00  0.00     0.012 A 
HETATM   23  C   UNL     1       6.168  34.609  64.542  1.00  0.00     0.009 A 
HETATM   24  C   UNL     1       8.780  31.405  61.966  1.00  0.00     0.001 A 
HETATM   25  C   UNL     1       8.234  31.908  60.789  1.00  0.00     0.001 A 
ENDBRANCH   8  16
TORSDOF 1
ENDMDL
MODEL 10
REMARK VINA RESULT:      -8.5      3.002      4.486
REMARK  1 active torsions:
REMARK  status: ('A' for Active; 'I' for Inactive)
REMARK    1  A    between atoms: C_8  and  C_9 
ROOT
HETATM    1  C   UNL     1       3.871  28.194  56.231  1.00  0.00     0.073 C 
HETATM    2  C   UNL     1       4.583  29.390  56.758  1.00  0.00     0.062 A 
HETATM    3  N   UNL     1       3.946  30.562  56.797  1.00  0.00    -0.178 NA
HETATM    4  N   UNL     1       4.833  31.389  57.351  1.00  0.00    -0.262 N 
HETATM    5  H   UNL     1       4.553  32.351  57.499  1.00  0.00     0.191 HD
HETATM    6  C   UNL     1       6.051  30.819  57.621  1.00  0.00     0.134 A 
HETATM    7  C   UNL     1       5.927  29.483  57.267  1.00  0.00     0.032 A 
HETATM    8  C   UNL     1       6.850  28.315  57.443  1.00  0.00     0.119 C 
HETATM    9  S   UNL     1       8.329  28.572  58.444  1.00  0.00    -0.141 SA
HETATM   10  C   UNL     1       8.979  30.087  57.681  1.00  0.00     0.136 C 
HETATM   11  C   UNL     1      10.499  30.081  57.848  1.00  0.00     0.031 C 
HETATM   12  C   UNL     1       8.365  31.318  58.334  1.00  0.00     0.236 C 
HETATM   13  O   UNL     1       9.045  32.156  58.934  1.00  0.00    -0.272 OA
HETATM   14  N   UNL     1       7.037  31.600  58.176  1.00  0.00    -0.311 N 
HETATM   15  H   UNL     1       6.799  32.519  58.536  1.00  0.00     0.170 HD
ENDROOT
BRANCH   8  16
HETATM   16  C   UNL     1       7.133  27.687  56.084  1.00  0.00    -0.039 A 
HETATM   17  C   UNL     1       7.158  26.279  55.991  1.00  0.00     0.021 A 
HETATM   18  C   UNL     1       7.362  25.618  54.767  1.00  0.00    -0.025 A 
HETATM   19  C   UNL     1       7.577  26.380  53.600  1.00  0.00    -0.026 A 
HETATM   20  C   UNL     1       7.344  24.216  54.680  1.00  0.00     0.012 A 
HETATM   21  C   UNL     1       7.584  27.779  53.690  1.00  0.00     0.013 A 
HETATM   22  C   UNL     1       7.770  25.720  52.375  1.00  0.00     0.012 A 
HETATM   23  C   UNL     1       7.362  28.423  54.911  1.00  0.00     0.009 A 
HETATM   24  C   UNL     1       7.746  24.327  52.303  1.00  0.00     0.001 A 
HETATM   25  C   UNL     1       7.531  23.575  53.454  1.00  0.00     0.001 A 
ENDBRANCH   8  16
TORSDOF 1
ENDMDL
