MODEL 1
REMARK VINA RESULT:     -10.4      0.000      0.000
REMARK  9 active torsions:
REMARK  status: ('A' for Active; 'I' for Inactive)
REMARK    1  A    between atoms: C_2  and  O_3 
REMARK    2  A    between atoms: O_3  and  C_4 
REMARK    3  A    between atoms: C_7  and  C_8 
REMARK    4  A    between atoms: C_9  and  C_10 
REMARK       I    between atoms: C_10  and  N_11 
REMARK    5  A    between atoms: N_11  and  C_12 
REMARK    6  A    between atoms: C_22  and  S_23 
REMARK    7  A    between atoms: S_23  and  C_24 
REMARK    8  A    between atoms: C_24  and  C_25 
REMARK       I    between atoms: C_25  and  N_26 
REMARK    9  A    between atoms: N_26  and  C_27 
ROOT
HETATM    1  C   UNL     1       5.613  27.211  55.824  1.00  0.00     0.104 C 
HETATM    2  C   UNL     1       6.792  26.343  56.271  1.00  0.00     0.046 C 
HETATM    3  C   UNL     1       7.881  26.913  56.836  1.00  0.00     0.019 C 
HETATM    4  C   UNL     1       9.186  26.213  57.128  1.00  0.00     0.069 C 
HETATM    5  N   UNL     1       7.841  28.253  57.185  1.00  0.00    -0.353 N 
HETATM    6  C   UNL     1       6.700  29.042  57.175  1.00  0.00     0.087 C 
HETATM    7  C   UNL     1       5.620  28.596  56.475  1.00  0.00     0.055 C 
HETATM    8  C   UNL     1       4.378  29.457  56.313  1.00  0.00     0.019 C 
HETATM    9  N   UNL     1       3.346  30.169  56.179  1.00  0.00    -0.096 N 
HETATM   10  H   UNL     1       8.659  28.591  57.693  1.00  0.00     0.166 HD
ENDROOT
BRANCH   1  11
HETATM   11  C   UNL     1       5.513  27.335  54.303  1.00  0.00    -0.044 A 
HETATM   12  C   UNL     1       6.144  28.401  53.643  1.00  0.00     0.011 A 
HETATM   13  C   UNL     1       6.074  28.530  52.251  1.00  0.00     0.037 A 
HETATM   14  C   UNL     1       5.369  27.595  51.495  1.00  0.00     0.068 A 
HETATM   15  C   UNL     1       4.743  26.529  52.141  1.00  0.00     0.037 A 
HETATM   16  C   UNL     1       4.820  26.390  53.529  1.00  0.00     0.011 A 
BRANCH  14  17
HETATM   17  O   UNL     1       5.212  27.612  50.136  1.00  0.00    -0.352 OA
BRANCH  17  18
HETATM   18  C   UNL     1       4.641  26.450  49.537  1.00  0.00     0.171 C 
HETATM   19  C   UNL     1       4.647  26.649  48.033  1.00  0.00     0.034 C 
ENDBRANCH  17  18
ENDBRANCH  14  17
ENDBRANCH   1  11
BRANCH   6  20
HETATM   20  S   UNL     1       6.541  30.551  58.077  1.00  0.00    -0.102 SA
BRANCH  20  21
HETATM   21  C   UNL     1       8.204  31.054  58.547  1.00  0.00     0.184 C 
BRANCH  21  22
HETATM   22  C   UNL     1       8.248  31.939  59.776  1.00  0.00     0.231 C 
HETATM   23  N   UNL     1       7.404  31.561  60.801  1.00  0.00    -0.326 N 
HETATM   24  H   UNL     1       7.072  30.604  60.776  1.00  0.00     0.169 HD
HETATM   25  O   UNL     1       9.038  32.883  59.806  1.00  0.00    -0.272 OA
BRANCH  23  26
HETATM   26  C   UNL     1       7.122  32.314  61.968  1.00  0.00     0.040 A 
HETATM   27  C   UNL     1       6.005  33.175  61.989  1.00  0.00    -0.035 A 
HETATM   28  C   UNL     1       5.036  33.270  60.843  1.00  0.00     0.050 C 
HETATM   29  C   UNL     1       5.771  33.969  63.129  1.00  0.00     0.009 A 
HETATM   30  C   UNL     1       6.621  33.911  64.231  1.00  0.00     0.001 A 
HETATM   31  C   UNL     1       7.716  33.057  64.211  1.00  0.00     0.002 A 
HETATM   32  C   UNL     1       7.963  32.264  63.088  1.00  0.00     0.030 A 
ENDBRANCH  23  26
ENDBRANCH  21  22
ENDBRANCH  20  21
ENDBRANCH   6  20
BRANCH   2  33
HETATM   33  C   UNL     1       6.633  24.866  56.081  1.00  0.00     0.255 C 
HETATM   34  N   UNL     1       7.608  24.324  55.265  1.00  0.00    -0.323 N 
HETATM   35  H   UNL     1       8.309  24.957  54.902  1.00  0.00     0.169 HD
HETATM   36  O   UNL     1       5.761  24.257  56.681  1.00  0.00    -0.268 OA
BRANCH  34  37
HETATM   37  C   UNL     1       7.717  22.991  54.817  1.00  0.00     0.035 A 
HETATM   38  C   UNL     1       7.752  21.881  55.660  1.00  0.00     0.029 A 
HETATM   39  C   UNL     1       7.842  20.591  55.129  1.00  0.00     0.002 A 
HETATM   40  C   UNL     1       7.888  20.399  53.749  1.00  0.00     0.000 A 
HETATM   41  C   UNL     1       7.850  21.500  52.898  1.00  0.00     0.002 A 
HETATM   42  C   UNL     1       7.773  22.789  53.430  1.00  0.00     0.029 A 
ENDBRANCH  34  37
ENDBRANCH   2  33
TORSDOF 9
ENDMDL
MODEL 2
REMARK VINA RESULT:     -10.3      1.866      5.219
REMARK  9 active torsions:
REMARK  status: ('A' for Active; 'I' for Inactive)
REMARK    1  A    between atoms: C_2  and  O_3 
REMARK    2  A    between atoms: O_3  and  C_4 
REMARK    3  A    between atoms: C_7  and  C_8 
REMARK    4  A    between atoms: C_9  and  C_10 
REMARK       I    between atoms: C_10  and  N_11 
REMARK    5  A    between atoms: N_11  and  C_12 
REMARK    6  A    between atoms: C_22  and  S_23 
REMARK    7  A    between atoms: S_23  and  C_24 
REMARK    8  A    between atoms: C_24  and  C_25 
REMARK       I    between atoms: C_25  and  N_26 
REMARK    9  A    between atoms: N_26  and  C_27 
ROOT
HETATM    1  C   UNL     1       7.435  28.528  55.703  1.00  0.00     0.104 C 
HETATM    2  C   UNL     1       5.960  28.922  55.596  1.00  0.00     0.046 C 
HETATM    3  C   UNL     1       5.371  29.631  56.587  1.00  0.00     0.019 C 
HETATM    4  C   UNL     1       3.892  29.905  56.710  1.00  0.00     0.069 C 
HETATM    5  N   UNL     1       6.155  30.164  57.597  1.00  0.00    -0.353 N 
HETATM    6  C   UNL     1       7.541  30.193  57.594  1.00  0.00     0.087 C 
HETATM    7  C   UNL     1       8.197  29.369  56.731  1.00  0.00     0.055 C 
HETATM    8  C   UNL     1       9.712  29.251  56.752  1.00  0.00     0.019 C 
HETATM    9  N   UNL     1      10.969  29.153  56.769  1.00  0.00    -0.096 N 
HETATM   10  H   UNL     1       5.659  30.767  58.255  1.00  0.00     0.166 HD
ENDROOT
BRANCH   1  11
HETATM   11  C   UNL     1       7.630  27.036  55.981  1.00  0.00    -0.044 A 
HETATM   12  C   UNL     1       7.860  26.592  57.293  1.00  0.00     0.011 A 
HETATM   13  C   UNL     1       8.032  25.231  57.572  1.00  0.00     0.037 A 
HETATM   14  C   UNL     1       7.980  24.292  56.545  1.00  0.00     0.068 A 
HETATM   15  C   UNL     1       7.747  24.724  55.238  1.00  0.00     0.037 A 
HETATM   16  C   UNL     1       7.563  26.080  54.956  1.00  0.00     0.011 A 
BRANCH  14  17
HETATM   17  O   UNL     1       8.145  22.941  56.679  1.00  0.00    -0.352 OA
BRANCH  17  18
HETATM   18  C   UNL     1       7.948  22.146  55.510  1.00  0.00     0.171 C 
HETATM   19  C   UNL     1       7.704  20.715  55.955  1.00  0.00     0.034 C 
ENDBRANCH  17  18
ENDBRANCH  14  17
ENDBRANCH   1  11
BRANCH   6  20
HETATM   20  S   UNL     1       8.503  31.289  58.590  1.00  0.00    -0.102 SA
BRANCH  20  21
HETATM   21  C   UNL     1       8.689  30.502  60.197  1.00  0.00     0.184 C 
BRANCH  21  22
HETATM   22  C   UNL     1       8.623  31.471  61.361  1.00  0.00     0.231 C 
HETATM   23  N   UNL     1       7.358  31.693  61.867  1.00  0.00    -0.326 N 
HETATM   24  H   UNL     1       6.658  30.997  61.639  1.00  0.00     0.169 HD
HETATM   25  O   UNL     1       9.668  31.951  61.800  1.00  0.00    -0.272 OA
BRANCH  23  26
HETATM   26  C   UNL     1       7.004  32.680  62.819  1.00  0.00     0.040 A 
HETATM   27  C   UNL     1       6.068  33.678  62.475  1.00  0.00    -0.035 A 
HETATM   28  C   UNL     1       5.353  33.693  61.151  1.00  0.00     0.050 C 
HETATM   29  C   UNL     1       5.772  34.694  63.404  1.00  0.00     0.009 A 
HETATM   30  C   UNL     1       6.385  34.723  64.655  1.00  0.00     0.001 A 
HETATM   31  C   UNL     1       7.301  33.736  64.995  1.00  0.00     0.002 A 
HETATM   32  C   UNL     1       7.607  32.723  64.084  1.00  0.00     0.030 A 
ENDBRANCH  23  26
ENDBRANCH  21  22
ENDBRANCH  20  21
ENDBRANCH   6  20
BRANCH   2  33
HETATM   33  C   UNL     1       5.258  28.513  54.338  1.00  0.00     0.255 C 
HETATM   34  N   UNL     1       6.002  28.775  53.202  1.00  0.00    -0.323 N 
HETATM   35  H   UNL     1       6.914  29.191  53.335  1.00  0.00     0.169 HD
HETATM   36  O   UNL     1       4.181  27.939  54.389  1.00  0.00    -0.268 OA
BRANCH  34  37
HETATM   37  C   UNL     1       5.619  28.590  51.857  1.00  0.00     0.035 A 
HETATM   38  C   UNL     1       5.438  29.629  50.945  1.00  0.00     0.029 A 
HETATM   39  C   UNL     1       5.075  29.354  49.622  1.00  0.00     0.002 A 
HETATM   40  C   UNL     1       4.902  28.038  49.199  1.00  0.00     0.000 A 
HETATM   41  C   UNL     1       5.084  26.993  50.100  1.00  0.00     0.002 A 
HETATM   42  C   UNL     1       5.434  27.269  51.424  1.00  0.00     0.029 A 
ENDBRANCH  34  37
ENDBRANCH   2  33
TORSDOF 9
ENDMDL
MODEL 3
REMARK VINA RESULT:     -10.3      1.503      2.072
REMARK  9 active torsions:
REMARK  status: ('A' for Active; 'I' for Inactive)
REMARK    1  A    between atoms: C_2  and  O_3 
REMARK    2  A    between atoms: O_3  and  C_4 
REMARK    3  A    between atoms: C_7  and  C_8 
REMARK    4  A    between atoms: C_9  and  C_10 
REMARK       I    between atoms: C_10  and  N_11 
REMARK    5  A    between atoms: N_11  and  C_12 
REMARK    6  A    between atoms: C_22  and  S_23 
REMARK    7  A    between atoms: S_23  and  C_24 
REMARK    8  A    between atoms: C_24  and  C_25 
REMARK       I    between atoms: C_25  and  N_26 
REMARK    9  A    between atoms: N_26  and  C_27 
ROOT
HETATM    1  C   UNL     1       4.883  28.492  55.585  1.00  0.00     0.104 C 
HETATM    2  C   UNL     1       6.121  27.771  56.124  1.00  0.00     0.046 C 
HETATM    3  C   UNL     1       7.138  28.478  56.668  1.00  0.00     0.019 C 
HETATM    4  C   UNL     1       8.491  27.923  57.043  1.00  0.00     0.069 C 
HETATM    5  N   UNL     1       6.969  29.831  56.913  1.00  0.00    -0.353 N 
HETATM    6  C   UNL     1       5.762  30.510  56.817  1.00  0.00     0.087 C 
HETATM    7  C   UNL     1       4.748  29.917  56.128  1.00  0.00     0.055 C 
HETATM    8  C   UNL     1       3.439  30.646  55.872  1.00  0.00     0.019 C 
HETATM    9  N   UNL     1       2.353  31.250  55.660  1.00  0.00    -0.096 N 
HETATM   10  H   UNL     1       7.737  30.279  57.412  1.00  0.00     0.166 HD
ENDROOT
BRANCH   1  11
HETATM   11  C   UNL     1       4.818  28.493  54.057  1.00  0.00    -0.044 A 
HETATM   12  C   UNL     1       3.574  28.421  53.409  1.00  0.00     0.011 A 
HETATM   13  C   UNL     1       3.489  28.429  52.012  1.00  0.00     0.037 A 
HETATM   14  C   UNL     1       4.646  28.506  51.239  1.00  0.00     0.068 A 
HETATM   15  C   UNL     1       5.885  28.584  51.874  1.00  0.00     0.037 A 
HETATM   16  C   UNL     1       5.975  28.587  53.269  1.00  0.00     0.011 A 
BRANCH  14  17
HETATM   17  O   UNL     1       4.703  28.509  49.872  1.00  0.00    -0.352 OA
BRANCH  17  18
HETATM   18  C   UNL     1       3.674  27.802  49.181  1.00  0.00     0.171 C 
HETATM   19  C   UNL     1       4.137  26.368  48.996  1.00  0.00     0.034 C 
ENDBRANCH  17  18
ENDBRANCH  14  17
ENDBRANCH   1  11
BRANCH   6  20
HETATM   20  S   UNL     1       5.443  32.061  57.596  1.00  0.00    -0.102 SA
BRANCH  20  21
HETATM   21  C   UNL     1       4.662  31.698  59.176  1.00  0.00     0.184 C 
BRANCH  21  22
HETATM   22  C   UNL     1       5.144  32.581  60.310  1.00  0.00     0.231 C 
HETATM   23  N   UNL     1       5.769  31.916  61.346  1.00  0.00    -0.326 N 
HETATM   24  H   UNL     1       6.113  30.987  61.137  1.00  0.00     0.169 HD
HETATM   25  O   UNL     1       4.997  33.801  60.223  1.00  0.00    -0.272 OA
BRANCH  23  26
HETATM   26  C   UNL     1       6.141  32.479  62.592  1.00  0.00     0.040 A 
HETATM   27  C   UNL     1       7.504  32.560  62.942  1.00  0.00    -0.035 A 
HETATM   28  C   UNL     1       8.605  32.149  62.004  1.00  0.00     0.050 C 
HETATM   29  C   UNL     1       7.860  33.060  64.209  1.00  0.00     0.009 A 
HETATM   30  C   UNL     1       6.888  33.477  65.116  1.00  0.00     0.001 A 
HETATM   31  C   UNL     1       5.546  33.402  64.767  1.00  0.00     0.002 A 
HETATM   32  C   UNL     1       5.176  32.908  63.514  1.00  0.00     0.030 A 
ENDBRANCH  23  26
ENDBRANCH  21  22
ENDBRANCH  20  21
ENDBRANCH   6  20
BRANCH   2  33
HETATM   33  C   UNL     1       6.100  26.275  56.044  1.00  0.00     0.255 C 
HETATM   34  N   UNL     1       7.127  25.766  55.271  1.00  0.00    -0.323 N 
HETATM   35  H   UNL     1       7.769  26.433  54.862  1.00  0.00     0.169 HD
HETATM   36  O   UNL     1       5.283  25.634  56.688  1.00  0.00    -0.268 OA
BRANCH  34  37
HETATM   37  C   UNL     1       7.361  24.420  54.923  1.00  0.00     0.035 A 
HETATM   38  C   UNL     1       7.596  23.402  55.846  1.00  0.00     0.029 A 
HETATM   39  C   UNL     1       7.801  22.088  55.413  1.00  0.00     0.002 A 
HETATM   40  C   UNL     1       7.760  21.779  54.055  1.00  0.00     0.000 A 
HETATM   41  C   UNL     1       7.521  22.787  53.125  1.00  0.00     0.002 A 
HETATM   42  C   UNL     1       7.330  24.102  53.557  1.00  0.00     0.029 A 
ENDBRANCH  34  37
ENDBRANCH   2  33
TORSDOF 9
ENDMDL
MODEL 4
REMARK VINA RESULT:     -10.3      1.952      5.333
REMARK  9 active torsions:
REMARK  status: ('A' for Active; 'I' for Inactive)
REMARK    1  A    between atoms: C_2  and  O_3 
REMARK    2  A    between atoms: O_3  and  C_4 
REMARK    3  A    between atoms: C_7  and  C_8 
REMARK    4  A    between atoms: C_9  and  C_10 
REMARK       I    between atoms: C_10  and  N_11 
REMARK    5  A    between atoms: N_11  and  C_12 
REMARK    6  A    between atoms: C_22  and  S_23 
REMARK    7  A    between atoms: S_23  and  C_24 
REMARK    8  A    between atoms: C_24  and  C_25 
REMARK       I    between atoms: C_25  and  N_26 
REMARK    9  A    between atoms: N_26  and  C_27 
ROOT
HETATM    1  C   UNL     1       6.818  28.156  53.995  1.00  0.00     0.104 C 
HETATM    2  C   UNL     1       5.513  28.666  53.379  1.00  0.00     0.046 C 
HETATM    3  C   UNL     1       4.514  29.114  54.174  1.00  0.00     0.019 C 
HETATM    4  C   UNL     1       3.112  29.445  53.721  1.00  0.00     0.069 C 
HETATM    5  N   UNL     1       4.752  29.292  55.527  1.00  0.00    -0.353 N 
HETATM    6  C   UNL     1       6.000  29.225  56.128  1.00  0.00     0.087 C 
HETATM    7  C   UNL     1       7.011  28.626  55.439  1.00  0.00     0.055 C 
HETATM    8  C   UNL     1       8.373  28.402  56.076  1.00  0.00     0.019 C 
HETATM    9  N   UNL     1       9.503  28.217  56.603  1.00  0.00    -0.096 N 
HETATM   10  H   UNL     1       3.987  29.723  56.047  1.00  0.00     0.166 HD
ENDROOT
BRANCH   1  11
HETATM   11  C   UNL     1       6.961  26.636  53.903  1.00  0.00    -0.044 A 
HETATM   12  C   UNL     1       7.757  26.067  52.896  1.00  0.00     0.011 A 
HETATM   13  C   UNL     1       7.910  24.680  52.797  1.00  0.00     0.037 A 
HETATM   14  C   UNL     1       7.269  23.836  53.702  1.00  0.00     0.068 A 
HETATM   15  C   UNL     1       6.481  24.393  54.710  1.00  0.00     0.037 A 
HETATM   16  C   UNL     1       6.334  25.778  54.820  1.00  0.00     0.011 A 
BRANCH  14  17
HETATM   17  O   UNL     1       7.323  22.470  53.709  1.00  0.00    -0.352 OA
BRANCH  17  18
HETATM   18  C   UNL     1       8.607  21.873  53.533  1.00  0.00     0.171 C 
HETATM   19  C   UNL     1       8.402  20.485  52.956  1.00  0.00     0.034 C 
ENDBRANCH  17  18
ENDBRANCH  14  17
ENDBRANCH   1  11
BRANCH   6  20
HETATM   20  S   UNL     1       6.372  29.934  57.701  1.00  0.00    -0.102 SA
BRANCH  20  21
HETATM   21  C   UNL     1       5.617  31.567  57.728  1.00  0.00     0.184 C 
BRANCH  21  22
HETATM   22  C   UNL     1       5.912  32.353  58.989  1.00  0.00     0.231 C 
HETATM   23  N   UNL     1       6.530  31.638  59.995  1.00  0.00    -0.326 N 
HETATM   24  H   UNL     1       6.990  30.780  59.715  1.00  0.00     0.169 HD
HETATM   25  O   UNL     1       5.636  33.553  59.025  1.00  0.00    -0.272 OA
BRANCH  23  26
HETATM   26  C   UNL     1       6.744  32.083  61.323  1.00  0.00     0.040 A 
HETATM   27  C   UNL     1       8.061  32.235  61.805  1.00  0.00    -0.035 A 
HETATM   28  C   UNL     1       9.269  32.024  60.934  1.00  0.00     0.050 C 
HETATM   29  C   UNL     1       8.263  32.614  63.145  1.00  0.00     0.009 A 
HETATM   30  C   UNL     1       7.185  32.845  63.997  1.00  0.00     0.001 A 
HETATM   31  C   UNL     1       5.889  32.702  63.519  1.00  0.00     0.002 A 
HETATM   32  C   UNL     1       5.671  32.325  62.192  1.00  0.00     0.030 A 
ENDBRANCH  23  26
ENDBRANCH  21  22
ENDBRANCH  20  21
ENDBRANCH   6  20
BRANCH   2  33
HETATM   33  C   UNL     1       5.448  28.670  51.883  1.00  0.00     0.255 C 
HETATM   34  N   UNL     1       4.469  27.828  51.388  1.00  0.00    -0.323 N 
HETATM   35  H   UNL     1       3.912  27.322  52.064  1.00  0.00     0.169 HD
HETATM   36  O   UNL     1       6.157  29.424  51.236  1.00  0.00    -0.268 OA
BRANCH  34  37
HETATM   37  C   UNL     1       4.185  27.532  50.038  1.00  0.00     0.035 A 
HETATM   38  C   UNL     1       4.772  26.487  49.326  1.00  0.00     0.029 A 
HETATM   39  C   UNL     1       4.418  26.253  47.993  1.00  0.00     0.002 A 
HETATM   40  C   UNL     1       3.466  27.054  47.366  1.00  0.00     0.000 A 
HETATM   41  C   UNL     1       2.871  28.097  48.069  1.00  0.00     0.002 A 
HETATM   42  C   UNL     1       3.234  28.339  49.396  1.00  0.00     0.029 A 
ENDBRANCH  34  37
ENDBRANCH   2  33
TORSDOF 9
ENDMDL
MODEL 5
REMARK VINA RESULT:     -10.1      2.926      9.328
REMARK  9 active torsions:
REMARK  status: ('A' for Active; 'I' for Inactive)
REMARK    1  A    between atoms: C_2  and  O_3 
REMARK    2  A    between atoms: O_3  and  C_4 
REMARK    3  A    between atoms: C_7  and  C_8 
REMARK    4  A    between atoms: C_9  and  C_10 
REMARK       I    between atoms: C_10  and  N_11 
REMARK    5  A    between atoms: N_11  and  C_12 
REMARK    6  A    between atoms: C_22  and  S_23 
REMARK    7  A    between atoms: S_23  and  C_24 
REMARK    8  A    between atoms: C_24  and  C_25 
REMARK       I    between atoms: C_25  and  N_26 
REMARK    9  A    between atoms: N_26  and  C_27 
ROOT
HETATM    1  C   UNL     1       6.499  28.839  55.468  1.00  0.00     0.104 C 
HETATM    2  C   UNL     1       7.200  28.024  56.557  1.00  0.00     0.046 C 
HETATM    3  C   UNL     1       6.860  26.731  56.766  1.00  0.00     0.019 C 
HETATM    4  C   UNL     1       7.314  25.881  57.928  1.00  0.00     0.069 C 
HETATM    5  N   UNL     1       6.020  26.097  55.865  1.00  0.00    -0.353 N 
HETATM    6  C   UNL     1       5.629  26.620  54.641  1.00  0.00     0.087 C 
HETATM    7  C   UNL     1       5.790  27.957  54.436  1.00  0.00     0.055 C 
HETATM    8  C   UNL     1       5.275  28.627  53.173  1.00  0.00     0.019 C 
HETATM    9  N   UNL     1       4.848  29.184  52.126  1.00  0.00    -0.096 N 
HETATM   10  H   UNL     1       5.885  25.099  56.030  1.00  0.00     0.166 HD
ENDROOT
BRANCH   1  11
HETATM   11  C   UNL     1       5.533  29.879  56.037  1.00  0.00    -0.044 A 
HETATM   12  C   UNL     1       5.884  31.238  56.031  1.00  0.00     0.011 A 
HETATM   13  C   UNL     1       5.012  32.209  56.538  1.00  0.00     0.037 A 
HETATM   14  C   UNL     1       3.775  31.837  57.062  1.00  0.00     0.068 A 
HETATM   15  C   UNL     1       3.416  30.489  57.066  1.00  0.00     0.037 A 
HETATM   16  C   UNL     1       4.277  29.518  56.551  1.00  0.00     0.011 A 
BRANCH  14  17
HETATM   17  O   UNL     1       2.842  32.680  57.599  1.00  0.00    -0.352 OA
BRANCH  17  18
HETATM   18  C   UNL     1       2.991  34.071  57.322  1.00  0.00     0.171 C 
HETATM   19  C   UNL     1       3.239  34.785  58.639  1.00  0.00     0.034 C 
ENDBRANCH  17  18
ENDBRANCH  14  17
ENDBRANCH   1  11
BRANCH   6  20
HETATM   20  S   UNL     1       5.005  25.644  53.310  1.00  0.00    -0.102 SA
BRANCH  20  21
HETATM   21  C   UNL     1       6.414  25.207  52.279  1.00  0.00     0.184 C 
BRANCH  21  22
HETATM   22  C   UNL     1       7.406  24.288  52.963  1.00  0.00     0.231 C 
HETATM   23  N   UNL     1       6.846  23.313  53.765  1.00  0.00    -0.326 N 
HETATM   24  H   UNL     1       5.869  23.105  53.597  1.00  0.00     0.169 HD
HETATM   25  O   UNL     1       8.608  24.430  52.735  1.00  0.00    -0.272 OA
BRANCH  23  26
HETATM   26  C   UNL     1       7.549  22.457  54.647  1.00  0.00     0.040 A 
HETATM   27  C   UNL     1       7.966  21.185  54.202  1.00  0.00    -0.035 A 
HETATM   28  C   UNL     1       7.770  20.721  52.785  1.00  0.00     0.050 C 
HETATM   29  C   UNL     1       8.605  20.315  55.106  1.00  0.00     0.009 A 
HETATM   30  C   UNL     1       8.834  20.694  56.427  1.00  0.00     0.001 A 
HETATM   31  C   UNL     1       8.429  21.949  56.863  1.00  0.00     0.002 A 
HETATM   32  C   UNL     1       7.792  22.824  55.978  1.00  0.00     0.030 A 
ENDBRANCH  23  26
ENDBRANCH  21  22
ENDBRANCH  20  21
ENDBRANCH   6  20
BRANCH   2  33
HETATM   33  C   UNL     1       8.281  28.731  57.316  1.00  0.00     0.255 C 
HETATM   34  N   UNL     1       7.788  29.515  58.342  1.00  0.00    -0.323 N 
HETATM   35  H   UNL     1       6.785  29.523  58.475  1.00  0.00     0.169 HD
HETATM   36  O   UNL     1       9.456  28.523  57.055  1.00  0.00    -0.268 OA
BRANCH  34  37
HETATM   37  C   UNL     1       8.512  30.369  59.201  1.00  0.00     0.035 A 
HETATM   38  C   UNL     1       9.263  31.462  58.768  1.00  0.00     0.029 A 
HETATM   39  C   UNL     1       9.935  32.268  59.691  1.00  0.00     0.002 A 
HETATM   40  C   UNL     1       9.853  31.996  61.056  1.00  0.00     0.000 A 
HETATM   41  C   UNL     1       9.103  30.911  61.499  1.00  0.00     0.002 A 
HETATM   42  C   UNL     1       8.442  30.097  60.575  1.00  0.00     0.029 A 
ENDBRANCH  34  37
ENDBRANCH   2  33
TORSDOF 9
ENDMDL
MODEL 6
REMARK VINA RESULT:      -9.6      1.878      2.365
REMARK  9 active torsions:
REMARK  status: ('A' for Active; 'I' for Inactive)
REMARK    1  A    between atoms: C_2  and  O_3 
REMARK    2  A    between atoms: O_3  and  C_4 
REMARK    3  A    between atoms: C_7  and  C_8 
REMARK    4  A    between atoms: C_9  and  C_10 
REMARK       I    between atoms: C_10  and  N_11 
REMARK    5  A    between atoms: N_11  and  C_12 
REMARK    6  A    between atoms: C_22  and  S_23 
REMARK    7  A    between atoms: S_23  and  C_24 
REMARK    8  A    between atoms: C_24  and  C_25 
REMARK       I    between atoms: C_25  and  N_26 
REMARK    9  A    between atoms: N_26  and  C_27 
ROOT
HETATM    1  C   UNL     1       5.298  28.464  54.963  1.00  0.00     0.104 C 
HETATM    2  C   UNL     1       6.720  28.014  54.616  1.00  0.00     0.046 C 
HETATM    3  C   UNL     1       7.782  28.759  54.998  1.00  0.00     0.019 C 
HETATM    4  C   UNL     1       9.208  28.550  54.549  1.00  0.00     0.069 C 
HETATM    5  N   UNL     1       7.589  29.819  55.870  1.00  0.00    -0.353 N 
HETATM    6  C   UNL     1       6.407  30.084  56.546  1.00  0.00     0.087 C 
HETATM    7  C   UNL     1       5.266  29.492  56.097  1.00  0.00     0.055 C 
HETATM    8  C   UNL     1       3.914  29.827  56.704  1.00  0.00     0.019 C 
HETATM    9  N   UNL     1       2.792  30.104  57.208  1.00  0.00    -0.096 N 
HETATM   10  H   UNL     1       8.443  30.274  56.191  1.00  0.00     0.166 HD
ENDROOT
BRANCH   1  11
HETATM   11  C   UNL     1       4.528  28.982  53.748  1.00  0.00    -0.044 A 
HETATM   12  C   UNL     1       3.508  28.202  53.180  1.00  0.00     0.011 A 
HETATM   13  C   UNL     1       2.783  28.659  52.073  1.00  0.00     0.037 A 
HETATM   14  C   UNL     1       3.068  29.903  51.513  1.00  0.00     0.068 A 
HETATM   15  C   UNL     1       4.076  30.688  52.074  1.00  0.00     0.037 A 
HETATM   16  C   UNL     1       4.794  30.241  53.186  1.00  0.00     0.011 A 
BRANCH  14  17
HETATM   17  O   UNL     1       2.448  30.459  50.428  1.00  0.00    -0.352 OA
BRANCH  17  18
HETATM   18  C   UNL     1       2.707  29.861  49.159  1.00  0.00     0.171 C 
HETATM   19  C   UNL     1       1.390  29.344  48.609  1.00  0.00     0.034 C 
ENDBRANCH  17  18
ENDBRANCH  14  17
ENDBRANCH   1  11
BRANCH   6  20
HETATM   20  S   UNL     1       6.309  31.085  57.996  1.00  0.00    -0.102 SA
BRANCH  20  21
HETATM   21  C   UNL     1       7.933  31.039  58.771  1.00  0.00     0.184 C 
BRANCH  21  22
HETATM   22  C   UNL     1       8.066  31.967  59.961  1.00  0.00     0.231 C 
HETATM   23  N   UNL     1       7.221  31.691  61.018  1.00  0.00    -0.326 N 
HETATM   24  H   UNL     1       6.823  30.760  61.038  1.00  0.00     0.169 HD
HETATM   25  O   UNL     1       8.921  32.853  59.937  1.00  0.00    -0.272 OA
BRANCH  23  26
HETATM   26  C   UNL     1       7.019  32.507  62.157  1.00  0.00     0.040 A 
HETATM   27  C   UNL     1       6.021  33.504  62.134  1.00  0.00    -0.035 A 
HETATM   28  C   UNL     1       5.091  33.688  60.966  1.00  0.00     0.050 C 
HETATM   29  C   UNL     1       5.872  34.354  63.246  1.00  0.00     0.009 A 
HETATM   30  C   UNL     1       6.690  34.222  64.366  1.00  0.00     0.001 A 
HETATM   31  C   UNL     1       7.667  33.235  64.391  1.00  0.00     0.002 A 
HETATM   32  C   UNL     1       7.829  32.384  63.295  1.00  0.00     0.030 A 
ENDBRANCH  23  26
ENDBRANCH  21  22
ENDBRANCH  20  21
ENDBRANCH   6  20
BRANCH   2  33
HETATM   33  C   UNL     1       6.839  26.712  53.884  1.00  0.00     0.255 C 
HETATM   34  N   UNL     1       7.136  25.653  54.722  1.00  0.00    -0.323 N 
HETATM   35  H   UNL     1       7.229  25.859  55.708  1.00  0.00     0.169 HD
HETATM   36  O   UNL     1       6.602  26.653  52.687  1.00  0.00    -0.268 OA
BRANCH  34  37
HETATM   37  C   UNL     1       7.391  24.313  54.364  1.00  0.00     0.035 A 
HETATM   38  C   UNL     1       7.718  23.896  53.074  1.00  0.00     0.029 A 
HETATM   39  C   UNL     1       7.974  22.547  52.810  1.00  0.00     0.002 A 
HETATM   40  C   UNL     1       7.917  21.606  53.836  1.00  0.00     0.000 A 
HETATM   41  C   UNL     1       7.595  22.012  55.128  1.00  0.00     0.002 A 
HETATM   42  C   UNL     1       7.326  23.358  55.389  1.00  0.00     0.029 A 
ENDBRANCH  34  37
ENDBRANCH   2  33
TORSDOF 9
ENDMDL
MODEL 7
REMARK VINA RESULT:      -9.5      2.793      6.383
REMARK  9 active torsions:
REMARK  status: ('A' for Active; 'I' for Inactive)
REMARK    1  A    between atoms: C_2  and  O_3 
REMARK    2  A    between atoms: O_3  and  C_4 
REMARK    3  A    between atoms: C_7  and  C_8 
REMARK    4  A    between atoms: C_9  and  C_10 
REMARK       I    between atoms: C_10  and  N_11 
REMARK    5  A    between atoms: N_11  and  C_12 
REMARK    6  A    between atoms: C_22  and  S_23 
REMARK    7  A    between atoms: S_23  and  C_24 
REMARK    8  A    between atoms: C_24  and  C_25 
REMARK       I    between atoms: C_25  and  N_26 
REMARK    9  A    between atoms: N_26  and  C_27 
ROOT
HETATM    1  C   UNL     1       7.108  29.720  56.163  1.00  0.00     0.104 C 
HETATM    2  C   UNL     1       5.741  30.314  56.514  1.00  0.00     0.046 C 
HETATM    3  C   UNL     1       5.431  30.595  57.800  1.00  0.00     0.019 C 
HETATM    4  C   UNL     1       4.064  30.982  58.309  1.00  0.00     0.069 C 
HETATM    5  N   UNL     1       6.421  30.527  58.767  1.00  0.00    -0.353 N 
HETATM    6  C   UNL     1       7.775  30.370  58.506  1.00  0.00     0.087 C 
HETATM    7  C   UNL     1       8.141  29.922  57.273  1.00  0.00     0.055 C 
HETATM    8  C   UNL     1       9.593  29.607  56.950  1.00  0.00     0.019 C 
HETATM    9  N   UNL     1      10.796  29.345  56.681  1.00  0.00    -0.096 N 
HETATM   10  H   UNL     1       6.141  30.845  59.695  1.00  0.00     0.166 HD
ENDROOT
BRANCH   1  11
HETATM   11  C   UNL     1       7.028  28.245  55.768  1.00  0.00    -0.044 A 
HETATM   12  C   UNL     1       7.421  27.841  54.482  1.00  0.00     0.011 A 
HETATM   13  C   UNL     1       7.365  26.496  54.101  1.00  0.00     0.037 A 
HETATM   14  C   UNL     1       6.912  25.530  54.998  1.00  0.00     0.068 A 
HETATM   15  C   UNL     1       6.524  25.922  56.280  1.00  0.00     0.037 A 
HETATM   16  C   UNL     1       6.589  27.262  56.669  1.00  0.00     0.011 A 
BRANCH  14  17
HETATM   17  O   UNL     1       6.795  24.191  54.749  1.00  0.00    -0.352 OA
BRANCH  17  18
HETATM   18  C   UNL     1       7.407  23.304  55.684  1.00  0.00     0.171 C 
HETATM   19  C   UNL     1       8.778  22.934  55.148  1.00  0.00     0.034 C 
ENDBRANCH  17  18
ENDBRANCH  14  17
ENDBRANCH   1  11
BRANCH   6  20
HETATM   20  S   UNL     1       9.050  30.786  59.653  1.00  0.00    -0.102 SA
BRANCH  20  21
HETATM   21  C   UNL     1       8.571  32.340  60.424  1.00  0.00     0.184 C 
BRANCH  21  22
HETATM   22  C   UNL     1       7.910  32.170  61.777  1.00  0.00     0.231 C 
HETATM   23  N   UNL     1       7.196  33.265  62.223  1.00  0.00    -0.326 N 
HETATM   24  H   UNL     1       6.927  33.939  61.517  1.00  0.00     0.169 HD
HETATM   25  O   UNL     1       8.006  31.088  62.358  1.00  0.00    -0.272 OA
BRANCH  23  26
HETATM   26  C   UNL     1       6.646  33.429  63.518  1.00  0.00     0.040 A 
HETATM   27  C   UNL     1       5.246  33.450  63.684  1.00  0.00    -0.035 A 
HETATM   28  C   UNL     1       4.293  33.218  62.543  1.00  0.00     0.050 C 
HETATM   29  C   UNL     1       4.709  33.680  64.965  1.00  0.00     0.009 A 
HETATM   30  C   UNL     1       5.539  33.881  66.066  1.00  0.00     0.001 A 
HETATM   31  C   UNL     1       6.918  33.852  65.902  1.00  0.00     0.002 A 
HETATM   32  C   UNL     1       7.466  33.627  64.637  1.00  0.00     0.030 A 
ENDBRANCH  23  26
ENDBRANCH  21  22
ENDBRANCH  20  21
ENDBRANCH   6  20
BRANCH   2  33
HETATM   33  C   UNL     1       4.826  30.590  55.360  1.00  0.00     0.255 C 
HETATM   34  N   UNL     1       4.874  31.907  54.942  1.00  0.00    -0.323 N 
HETATM   35  H   UNL     1       5.506  32.524  55.436  1.00  0.00     0.169 HD
HETATM   36  O   UNL     1       4.198  29.681  54.839  1.00  0.00    -0.268 OA
BRANCH  34  37
HETATM   37  C   UNL     1       4.095  32.525  53.942  1.00  0.00     0.035 A 
HETATM   38  C   UNL     1       2.717  32.356  53.807  1.00  0.00     0.029 A 
HETATM   39  C   UNL     1       2.019  33.023  52.795  1.00  0.00     0.002 A 
HETATM   40  C   UNL     1       2.691  33.873  51.918  1.00  0.00     0.000 A 
HETATM   41  C   UNL     1       4.065  34.051  52.047  1.00  0.00     0.002 A 
HETATM   42  C   UNL     1       4.764  33.374  53.049  1.00  0.00     0.029 A 
ENDBRANCH  34  37
ENDBRANCH   2  33
TORSDOF 9
ENDMDL
MODEL 8
REMARK VINA RESULT:      -9.4      5.177      9.727
REMARK  9 active torsions:
REMARK  status: ('A' for Active; 'I' for Inactive)
REMARK    1  A    between atoms: C_2  and  O_3 
REMARK    2  A    between atoms: O_3  and  C_4 
REMARK    3  A    between atoms: C_7  and  C_8 
REMARK    4  A    between atoms: C_9  and  C_10 
REMARK       I    between atoms: C_10  and  N_11 
REMARK    5  A    between atoms: N_11  and  C_12 
REMARK    6  A    between atoms: C_22  and  S_23 
REMARK    7  A    between atoms: S_23  and  C_24 
REMARK    8  A    between atoms: C_24  and  C_25 
REMARK       I    between atoms: C_25  and  N_26 
REMARK    9  A    between atoms: N_26  and  C_27 
ROOT
HETATM    1  C   UNL     1       4.934  28.719  50.372  1.00  0.00     0.104 C 
HETATM    2  C   UNL     1       4.966  30.236  50.573  1.00  0.00     0.046 C 
HETATM    3  C   UNL     1       4.494  30.781  51.718  1.00  0.00     0.019 C 
HETATM    4  C   UNL     1       4.273  32.254  51.963  1.00  0.00     0.069 C 
HETATM    5  N   UNL     1       4.167  29.952  52.779  1.00  0.00    -0.353 N 
HETATM    6  C   UNL     1       4.455  28.597  52.845  1.00  0.00     0.087 C 
HETATM    7  C   UNL     1       4.771  27.953  51.687  1.00  0.00     0.055 C 
HETATM    8  C   UNL     1       4.978  26.447  51.655  1.00  0.00     0.019 C 
HETATM    9  N   UNL     1       5.150  25.199  51.627  1.00  0.00    -0.096 N 
HETATM   10  H   UNL     1       3.912  30.435  53.641  1.00  0.00     0.166 HD
ENDROOT
BRANCH   1  11
HETATM   11  C   UNL     1       3.874  28.279  49.361  1.00  0.00    -0.044 A 
HETATM   12  C   UNL     1       2.520  28.561  49.598  1.00  0.00     0.011 A 
HETATM   13  C   UNL     1       1.533  28.176  48.682  1.00  0.00     0.037 A 
HETATM   14  C   UNL     1       1.884  27.500  47.515  1.00  0.00     0.068 A 
HETATM   15  C   UNL     1       3.229  27.220  47.269  1.00  0.00     0.037 A 
HETATM   16  C   UNL     1       4.218  27.613  48.174  1.00  0.00     0.011 A 
BRANCH  14  17
HETATM   17  O   UNL     1       1.022  27.058  46.550  1.00  0.00    -0.352 OA
BRANCH  17  18
HETATM   18  C   UNL     1      -0.209  27.765  46.410  1.00  0.00     0.171 C 
HETATM   19  C   UNL     1      -0.657  27.639  44.965  1.00  0.00     0.034 C 
ENDBRANCH  17  18
ENDBRANCH  14  17
ENDBRANCH   1  11
BRANCH   6  20
HETATM   20  S   UNL     1       4.505  27.675  54.349  1.00  0.00    -0.102 SA
BRANCH  20  21
HETATM   21  C   UNL     1       6.213  27.700  54.917  1.00  0.00     0.184 C 
BRANCH  21  22
HETATM   22  C   UNL     1       7.056  26.570  54.361  1.00  0.00     0.231 C 
HETATM   23  N   UNL     1       6.716  25.309  54.809  1.00  0.00    -0.326 N 
HETATM   24  H   UNL     1       5.790  25.212  55.207  1.00  0.00     0.169 HD
HETATM   25  O   UNL     1       7.933  26.829  53.536  1.00  0.00    -0.272 OA
BRANCH  23  26
HETATM   26  C   UNL     1       7.455  24.121  54.588  1.00  0.00     0.040 A 
HETATM   27  C   UNL     1       8.409  23.705  55.540  1.00  0.00    -0.035 A 
HETATM   28  C   UNL     1       8.623  24.432  56.840  1.00  0.00     0.050 C 
HETATM   29  C   UNL     1       9.185  22.559  55.281  1.00  0.00     0.009 A 
HETATM   30  C   UNL     1       9.020  21.831  54.105  1.00  0.00     0.001 A 
HETATM   31  C   UNL     1       8.075  22.237  53.172  1.00  0.00     0.002 A 
HETATM   32  C   UNL     1       7.298  23.373  53.413  1.00  0.00     0.030 A 
ENDBRANCH  23  26
ENDBRANCH  21  22
ENDBRANCH  20  21
ENDBRANCH   6  20
BRANCH   2  33
HETATM   33  C   UNL     1       5.577  31.036  49.463  1.00  0.00     0.255 C 
HETATM   34  N   UNL     1       4.639  31.494  48.556  1.00  0.00    -0.323 N 
HETATM   35  H   UNL     1       3.672  31.258  48.735  1.00  0.00     0.169 HD
HETATM   36  O   UNL     1       6.772  31.288  49.469  1.00  0.00    -0.268 OA
BRANCH  34  37
HETATM   37  C   UNL     1       4.870  32.207  47.361  1.00  0.00     0.035 A 
HETATM   38  C   UNL     1       4.857  31.630  46.091  1.00  0.00     0.029 A 
HETATM   39  C   UNL     1       5.078  32.416  44.955  1.00  0.00     0.002 A 
HETATM   40  C   UNL     1       5.302  33.786  45.079  1.00  0.00     0.000 A 
HETATM   41  C   UNL     1       5.313  34.372  46.342  1.00  0.00     0.002 A 
HETATM   42  C   UNL     1       5.105  33.585  47.477  1.00  0.00     0.029 A 
ENDBRANCH  34  37
ENDBRANCH   2  33
TORSDOF 9
ENDMDL
MODEL 9
REMARK VINA RESULT:      -9.3      5.337      9.883
REMARK  9 active torsions:
REMARK  status: ('A' for Active; 'I' for Inactive)
REMARK    1  A    between atoms: C_2  and  O_3 
REMARK    2  A    between atoms: O_3  and  C_4 
REMARK    3  A    between atoms: C_7  and  C_8 
REMARK    4  A    between atoms: C_9  and  C_10 
REMARK       I    between atoms: C_10  and  N_11 
REMARK    5  A    between atoms: N_11  and  C_12 
REMARK    6  A    between atoms: C_22  and  S_23 
REMARK    7  A    between atoms: S_23  and  C_24 
REMARK    8  A    between atoms: C_24  and  C_25 
REMARK       I    between atoms: C_25  and  N_26 
REMARK    9  A    between atoms: N_26  and  C_27 
ROOT
HETATM    1  C   UNL     1       3.423  30.133  50.394  1.00  0.00     0.104 C 
HETATM    2  C   UNL     1       3.608  28.847  49.585  1.00  0.00     0.046 C 
HETATM    3  C   UNL     1       4.268  27.795  50.120  1.00  0.00     0.019 C 
HETATM    4  C   UNL     1       4.702  26.557  49.371  1.00  0.00     0.069 C 
HETATM    5  N   UNL     1       4.601  27.815  51.465  1.00  0.00    -0.353 N 
HETATM    6  C   UNL     1       4.151  28.757  52.378  1.00  0.00     0.087 C 
HETATM    7  C   UNL     1       3.630  29.919  51.896  1.00  0.00     0.055 C 
HETATM    8  C   UNL     1       3.231  31.050  52.829  1.00  0.00     0.019 C 
HETATM    9  N   UNL     1       2.898  31.989  53.603  1.00  0.00    -0.096 N 
HETATM   10  H   UNL     1       5.009  26.951  51.821  1.00  0.00     0.166 HD
ENDROOT
BRANCH   1  11
HETATM   11  C   UNL     1       4.301  31.280  49.891  1.00  0.00    -0.044 A 
HETATM   12  C   UNL     1       5.679  31.081  49.712  1.00  0.00     0.011 A 
HETATM   13  C   UNL     1       6.501  32.114  49.244  1.00  0.00     0.037 A 
HETATM   14  C   UNL     1       5.959  33.363  48.949  1.00  0.00     0.068 A 
HETATM   15  C   UNL     1       4.589  33.568  49.118  1.00  0.00     0.037 A 
HETATM   16  C   UNL     1       3.763  32.537  49.574  1.00  0.00     0.011 A 
BRANCH  14  17
HETATM   17  O   UNL     1       6.648  34.455  48.500  1.00  0.00    -0.352 OA
BRANCH  17  18
HETATM   18  C   UNL     1       7.878  34.208  47.820  1.00  0.00     0.171 C 
HETATM   19  C   UNL     1       8.797  35.390  48.074  1.00  0.00     0.034 C 
ENDBRANCH  17  18
ENDBRANCH  14  17
ENDBRANCH   1  11
BRANCH   6  20
HETATM   20  S   UNL     1       4.148  28.507  54.125  1.00  0.00    -0.102 SA
BRANCH  20  21
HETATM   21  C   UNL     1       5.743  27.790  54.551  1.00  0.00     0.184 C 
BRANCH  21  22
HETATM   22  C   UNL     1       5.806  26.288  54.356  1.00  0.00     0.231 C 
HETATM   23  N   UNL     1       6.992  25.696  54.743  1.00  0.00    -0.326 N 
HETATM   24  H   UNL     1       7.572  26.233  55.377  1.00  0.00     0.169 HD
HETATM   25  O   UNL     1       4.816  25.699  53.921  1.00  0.00    -0.272 OA
BRANCH  23  26
HETATM   26  C   UNL     1       7.371  24.354  54.497  1.00  0.00     0.040 A 
HETATM   27  C   UNL     1       7.817  23.979  53.213  1.00  0.00    -0.035 A 
HETATM   28  C   UNL     1       7.992  24.972  52.097  1.00  0.00     0.050 C 
HETATM   29  C   UNL     1       8.129  22.629  52.960  1.00  0.00     0.009 A 
HETATM   30  C   UNL     1       8.008  21.665  53.958  1.00  0.00     0.001 A 
HETATM   31  C   UNL     1       7.575  22.037  55.224  1.00  0.00     0.002 A 
HETATM   32  C   UNL     1       7.261  23.372  55.491  1.00  0.00     0.030 A 
ENDBRANCH  23  26
ENDBRANCH  21  22
ENDBRANCH  20  21
ENDBRANCH   6  20
BRANCH   2  33
HETATM   33  C   UNL     1       2.987  28.831  48.222  1.00  0.00     0.255 C 
HETATM   34  N   UNL     1       1.605  28.827  48.264  1.00  0.00    -0.323 N 
HETATM   35  H   UNL     1       1.173  28.844  49.178  1.00  0.00     0.169 HD
HETATM   36  O   UNL     1       3.687  28.902  47.223  1.00  0.00    -0.268 OA
BRANCH  34  37
HETATM   37  C   UNL     1       0.708  28.737  47.179  1.00  0.00     0.035 A 
HETATM   38  C   UNL     1       0.483  27.574  46.443  1.00  0.00     0.029 A 
HETATM   39  C   UNL     1      -0.440  27.569  45.393  1.00  0.00     0.002 A 
HETATM   40  C   UNL     1      -1.155  28.723  45.078  1.00  0.00     0.000 A 
HETATM   41  C   UNL     1      -0.941  29.888  45.809  1.00  0.00     0.002 A 
HETATM   42  C   UNL     1      -0.009  29.897  46.849  1.00  0.00     0.029 A 
ENDBRANCH  34  37
ENDBRANCH   2  33
TORSDOF 9
ENDMDL
MODEL 10
REMARK VINA RESULT:      -9.2      6.068     10.361
REMARK  9 active torsions:
REMARK  status: ('A' for Active; 'I' for Inactive)
REMARK    1  A    between atoms: C_2  and  O_3 
REMARK    2  A    between atoms: O_3  and  C_4 
REMARK    3  A    between atoms: C_7  and  C_8 
REMARK    4  A    between atoms: C_9  and  C_10 
REMARK       I    between atoms: C_10  and  N_11 
REMARK    5  A    between atoms: N_11  and  C_12 
REMARK    6  A    between atoms: C_22  and  S_23 
REMARK    7  A    between atoms: S_23  and  C_24 
REMARK    8  A    between atoms: C_24  and  C_25 
REMARK       I    between atoms: C_25  and  N_26 
REMARK    9  A    between atoms: N_26  and  C_27 
ROOT
HETATM    1  C   UNL     1       3.747  29.289  50.217  1.00  0.00     0.104 C 
HETATM    2  C   UNL     1       3.878  28.515  48.902  1.00  0.00     0.046 C 
HETATM    3  C   UNL     1       4.714  27.455  48.818  1.00  0.00     0.019 C 
HETATM    4  C   UNL     1       5.096  26.737  47.545  1.00  0.00     0.069 C 
HETATM    5  N   UNL     1       5.296  26.956  49.972  1.00  0.00    -0.353 N 
HETATM    6  C   UNL     1       4.954  27.337  51.261  1.00  0.00     0.087 C 
HETATM    7  C   UNL     1       4.255  28.495  51.422  1.00  0.00     0.055 C 
HETATM    8  C   UNL     1       3.951  29.045  52.806  1.00  0.00     0.019 C 
HETATM    9  N   UNL     1       3.697  29.501  53.954  1.00  0.00    -0.096 N 
HETATM   10  H   UNL     1       5.835  26.099  49.847  1.00  0.00     0.166 HD
ENDROOT
BRANCH   1  11
HETATM   11  C   UNL     1       4.413  30.665  50.161  1.00  0.00    -0.044 A 
HETATM   12  C   UNL     1       3.735  31.792  50.654  1.00  0.00     0.011 A 
HETATM   13  C   UNL     1       4.328  33.059  50.623  1.00  0.00     0.037 A 
HETATM   14  C   UNL     1       5.608  33.223  50.095  1.00  0.00     0.068 A 
HETATM   15  C   UNL     1       6.291  32.107  49.608  1.00  0.00     0.037 A 
HETATM   16  C   UNL     1       5.707  30.838  49.648  1.00  0.00     0.011 A 
BRANCH  14  17
HETATM   17  O   UNL     1       6.293  34.402  49.992  1.00  0.00    -0.352 OA
BRANCH  17  18
HETATM   18  C   UNL     1       6.823  34.731  48.709  1.00  0.00     0.171 C 
HETATM   19  C   UNL     1       7.720  35.945  48.873  1.00  0.00     0.034 C 
ENDBRANCH  17  18
ENDBRANCH  14  17
ENDBRANCH   1  11
BRANCH   6  20
HETATM   20  S   UNL     1       5.308  26.374  52.697  1.00  0.00    -0.102 SA
BRANCH  20  21
HETATM   21  C   UNL     1       6.599  25.208  52.235  1.00  0.00     0.184 C 
BRANCH  21  22
HETATM   22  C   UNL     1       7.302  24.577  53.421  1.00  0.00     0.231 C 
HETATM   23  N   UNL     1       7.419  23.202  53.369  1.00  0.00    -0.326 N 
HETATM   24  H   UNL     1       7.311  22.779  52.455  1.00  0.00     0.169 HD
HETATM   25  O   UNL     1       7.751  25.305  54.306  1.00  0.00    -0.272 OA
BRANCH  23  26
HETATM   26  C   UNL     1       7.862  22.364  54.422  1.00  0.00     0.040 A 
HETATM   27  C   UNL     1       8.207  21.024  54.150  1.00  0.00    -0.035 A 
HETATM   28  C   UNL     1       8.208  20.458  52.757  1.00  0.00     0.050 C 
HETATM   29  C   UNL     1       8.583  20.181  55.213  1.00  0.00     0.009 A 
HETATM   30  C   UNL     1       8.622  20.652  56.524  1.00  0.00     0.001 A 
HETATM   31  C   UNL     1       8.289  21.974  56.789  1.00  0.00     0.002 A 
HETATM   32  C   UNL     1       7.912  22.823  55.746  1.00  0.00     0.030 A 
ENDBRANCH  23  26
ENDBRANCH  21  22
ENDBRANCH  20  21
ENDBRANCH   6  20
BRANCH   2  33
HETATM   33  C   UNL     1       3.009  28.980  47.774  1.00  0.00     0.255 C 
HETATM   34  N   UNL     1       1.709  28.522  47.876  1.00  0.00    -0.323 N 
HETATM   35  H   UNL     1       1.485  27.948  48.679  1.00  0.00     0.169 HD
HETATM   36  O   UNL     1       3.449  29.749  46.933  1.00  0.00    -0.268 OA
BRANCH  34  37
HETATM   37  C   UNL     1       0.654  28.702  46.958  1.00  0.00     0.035 A 
HETATM   38  C   UNL     1      -0.034  29.902  46.782  1.00  0.00     0.029 A 
HETATM   39  C   UNL     1      -1.057  29.998  45.833  1.00  0.00     0.002 A 
HETATM   40  C   UNL     1      -1.392  28.898  45.045  1.00  0.00     0.000 A 
HETATM   41  C   UNL     1      -0.709  27.697  45.210  1.00  0.00     0.002 A 
HETATM   42  C   UNL     1       0.304  27.598  46.167  1.00  0.00     0.029 A 
ENDBRANCH  34  37
ENDBRANCH   2  33
TORSDOF 9
ENDMDL
