MODEL 1
REMARK VINA RESULT:      -8.4      0.000      0.000
REMARK  7 active torsions:
REMARK  status: ('A' for Active; 'I' for Inactive)
REMARK    1  A    between atoms: C_5  and  C_6 
REMARK    2  A    between atoms: C_6  and  C_7 
REMARK    3  A    between atoms: C_7  and  N_8 
REMARK       I    between atoms: N_8  and  C_9 
REMARK       I    between atoms: C_9  and  N_10 
REMARK    4  A    between atoms: N_10  and  N_11 
REMARK       I    between atoms: N_11  and  C_12 
REMARK    5  A    between atoms: C_12  and  C_13 
REMARK    6  A    between atoms: C_13  and  O_14 
REMARK    7  A    between atoms: O_14  and  C_15 
ROOT
HETATM    1  N   UNL     1       8.862  30.894  59.148  1.00  0.00    -0.341 N 
HETATM    2  C   UNL     1       9.907  30.969  58.271  1.00  0.00     0.334 C 
HETATM    3  N   UNL     1      10.157  29.826  57.546  1.00  0.00    -0.249 N 
HETATM    4  O   UNL     1      10.606  31.965  58.116  1.00  0.00    -0.246 OA
HETATM    5  H   UNL     1       8.772  29.952  59.519  1.00  0.00     0.164 HD
HETATM    6  H   UNL     1      10.913  29.910  56.876  1.00  0.00     0.192 HD
ENDROOT
BRANCH   3   7
HETATM    7  N   UNL     1       9.215  28.793  57.337  1.00  0.00    -0.264 N 
HETATM    8  C   UNL     1       8.610  28.638  56.099  1.00  0.00     0.260 C 
HETATM    9  O   UNL     1       9.027  29.158  55.064  1.00  0.00    -0.269 OA
HETATM   10  H   UNL     1       8.716  28.476  58.164  1.00  0.00     0.190 HD
BRANCH   8  11
HETATM   11  C   UNL     1       7.433  27.675  56.110  1.00  0.00     0.280 C 
BRANCH  11  12
HETATM   12  O   UNL     1       7.035  27.438  54.761  1.00  0.00    -0.342 OA
BRANCH  12  13
HETATM   13  C   UNL     1       7.269  26.154  54.347  1.00  0.00     0.069 A 
HETATM   14  C   UNL     1       7.713  25.825  53.064  1.00  0.00     0.038 A 
HETATM   15  C   UNL     1       7.932  24.486  52.725  1.00  0.00     0.022 A 
HETATM   16  C   UNL     1       7.717  23.487  53.673  1.00  0.00     0.011 A 
HETATM   17 BR   UNL     1       8.006  21.678  53.209  1.00  0.00    -0.051 Br
HETATM   18  C   UNL     1       7.296  23.813  54.960  1.00  0.00     0.022 A 
HETATM   19  C   UNL     1       7.081  25.151  55.299  1.00  0.00     0.038 A 
ENDBRANCH  12  13
ENDBRANCH  11  12
ENDBRANCH   8  11
ENDBRANCH   3   7
BRANCH   1  20
HETATM   20  C   UNL     1       8.630  31.945  60.123  1.00  0.00     0.130 C 
BRANCH  20  21
HETATM   21  C   UNL     1       8.869  31.513  61.570  1.00  0.00     0.079 C 
BRANCH  21  22
HETATM   22  C   UNL     1       7.781  32.010  62.467  1.00  0.00     0.043 A 
HETATM   23  C   UNL     1       6.421  31.868  62.270  1.00  0.00     0.078 A 
HETATM   24  S   UNL     1       5.560  32.614  63.550  1.00  0.00    -0.085 SA
HETATM   25  C   UNL     1       7.050  33.080  64.265  1.00  0.00     0.071 A 
HETATM   26  C   UNL     1       7.066  33.842  65.542  1.00  0.00     0.078 C 
HETATM   27  N   UNL     1       8.131  32.708  63.614  1.00  0.00    -0.251 NA
ENDBRANCH  21  22
ENDBRANCH  20  21
ENDBRANCH   1  20
TORSDOF 7
ENDMDL
MODEL 2
REMARK VINA RESULT:      -8.3      3.433      5.080
REMARK  7 active torsions:
REMARK  status: ('A' for Active; 'I' for Inactive)
REMARK    1  A    between atoms: C_5  and  C_6 
REMARK    2  A    between atoms: C_6  and  C_7 
REMARK    3  A    between atoms: C_7  and  N_8 
REMARK       I    between atoms: N_8  and  C_9 
REMARK       I    between atoms: C_9  and  N_10 
REMARK    4  A    between atoms: N_10  and  N_11 
REMARK       I    between atoms: N_11  and  C_12 
REMARK    5  A    between atoms: C_12  and  C_13 
REMARK    6  A    between atoms: C_13  and  O_14 
REMARK    7  A    between atoms: O_14  and  C_15 
ROOT
HETATM    1  N   UNL     1       5.710  27.948  56.021  1.00  0.00    -0.341 N 
HETATM    2  C   UNL     1       4.442  28.195  55.576  1.00  0.00     0.334 C 
HETATM    3  N   UNL     1       4.147  27.707  54.323  1.00  0.00    -0.249 N 
HETATM    4  O   UNL     1       3.596  28.813  56.214  1.00  0.00    -0.246 OA
HETATM    5  H   UNL     1       6.366  27.934  55.245  1.00  0.00     0.164 HD
HETATM    6  H   UNL     1       3.192  27.869  54.023  1.00  0.00     0.192 HD
ENDROOT
BRANCH   3   7
HETATM    7  N   UNL     1       4.861  26.669  53.684  1.00  0.00    -0.264 N 
HETATM    8  C   UNL     1       5.952  26.963  52.878  1.00  0.00     0.260 C 
HETATM    9  O   UNL     1       6.535  28.047  52.886  1.00  0.00    -0.269 OA
HETATM   10  H   UNL     1       4.334  25.820  53.496  1.00  0.00     0.190 HD
BRANCH   8  11
HETATM   11  C   UNL     1       6.436  25.783  52.050  1.00  0.00     0.280 C 
BRANCH  11  12
HETATM   12  O   UNL     1       7.756  25.451  52.473  1.00  0.00    -0.342 OA
BRANCH  12  13
HETATM   13  C   UNL     1       7.798  24.382  53.329  1.00  0.00     0.069 A 
HETATM   14  C   UNL     1       7.804  24.507  54.720  1.00  0.00     0.038 A 
HETATM   15  C   UNL     1       7.842  23.362  55.521  1.00  0.00     0.022 A 
HETATM   16  C   UNL     1       7.861  22.101  54.928  1.00  0.00     0.011 A 
HETATM   17 BR   UNL     1       7.919  20.555  56.014  1.00  0.00    -0.051 Br
HETATM   18  C   UNL     1       7.831  21.972  53.541  1.00  0.00     0.022 A 
HETATM   19  C   UNL     1       7.789  23.117  52.741  1.00  0.00     0.038 A 
ENDBRANCH  12  13
ENDBRANCH  11  12
ENDBRANCH   8  11
ENDBRANCH   3   7
BRANCH   1  20
HETATM   20  C   UNL     1       6.217  28.590  57.221  1.00  0.00     0.130 C 
BRANCH  20  21
HETATM   21  C   UNL     1       7.573  28.058  57.684  1.00  0.00     0.079 C 
BRANCH  21  22
HETATM   22  C   UNL     1       8.529  29.176  57.950  1.00  0.00     0.043 A 
HETATM   23  C   UNL     1       9.563  29.588  57.131  1.00  0.00     0.078 A 
HETATM   24  S   UNL     1      10.403  30.893  57.857  1.00  0.00    -0.085 SA
HETATM   25  C   UNL     1       9.344  30.810  59.206  1.00  0.00     0.071 A 
HETATM   26  C   UNL     1       9.502  31.752  60.346  1.00  0.00     0.078 C 
HETATM   27  N   UNL     1       8.413  29.882  59.138  1.00  0.00    -0.251 NA
ENDBRANCH  21  22
ENDBRANCH  20  21
ENDBRANCH   1  20
TORSDOF 7
ENDMDL
MODEL 3
REMARK VINA RESULT:      -8.2      1.682      2.143
REMARK  7 active torsions:
REMARK  status: ('A' for Active; 'I' for Inactive)
REMARK    1  A    between atoms: C_5  and  C_6 
REMARK    2  A    between atoms: C_6  and  C_7 
REMARK    3  A    between atoms: C_7  and  N_8 
REMARK       I    between atoms: N_8  and  C_9 
REMARK       I    between atoms: C_9  and  N_10 
REMARK    4  A    between atoms: N_10  and  N_11 
REMARK       I    between atoms: N_11  and  C_12 
REMARK    5  A    between atoms: C_12  and  C_13 
REMARK    6  A    between atoms: C_13  and  O_14 
REMARK    7  A    between atoms: O_14  and  C_15 
ROOT
HETATM    1  N   UNL     1       7.298  31.404  60.588  1.00  0.00    -0.341 N 
HETATM    2  C   UNL     1       8.368  31.641  59.771  1.00  0.00     0.334 C 
HETATM    3  N   UNL     1       8.863  30.541  59.108  1.00  0.00    -0.249 N 
HETATM    4  O   UNL     1       8.888  32.741  59.619  1.00  0.00    -0.246 OA
HETATM    5  H   UNL     1       7.353  30.471  60.989  1.00  0.00     0.164 HD
HETATM    6  H   UNL     1       9.635  30.740  58.481  1.00  0.00     0.192 HD
ENDROOT
BRANCH   3   7
HETATM    7  N   UNL     1       8.136  29.351  58.885  1.00  0.00    -0.264 N 
HETATM    8  C   UNL     1       8.340  28.612  57.728  1.00  0.00     0.260 C 
HETATM    9  O   UNL     1       9.314  28.754  56.989  1.00  0.00    -0.269 OA
HETATM   10  H   UNL     1       7.230  29.294  59.343  1.00  0.00     0.190 HD
BRANCH   8  11
HETATM   11  C   UNL     1       7.299  27.526  57.505  1.00  0.00     0.280 C 
BRANCH  11  12
HETATM   12  O   UNL     1       7.871  26.274  57.875  1.00  0.00    -0.342 OA
BRANCH  12  13
HETATM   13  C   UNL     1       7.924  25.376  56.842  1.00  0.00     0.069 A 
HETATM   14  C   UNL     1       7.269  25.563  55.623  1.00  0.00     0.038 A 
HETATM   15  C   UNL     1       7.380  24.598  54.617  1.00  0.00     0.022 A 
HETATM   16  C   UNL     1       8.155  23.459  54.833  1.00  0.00     0.011 A 
HETATM   17 BR   UNL     1       8.297  22.152  53.474  1.00  0.00    -0.051 Br
HETATM   18  C   UNL     1       8.828  23.281  56.039  1.00  0.00     0.022 A 
HETATM   19  C   UNL     1       8.719  24.247  57.041  1.00  0.00     0.038 A 
ENDBRANCH  12  13
ENDBRANCH  11  12
ENDBRANCH   8  11
ENDBRANCH   3   7
BRANCH   1  20
HETATM   20  C   UNL     1       6.821  32.424  61.506  1.00  0.00     0.130 C 
BRANCH  20  21
HETATM   21  C   UNL     1       7.576  32.464  62.834  1.00  0.00     0.079 C 
BRANCH  21  22
HETATM   22  C   UNL     1       6.708  32.989  63.932  1.00  0.00     0.043 A 
HETATM   23  C   UNL     1       5.335  33.138  63.896  1.00  0.00     0.078 A 
HETATM   24  S   UNL     1       4.775  33.794  65.377  1.00  0.00    -0.085 SA
HETATM   25  C   UNL     1       6.392  33.842  65.952  1.00  0.00     0.071 A 
HETATM   26  C   UNL     1       6.690  34.352  67.318  1.00  0.00     0.078 C 
HETATM   27  N   UNL     1       7.305  33.397  65.115  1.00  0.00    -0.251 NA
ENDBRANCH  21  22
ENDBRANCH  20  21
ENDBRANCH   1  20
TORSDOF 7
ENDMDL
MODEL 4
REMARK VINA RESULT:      -8.1      6.462      9.282
REMARK  7 active torsions:
REMARK  status: ('A' for Active; 'I' for Inactive)
REMARK    1  A    between atoms: C_5  and  C_6 
REMARK    2  A    between atoms: C_6  and  C_7 
REMARK    3  A    between atoms: C_7  and  N_8 
REMARK       I    between atoms: N_8  and  C_9 
REMARK       I    between atoms: C_9  and  N_10 
REMARK    4  A    between atoms: N_10  and  N_11 
REMARK       I    between atoms: N_11  and  C_12 
REMARK    5  A    between atoms: C_12  and  C_13 
REMARK    6  A    between atoms: C_13  and  O_14 
REMARK    7  A    between atoms: O_14  and  C_15 
ROOT
HETATM    1  N   UNL     1       4.255  27.586  53.960  1.00  0.00    -0.341 N 
HETATM    2  C   UNL     1       4.019  28.537  54.912  1.00  0.00     0.334 C 
HETATM    3  N   UNL     1       4.008  28.085  56.212  1.00  0.00    -0.249 N 
HETATM    4  O   UNL     1       3.815  29.722  54.667  1.00  0.00    -0.246 OA
HETATM    5  H   UNL     1       3.879  26.688  54.249  1.00  0.00     0.164 HD
HETATM    6  H   UNL     1       3.864  28.808  56.908  1.00  0.00     0.192 HD
ENDROOT
BRANCH   3   7
HETATM    7  N   UNL     1       4.609  26.881  56.642  1.00  0.00    -0.264 N 
HETATM    8  C   UNL     1       5.931  26.869  57.060  1.00  0.00     0.260 C 
HETATM    9  O   UNL     1       6.564  27.882  57.357  1.00  0.00    -0.269 OA
HETATM   10  H   UNL     1       4.215  26.027  56.254  1.00  0.00     0.190 HD
BRANCH   8  11
HETATM   11  C   UNL     1       6.509  25.471  57.224  1.00  0.00     0.280 C 
BRANCH  11  12
HETATM   12  O   UNL     1       7.745  25.411  56.516  1.00  0.00    -0.342 OA
BRANCH  12  13
HETATM   13  C   UNL     1       7.828  24.342  55.663  1.00  0.00     0.069 A 
HETATM   14  C   UNL     1       7.364  24.367  54.347  1.00  0.00     0.038 A 
HETATM   15  C   UNL     1       7.494  23.232  53.541  1.00  0.00     0.022 A 
HETATM   16  C   UNL     1       8.096  22.084  54.053  1.00  0.00     0.011 A 
HETATM   17 BR   UNL     1       8.263  20.548  52.965  1.00  0.00    -0.051 Br
HETATM   18  C   UNL     1       8.581  22.063  55.359  1.00  0.00     0.022 A 
HETATM   19  C   UNL     1       8.454  23.199  56.162  1.00  0.00     0.038 A 
ENDBRANCH  12  13
ENDBRANCH  11  12
ENDBRANCH   8  11
ENDBRANCH   3   7
BRANCH   1  20
HETATM   20  C   UNL     1       4.078  27.884  52.549  1.00  0.00     0.130 C 
BRANCH  20  21
HETATM   21  C   UNL     1       5.388  28.028  51.776  1.00  0.00     0.079 C 
BRANCH  21  22
HETATM   22  C   UNL     1       5.170  27.852  50.307  1.00  0.00     0.043 A 
HETATM   23  C   UNL     1       5.606  28.695  49.304  1.00  0.00     0.078 A 
HETATM   24  S   UNL     1       5.106  28.100  47.777  1.00  0.00    -0.085 SA
HETATM   25  C   UNL     1       4.339  26.776  48.558  1.00  0.00     0.071 A 
HETATM   26  C   UNL     1       3.627  25.742  47.760  1.00  0.00     0.078 C 
HETATM   27  N   UNL     1       4.443  26.756  49.869  1.00  0.00    -0.251 NA
ENDBRANCH  21  22
ENDBRANCH  20  21
ENDBRANCH   1  20
TORSDOF 7
ENDMDL
MODEL 5
REMARK VINA RESULT:      -8.1      5.112      9.937
REMARK  7 active torsions:
REMARK  status: ('A' for Active; 'I' for Inactive)
REMARK    1  A    between atoms: C_5  and  C_6 
REMARK    2  A    between atoms: C_6  and  C_7 
REMARK    3  A    between atoms: C_7  and  N_8 
REMARK       I    between atoms: N_8  and  C_9 
REMARK       I    between atoms: C_9  and  N_10 
REMARK    4  A    between atoms: N_10  and  N_11 
REMARK       I    between atoms: N_11  and  C_12 
REMARK    5  A    between atoms: C_12  and  C_13 
REMARK    6  A    between atoms: C_13  and  O_14 
REMARK    7  A    between atoms: O_14  and  C_15 
ROOT
HETATM    1  N   UNL     1       7.172  26.418  55.445  1.00  0.00    -0.341 N 
HETATM    2  C   UNL     1       7.440  27.139  54.314  1.00  0.00     0.334 C 
HETATM    3  N   UNL     1       7.517  28.502  54.485  1.00  0.00    -0.249 N 
HETATM    4  O   UNL     1       7.597  26.644  53.203  1.00  0.00    -0.246 OA
HETATM    5  H   UNL     1       6.580  26.950  56.077  1.00  0.00     0.164 HD
HETATM    6  H   UNL     1       7.750  29.018  53.643  1.00  0.00     0.192 HD
ENDROOT
BRANCH   3   7
HETATM    7  N   UNL     1       7.756  29.139  55.723  1.00  0.00    -0.264 N 
HETATM    8  C   UNL     1       9.040  29.527  56.076  1.00  0.00     0.260 C 
HETATM    9  O   UNL     1       9.971  29.616  55.275  1.00  0.00    -0.269 OA
HETATM   10  H   UNL     1       7.093  28.925  56.465  1.00  0.00     0.190 HD
BRANCH   8  11
HETATM   11  C   UNL     1       9.177  29.938  57.533  1.00  0.00     0.280 C 
BRANCH  11  12
HETATM   12  O   UNL     1       7.913  30.422  57.983  1.00  0.00    -0.342 OA
BRANCH  12  13
HETATM   13  C   UNL     1       7.944  30.903  59.265  1.00  0.00     0.069 A 
HETATM   14  C   UNL     1       8.903  30.527  60.208  1.00  0.00     0.038 A 
HETATM   15  C   UNL     1       8.864  31.071  61.495  1.00  0.00     0.022 A 
HETATM   16  C   UNL     1       7.874  31.995  61.828  1.00  0.00     0.011 A 
HETATM   17 BR   UNL     1       7.819  32.722  63.572  1.00  0.00    -0.051 Br
HETATM   18  C   UNL     1       6.929  32.389  60.883  1.00  0.00     0.022 A 
HETATM   19  C   UNL     1       6.972  31.848  59.596  1.00  0.00     0.038 A 
ENDBRANCH  12  13
ENDBRANCH  11  12
ENDBRANCH   8  11
ENDBRANCH   3   7
BRANCH   1  20
HETATM   20  C   UNL     1       6.849  25.004  55.368  1.00  0.00     0.130 C 
BRANCH  20  21
HETATM   21  C   UNL     1       7.500  24.159  56.462  1.00  0.00     0.079 C 
BRANCH  21  22
HETATM   22  C   UNL     1       7.823  22.787  55.963  1.00  0.00     0.043 A 
HETATM   23  C   UNL     1       8.317  21.735  56.709  1.00  0.00     0.078 A 
HETATM   24  S   UNL     1       8.552  20.364  55.709  1.00  0.00    -0.085 SA
HETATM   25  C   UNL     1       7.993  21.267  54.360  1.00  0.00     0.071 A 
HETATM   26  C   UNL     1       7.918  20.640  53.013  1.00  0.00     0.078 C 
HETATM   27  N   UNL     1       7.642  22.509  54.616  1.00  0.00    -0.251 NA
ENDBRANCH  21  22
ENDBRANCH  20  21
ENDBRANCH   1  20
TORSDOF 7
ENDMDL
MODEL 6
REMARK VINA RESULT:      -8.1      3.353      4.784
REMARK  7 active torsions:
REMARK  status: ('A' for Active; 'I' for Inactive)
REMARK    1  A    between atoms: C_5  and  C_6 
REMARK    2  A    between atoms: C_6  and  C_7 
REMARK    3  A    between atoms: C_7  and  N_8 
REMARK       I    between atoms: N_8  and  C_9 
REMARK       I    between atoms: C_9  and  N_10 
REMARK    4  A    between atoms: N_10  and  N_11 
REMARK       I    between atoms: N_11  and  C_12 
REMARK    5  A    between atoms: C_12  and  C_13 
REMARK    6  A    between atoms: C_13  and  O_14 
REMARK    7  A    between atoms: O_14  and  C_15 
ROOT
HETATM    1  N   UNL     1       5.387  30.659  58.222  1.00  0.00    -0.341 N 
HETATM    2  C   UNL     1       4.096  30.561  57.784  1.00  0.00     0.334 C 
HETATM    3  N   UNL     1       3.818  29.464  57.000  1.00  0.00    -0.249 N 
HETATM    4  O   UNL     1       3.217  31.377  58.041  1.00  0.00    -0.246 OA
HETATM    5  H   UNL     1       6.028  30.269  57.538  1.00  0.00     0.164 HD
HETATM    6  H   UNL     1       2.849  29.389  56.711  1.00  0.00     0.192 HD
ENDROOT
BRANCH   3   7
HETATM    7  N   UNL     1       4.598  28.287  56.971  1.00  0.00    -0.264 N 
HETATM    8  C   UNL     1       5.220  27.887  55.797  1.00  0.00     0.260 C 
HETATM    9  O   UNL     1       5.383  28.624  54.824  1.00  0.00    -0.269 OA
HETATM   10  H   UNL     1       4.351  27.576  57.655  1.00  0.00     0.190 HD
BRANCH   8  11
HETATM   11  C   UNL     1       5.783  26.476  55.853  1.00  0.00     0.280 C 
BRANCH  11  12
HETATM   12  O   UNL     1       6.830  26.372  54.890  1.00  0.00    -0.342 OA
BRANCH  12  13
HETATM   13  C   UNL     1       7.135  25.078  54.560  1.00  0.00     0.069 A 
HETATM   14  C   UNL     1       7.090  24.018  55.468  1.00  0.00     0.038 A 
HETATM   15  C   UNL     1       7.412  22.725  55.046  1.00  0.00     0.022 A 
HETATM   16  C   UNL     1       7.765  22.498  53.716  1.00  0.00     0.011 A 
HETATM   17 BR   UNL     1       8.208  20.750  53.150  1.00  0.00    -0.051 Br
HETATM   18  C   UNL     1       7.789  23.550  52.802  1.00  0.00     0.022 A 
HETATM   19  C   UNL     1       7.463  24.841  53.225  1.00  0.00     0.038 A 
ENDBRANCH  12  13
ENDBRANCH  11  12
ENDBRANCH   8  11
ENDBRANCH   3   7
BRANCH   1  20
HETATM   20  C   UNL     1       5.863  31.869  58.869  1.00  0.00     0.130 C 
BRANCH  20  21
HETATM   21  C   UNL     1       7.120  31.666  59.715  1.00  0.00     0.079 C 
BRANCH  21  22
HETATM   22  C   UNL     1       8.204  31.010  58.921  1.00  0.00     0.043 A 
HETATM   23  C   UNL     1       9.464  31.517  58.671  1.00  0.00     0.078 A 
HETATM   24  S   UNL     1      10.357  30.424  57.700  1.00  0.00    -0.085 SA
HETATM   25  C   UNL     1       9.006  29.364  57.673  1.00  0.00     0.071 A 
HETATM   26  C   UNL     1       9.077  28.073  56.937  1.00  0.00     0.078 C 
HETATM   27  N   UNL     1       7.951  29.775  58.343  1.00  0.00    -0.251 NA
ENDBRANCH  21  22
ENDBRANCH  20  21
ENDBRANCH   1  20
TORSDOF 7
ENDMDL
MODEL 7
REMARK VINA RESULT:      -8.0      4.834      5.848
REMARK  7 active torsions:
REMARK  status: ('A' for Active; 'I' for Inactive)
REMARK    1  A    between atoms: C_5  and  C_6 
REMARK    2  A    between atoms: C_6  and  C_7 
REMARK    3  A    between atoms: C_7  and  N_8 
REMARK       I    between atoms: N_8  and  C_9 
REMARK       I    between atoms: C_9  and  N_10 
REMARK    4  A    between atoms: N_10  and  N_11 
REMARK       I    between atoms: N_11  and  C_12 
REMARK    5  A    between atoms: C_12  and  C_13 
REMARK    6  A    between atoms: C_13  and  O_14 
REMARK    7  A    between atoms: O_14  and  C_15 
ROOT
HETATM    1  N   UNL     1       5.457  30.295  55.112  1.00  0.00    -0.341 N 
HETATM    2  C   UNL     1       4.558  30.040  54.114  1.00  0.00     0.334 C 
HETATM    3  N   UNL     1       5.064  29.387  53.013  1.00  0.00    -0.249 N 
HETATM    4  O   UNL     1       3.376  30.364  54.152  1.00  0.00    -0.246 OA
HETATM    5  H   UNL     1       6.383  30.456  54.728  1.00  0.00     0.164 HD
HETATM    6  H   UNL     1       4.378  29.176  52.297  1.00  0.00     0.192 HD
ENDROOT
BRANCH   3   7
HETATM    7  N   UNL     1       6.255  28.626  53.016  1.00  0.00    -0.264 N 
HETATM    8  C   UNL     1       6.216  27.266  53.287  1.00  0.00     0.260 C 
HETATM    9  O   UNL     1       5.187  26.592  53.257  1.00  0.00    -0.269 OA
HETATM   10  H   UNL     1       7.107  29.139  53.228  1.00  0.00     0.190 HD
BRANCH   8  11
HETATM   11  C   UNL     1       7.586  26.650  53.524  1.00  0.00     0.280 C 
BRANCH  11  12
HETATM   12  O   UNL     1       7.690  25.468  52.734  1.00  0.00    -0.342 OA
BRANCH  12  13
HETATM   13  C   UNL     1       7.842  24.330  53.480  1.00  0.00     0.069 A 
HETATM   14  C   UNL     1       8.006  24.332  54.867  1.00  0.00     0.038 A 
HETATM   15  C   UNL     1       8.149  23.123  55.553  1.00  0.00     0.022 A 
HETATM   16  C   UNL     1       8.116  21.919  54.851  1.00  0.00     0.011 A 
HETATM   17 BR   UNL     1       8.318  20.286  55.780  1.00  0.00    -0.051 Br
HETATM   18  C   UNL     1       7.930  21.912  53.470  1.00  0.00     0.022 A 
HETATM   19  C   UNL     1       7.783  23.121  52.786  1.00  0.00     0.038 A 
ENDBRANCH  12  13
ENDBRANCH  11  12
ENDBRANCH   8  11
ENDBRANCH   3   7
BRANCH   1  20
HETATM   20  C   UNL     1       5.109  31.163  56.223  1.00  0.00     0.130 C 
BRANCH  20  21
HETATM   21  C   UNL     1       5.605  30.663  57.579  1.00  0.00     0.079 C 
BRANCH  21  22
HETATM   22  C   UNL     1       6.155  29.277  57.475  1.00  0.00     0.043 A 
HETATM   23  C   UNL     1       7.476  28.901  57.626  1.00  0.00     0.078 A 
HETATM   24  S   UNL     1       7.636  27.210  57.400  1.00  0.00    -0.085 SA
HETATM   25  C   UNL     1       5.948  27.102  57.107  1.00  0.00     0.071 A 
HETATM   26  C   UNL     1       5.318  25.786  56.811  1.00  0.00     0.078 C 
HETATM   27  N   UNL     1       5.287  28.238  57.176  1.00  0.00    -0.251 NA
ENDBRANCH  21  22
ENDBRANCH  20  21
ENDBRANCH   1  20
TORSDOF 7
ENDMDL
MODEL 8
REMARK VINA RESULT:      -7.9      3.155      4.011
REMARK  7 active torsions:
REMARK  status: ('A' for Active; 'I' for Inactive)
REMARK    1  A    between atoms: C_5  and  C_6 
REMARK    2  A    between atoms: C_6  and  C_7 
REMARK    3  A    between atoms: C_7  and  N_8 
REMARK       I    between atoms: N_8  and  C_9 
REMARK       I    between atoms: C_9  and  N_10 
REMARK    4  A    between atoms: N_10  and  N_11 
REMARK       I    between atoms: N_11  and  C_12 
REMARK    5  A    between atoms: C_12  and  C_13 
REMARK    6  A    between atoms: C_13  and  O_14 
REMARK    7  A    between atoms: O_14  and  C_15 
ROOT
HETATM    1  N   UNL     1       4.184  30.109  58.101  1.00  0.00    -0.341 N 
HETATM    2  C   UNL     1       3.449  30.093  56.949  1.00  0.00     0.334 C 
HETATM    3  N   UNL     1       3.601  28.972  56.164  1.00  0.00    -0.249 N 
HETATM    4  O   UNL     1       2.700  30.998  56.597  1.00  0.00    -0.246 OA
HETATM    5  H   UNL     1       5.064  29.617  57.972  1.00  0.00     0.164 HD
HETATM    6  H   UNL     1       3.023  28.962  55.331  1.00  0.00     0.192 HD
ENDROOT
BRANCH   3   7
HETATM    7  N   UNL     1       4.090  27.732  56.632  1.00  0.00    -0.264 N 
HETATM    8  C   UNL     1       5.312  27.249  56.188  1.00  0.00     0.260 C 
HETATM    9  O   UNL     1       6.156  27.942  55.621  1.00  0.00    -0.269 OA
HETATM   10  H   UNL     1       3.385  27.064  56.934  1.00  0.00     0.190 HD
BRANCH   8  11
HETATM   11  C   UNL     1       5.567  25.796  56.560  1.00  0.00     0.280 C 
BRANCH  11  12
HETATM   12  O   UNL     1       6.957  25.528  56.390  1.00  0.00    -0.342 OA
BRANCH  12  13
HETATM   13  C   UNL     1       7.204  24.452  55.579  1.00  0.00     0.069 A 
HETATM   14  C   UNL     1       6.987  24.458  54.199  1.00  0.00     0.038 A 
HETATM   15  C   UNL     1       7.272  23.317  53.444  1.00  0.00     0.022 A 
HETATM   16  C   UNL     1       7.782  22.181  54.070  1.00  0.00     0.011 A 
HETATM   17 BR   UNL     1       8.159  20.637  53.048  1.00  0.00    -0.051 Br
HETATM   18  C   UNL     1       8.022  22.179  55.443  1.00  0.00     0.022 A 
HETATM   19  C   UNL     1       7.741  23.321  56.196  1.00  0.00     0.038 A 
ENDBRANCH  12  13
ENDBRANCH  11  12
ENDBRANCH   8  11
ENDBRANCH   3   7
BRANCH   1  20
HETATM   20  C   UNL     1       4.285  31.316  58.904  1.00  0.00     0.130 C 
BRANCH  20  21
HETATM   21  C   UNL     1       5.516  32.166  58.593  1.00  0.00     0.079 C 
BRANCH  21  22
HETATM   22  C   UNL     1       6.676  31.768  59.449  1.00  0.00     0.043 A 
HETATM   23  C   UNL     1       7.688  30.891  59.110  1.00  0.00     0.078 A 
HETATM   24  S   UNL     1       8.787  30.728  60.413  1.00  0.00    -0.085 SA
HETATM   25  C   UNL     1       7.837  31.822  61.336  1.00  0.00     0.071 A 
HETATM   26  C   UNL     1       8.241  32.187  62.720  1.00  0.00     0.078 C 
HETATM   27  N   UNL     1       6.770  32.295  60.729  1.00  0.00    -0.251 NA
ENDBRANCH  21  22
ENDBRANCH  20  21
ENDBRANCH   1  20
TORSDOF 7
ENDMDL
MODEL 9
REMARK VINA RESULT:      -7.9      5.213     10.562
REMARK  7 active torsions:
REMARK  status: ('A' for Active; 'I' for Inactive)
REMARK    1  A    between atoms: C_5  and  C_6 
REMARK    2  A    between atoms: C_6  and  C_7 
REMARK    3  A    between atoms: C_7  and  N_8 
REMARK       I    between atoms: N_8  and  C_9 
REMARK       I    between atoms: C_9  and  N_10 
REMARK    4  A    between atoms: N_10  and  N_11 
REMARK       I    between atoms: N_11  and  C_12 
REMARK    5  A    between atoms: C_12  and  C_13 
REMARK    6  A    between atoms: C_13  and  O_14 
REMARK    7  A    between atoms: O_14  and  C_15 
ROOT
HETATM    1  N   UNL     1       6.664  29.695  57.677  1.00  0.00    -0.341 N 
HETATM    2  C   UNL     1       7.779  29.138  58.238  1.00  0.00     0.334 C 
HETATM    3  N   UNL     1       8.319  29.830  59.297  1.00  0.00    -0.249 N 
HETATM    4  O   UNL     1       8.301  28.099  57.846  1.00  0.00    -0.246 OA
HETATM    5  H   UNL     1       6.700  30.708  57.739  1.00  0.00     0.164 HD
HETATM    6  H   UNL     1       9.126  29.386  59.722  1.00  0.00     0.192 HD
ENDROOT
BRANCH   3   7
HETATM    7  N   UNL     1       7.613  30.774  60.076  1.00  0.00    -0.264 N 
HETATM    8  C   UNL     1       8.059  32.085  60.162  1.00  0.00     0.260 C 
HETATM    9  O   UNL     1       8.878  32.581  59.388  1.00  0.00    -0.269 OA
HETATM   10  H   UNL     1       7.072  30.394  60.848  1.00  0.00     0.190 HD
BRANCH   8  11
HETATM   11  C   UNL     1       7.363  32.898  61.242  1.00  0.00     0.280 C 
BRANCH  11  12
HETATM   12  O   UNL     1       6.920  32.004  62.260  1.00  0.00    -0.342 OA
BRANCH  12  13
HETATM   13  C   UNL     1       6.576  32.638  63.425  1.00  0.00     0.069 A 
HETATM   14  C   UNL     1       7.507  33.085  64.365  1.00  0.00     0.038 A 
HETATM   15  C   UNL     1       7.070  33.729  65.526  1.00  0.00     0.022 A 
HETATM   16  C   UNL     1       5.707  33.933  65.734  1.00  0.00     0.011 A 
HETATM   17 BR   UNL     1       5.119  34.797  67.309  1.00  0.00    -0.051 Br
HETATM   18  C   UNL     1       4.777  33.509  64.788  1.00  0.00     0.022 A 
HETATM   19  C   UNL     1       5.215  32.869  63.626  1.00  0.00     0.038 A 
ENDBRANCH  12  13
ENDBRANCH  11  12
ENDBRANCH   8  11
ENDBRANCH   3   7
BRANCH   1  20
HETATM   20  C   UNL     1       6.127  29.189  56.426  1.00  0.00     0.130 C 
BRANCH  20  21
HETATM   21  C   UNL     1       5.104  28.067  56.599  1.00  0.00     0.079 C 
BRANCH  21  22
HETATM   22  C   UNL     1       5.452  26.885  55.752  1.00  0.00     0.043 A 
HETATM   23  C   UNL     1       6.141  25.757  56.155  1.00  0.00     0.078 A 
HETATM   24  S   UNL     1       6.323  24.676  54.839  1.00  0.00    -0.085 SA
HETATM   25  C   UNL     1       5.485  25.785  53.829  1.00  0.00     0.071 A 
HETATM   26  C   UNL     1       5.247  25.465  52.396  1.00  0.00     0.078 C 
HETATM   27  N   UNL     1       5.082  26.891  54.416  1.00  0.00    -0.251 NA
ENDBRANCH  21  22
ENDBRANCH  20  21
ENDBRANCH   1  20
TORSDOF 7
ENDMDL
MODEL 10
REMARK VINA RESULT:      -7.8      7.904     10.626
REMARK  7 active torsions:
REMARK  status: ('A' for Active; 'I' for Inactive)
REMARK    1  A    between atoms: C_5  and  C_6 
REMARK    2  A    between atoms: C_6  and  C_7 
REMARK    3  A    between atoms: C_7  and  N_8 
REMARK       I    between atoms: N_8  and  C_9 
REMARK       I    between atoms: C_9  and  N_10 
REMARK    4  A    between atoms: N_10  and  N_11 
REMARK       I    between atoms: N_11  and  C_12 
REMARK    5  A    between atoms: C_12  and  C_13 
REMARK    6  A    between atoms: C_13  and  O_14 
REMARK    7  A    between atoms: O_14  and  C_15 
ROOT
HETATM    1  N   UNL     1       6.670  34.965  68.282  1.00  0.00    -0.341 N 
HETATM    2  C   UNL     1       5.571  34.193  68.534  1.00  0.00     0.334 C 
HETATM    3  N   UNL     1       4.864  33.787  67.425  1.00  0.00    -0.249 N 
HETATM    4  O   UNL     1       5.199  33.870  69.658  1.00  0.00    -0.246 OA
HETATM    5  H   UNL     1       6.523  35.539  67.457  1.00  0.00     0.164 HD
HETATM    6  H   UNL     1       4.071  33.188  67.628  1.00  0.00     0.192 HD
ENDROOT
BRANCH   3   7
HETATM    7  N   UNL     1       5.392  33.745  66.115  1.00  0.00    -0.264 N 
HETATM    8  C   UNL     1       4.544  33.742  65.018  1.00  0.00     0.260 C 
HETATM    9  O   UNL     1       3.354  34.054  65.073  1.00  0.00    -0.269 OA
HETATM   10  H   UNL     1       6.308  33.313  66.022  1.00  0.00     0.190 HD
BRANCH   8  11
HETATM   11  C   UNL     1       5.241  33.416  63.706  1.00  0.00     0.280 C 
BRANCH  11  12
HETATM   12  O   UNL     1       6.606  33.116  63.987  1.00  0.00    -0.342 OA
BRANCH  12  13
HETATM   13  C   UNL     1       7.316  32.737  62.878  1.00  0.00     0.069 A 
HETATM   14  C   UNL     1       8.536  32.062  62.936  1.00  0.00     0.038 A 
HETATM   15  C   UNL     1       9.192  31.706  61.754  1.00  0.00     0.022 A 
HETATM   16  C   UNL     1       8.618  32.018  60.522  1.00  0.00     0.011 A 
HETATM   17 BR   UNL     1       9.511  31.544  58.925  1.00  0.00    -0.051 Br
HETATM   18  C   UNL     1       7.389  32.672  60.461  1.00  0.00     0.022 A 
HETATM   19  C   UNL     1       6.733  33.023  61.643  1.00  0.00     0.038 A 
ENDBRANCH  12  13
ENDBRANCH  11  12
ENDBRANCH   8  11
ENDBRANCH   3   7
BRANCH   1  20
HETATM   20  C   UNL     1       7.372  35.637  69.362  1.00  0.00     0.130 C 
BRANCH  20  21
HETATM   21  C   UNL     1       8.530  34.829  69.945  1.00  0.00     0.079 C 
BRANCH  21  22
HETATM   22  C   UNL     1       8.215  34.355  71.328  1.00  0.00     0.043 A 
HETATM   23  C   UNL     1       7.685  35.109  72.357  1.00  0.00     0.078 A 
HETATM   24  S   UNL     1       7.513  34.148  73.764  1.00  0.00    -0.085 SA
HETATM   25  C   UNL     1       8.163  32.806  72.912  1.00  0.00     0.071 A 
HETATM   26  C   UNL     1       8.320  31.490  73.588  1.00  0.00     0.078 C 
HETATM   27  N   UNL     1       8.487  33.035  71.657  1.00  0.00    -0.251 NA
ENDBRANCH  21  22
ENDBRANCH  20  21
ENDBRANCH   1  20
TORSDOF 7
ENDMDL
