MODEL 1
REMARK VINA RESULT:      -8.3      0.000      0.000
REMARK  5 active torsions:
REMARK  status: ('A' for Active; 'I' for Inactive)
REMARK    1  A    between atoms: C_7  and  N_8 
REMARK    2  A    between atoms: N_8  and  C_9 
REMARK    3  A    between atoms: C_9  and  C_10 
REMARK       I    between atoms: C_10  and  N_11 
REMARK    4  A    between atoms: N_11  and  C_12 
REMARK    5  A    between atoms: C_16  and  C_17 
ROOT
HETATM    1  C   UNL     1       8.292  25.199  57.500  1.00  0.00     0.068 C 
HETATM    2  C   UNL     1       8.003  24.401  56.264  1.00  0.00     0.014 A 
HETATM    3  N   UNL     1       8.658  23.234  56.142  1.00  0.00    -0.359 N 
HETATM    4  H   UNL     1       9.305  22.965  56.883  1.00  0.00     0.166 HD
HETATM    5  C   UNL     1       8.507  22.381  55.118  1.00  0.00     0.044 A 
HETATM    6  C   UNL     1       7.622  22.705  54.071  1.00  0.00     0.012 A 
HETATM    7  C   UNL     1       6.947  23.957  54.125  1.00  0.00     0.030 A 
HETATM    8  C   UNL     1       7.098  24.799  55.258  1.00  0.00    -0.010 A 
HETATM    9  C   UNL     1       9.236  21.179  55.109  1.00  0.00     0.030 A 
HETATM   10  C   UNL     1       9.081  20.270  54.067  1.00  0.00     0.002 A 
HETATM   11  C   UNL     1       8.191  20.549  53.039  1.00  0.00     0.001 A 
HETATM   12  C   UNL     1       7.468  21.746  53.042  1.00  0.00     0.015 A 
ENDROOT
BRANCH   7  13
HETATM   13  N   UNL     1       6.146  24.406  53.061  1.00  0.00    -0.283 NA
HETATM   14  H   UNL     1       5.746  23.638  52.515  1.00  0.00     0.128 HD
BRANCH  13  15
HETATM   15  C   UNL     1       6.790  25.357  52.132  1.00  0.00     0.195 C 
BRANCH  15  16
HETATM   16  C   UNL     1       5.726  26.299  51.554  1.00  0.00     0.231 C 
HETATM   17  N   UNL     1       5.639  26.281  50.177  1.00  0.00    -0.356 N 
HETATM   18  H   UNL     1       6.378  25.832  49.653  1.00  0.00     0.162 HD
HETATM   19  O   UNL     1       5.034  27.010  52.278  1.00  0.00    -0.272 OA
BRANCH  17  20
HETATM   20  C   UNL     1       4.788  27.210  49.443  1.00  0.00     0.076 C 
HETATM   21  C   UNL     1       5.530  28.522  49.192  1.00  0.00     0.032 C 
HETATM   22  C   UNL     1       4.354  26.575  48.126  1.00  0.00     0.032 C 
ENDBRANCH  17  20
ENDBRANCH  15  16
ENDBRANCH  13  15
ENDBRANCH   7  13
BRANCH   8  23
HETATM   23  C   UNL     1       6.321  26.113  55.427  1.00  0.00     0.014 C 
HETATM   24  C   UNL     1       5.389  26.074  56.639  1.00  0.00     0.015 C 
HETATM   25  C   UNL     1       7.181  27.384  55.426  1.00  0.00     0.015 C 
ENDBRANCH   8  23
TORSDOF 5
ENDMDL
MODEL 2
REMARK VINA RESULT:      -8.2      1.059      1.491
REMARK  5 active torsions:
REMARK  status: ('A' for Active; 'I' for Inactive)
REMARK    1  A    between atoms: C_7  and  N_8 
REMARK    2  A    between atoms: N_8  and  C_9 
REMARK    3  A    between atoms: C_9  and  C_10 
REMARK       I    between atoms: C_10  and  N_11 
REMARK    4  A    between atoms: N_11  and  C_12 
REMARK    5  A    between atoms: C_16  and  C_17 
ROOT
HETATM    1  C   UNL     1       7.745  25.602  57.633  1.00  0.00     0.068 C 
HETATM    2  C   UNL     1       7.694  24.892  56.312  1.00  0.00     0.014 A 
HETATM    3  N   UNL     1       8.046  23.595  56.319  1.00  0.00    -0.359 N 
HETATM    4  H   UNL     1       8.326  23.177  57.206  1.00  0.00     0.166 HD
HETATM    5  C   UNL     1       8.037  22.799  55.240  1.00  0.00     0.044 A 
HETATM    6  C   UNL     1       7.655  23.329  53.991  1.00  0.00     0.012 A 
HETATM    7  C   UNL     1       7.328  24.713  53.920  1.00  0.00     0.030 A 
HETATM    8  C   UNL     1       7.298  25.499  55.102  1.00  0.00    -0.010 A 
HETATM    9  C   UNL     1       8.410  21.452  55.374  1.00  0.00     0.030 A 
HETATM   10  C   UNL     1       8.390  20.602  54.272  1.00  0.00     0.002 A 
HETATM   11  C   UNL     1       7.986  21.090  53.037  1.00  0.00     0.001 A 
HETATM   12  C   UNL     1       7.619  22.432  52.898  1.00  0.00     0.015 A 
ENDROOT
BRANCH   7  13
HETATM   13  N   UNL     1       7.058  25.343  52.693  1.00  0.00    -0.283 NA
HETATM   14  H   UNL     1       7.304  26.337  52.695  1.00  0.00     0.128 HD
BRANCH  13  15
HETATM   15  C   UNL     1       5.676  25.201  52.191  1.00  0.00     0.195 C 
BRANCH  15  16
HETATM   16  C   UNL     1       5.401  26.296  51.152  1.00  0.00     0.231 C 
HETATM   17  N   UNL     1       4.502  25.934  50.171  1.00  0.00    -0.356 N 
HETATM   18  H   UNL     1       4.253  24.958  50.080  1.00  0.00     0.162 HD
HETATM   19  O   UNL     1       5.958  27.390  51.205  1.00  0.00    -0.272 OA
BRANCH  17  20
HETATM   20  C   UNL     1       4.224  26.788  49.022  1.00  0.00     0.076 C 
HETATM   21  C   UNL     1       3.754  25.944  47.837  1.00  0.00     0.032 C 
HETATM   22  C   UNL     1       3.171  27.825  49.398  1.00  0.00     0.032 C 
ENDBRANCH  17  20
ENDBRANCH  15  16
ENDBRANCH  13  15
ENDBRANCH   7  13
BRANCH   8  23
HETATM   23  C   UNL     1       6.856  26.970  55.112  1.00  0.00     0.014 C 
HETATM   24  C   UNL     1       7.673  27.819  54.137  1.00  0.00     0.015 C 
HETATM   25  C   UNL     1       5.351  27.200  54.927  1.00  0.00     0.015 C 
ENDBRANCH   8  23
TORSDOF 5
ENDMDL
MODEL 3
REMARK VINA RESULT:      -8.0      2.690      5.143
REMARK  5 active torsions:
REMARK  status: ('A' for Active; 'I' for Inactive)
REMARK    1  A    between atoms: C_7  and  N_8 
REMARK    2  A    between atoms: N_8  and  C_9 
REMARK    3  A    between atoms: C_9  and  C_10 
REMARK       I    between atoms: C_10  and  N_11 
REMARK    4  A    between atoms: N_11  and  C_12 
REMARK    5  A    between atoms: C_16  and  C_17 
ROOT
HETATM    1  C   UNL     1       7.284  24.878  51.799  1.00  0.00     0.068 C 
HETATM    2  C   UNL     1       7.431  24.302  53.176  1.00  0.00     0.014 A 
HETATM    3  N   UNL     1       7.896  23.043  53.247  1.00  0.00    -0.359 N 
HETATM    4  H   UNL     1       8.114  22.560  52.377  1.00  0.00     0.166 HD
HETATM    5  C   UNL     1       8.114  22.377  54.391  1.00  0.00     0.044 A 
HETATM    6  C   UNL     1       7.831  23.003  55.622  1.00  0.00     0.012 A 
HETATM    7  C   UNL     1       7.283  24.316  55.597  1.00  0.00     0.030 A 
HETATM    8  C   UNL     1       7.124  24.999  54.363  1.00  0.00    -0.010 A 
HETATM    9  C   UNL     1       8.620  21.067  54.340  1.00  0.00     0.030 A 
HETATM   10  C   UNL     1       8.873  20.364  55.515  1.00  0.00     0.002 A 
HETATM   11  C   UNL     1       8.634  20.968  56.741  1.00  0.00     0.001 A 
HETATM   12  C   UNL     1       8.126  22.270  56.796  1.00  0.00     0.015 A 
ENDROOT
BRANCH   7  13
HETATM   13  N   UNL     1       6.859  24.957  56.775  1.00  0.00    -0.283 NA
HETATM   14  H   UNL     1       6.088  25.611  56.614  1.00  0.00     0.128 HD
BRANCH  13  15
HETATM   15  C   UNL     1       7.914  25.655  57.538  1.00  0.00     0.195 C 
BRANCH  15  16
HETATM   16  C   UNL     1       7.731  27.171  57.384  1.00  0.00     0.231 C 
HETATM   17  N   UNL     1       8.895  27.858  57.108  1.00  0.00    -0.356 N 
HETATM   18  H   UNL     1       9.778  27.378  57.224  1.00  0.00     0.162 HD
HETATM   19  O   UNL     1       6.632  27.703  57.516  1.00  0.00    -0.272 OA
BRANCH  17  20
HETATM   20  C   UNL     1       8.943  29.315  57.069  1.00  0.00     0.076 C 
HETATM   21  C   UNL     1       8.985  29.881  58.488  1.00  0.00     0.032 C 
HETATM   22  C   UNL     1      10.163  29.765  56.272  1.00  0.00     0.032 C 
ENDBRANCH  17  20
ENDBRANCH  15  16
ENDBRANCH  13  15
ENDBRANCH   7  13
BRANCH   8  23
HETATM   23  C   UNL     1       6.635  26.452  54.272  1.00  0.00     0.014 C 
HETATM   24  C   UNL     1       7.694  27.375  53.666  1.00  0.00     0.015 C 
HETATM   25  C   UNL     1       5.274  26.641  53.591  1.00  0.00     0.015 C 
ENDBRANCH   8  23
TORSDOF 5
ENDMDL
MODEL 4
REMARK VINA RESULT:      -7.6      2.528      5.925
REMARK  5 active torsions:
REMARK  status: ('A' for Active; 'I' for Inactive)
REMARK    1  A    between atoms: C_7  and  N_8 
REMARK    2  A    between atoms: N_8  and  C_9 
REMARK    3  A    between atoms: C_9  and  C_10 
REMARK       I    between atoms: C_10  and  N_11 
REMARK    4  A    between atoms: N_11  and  C_12 
REMARK    5  A    between atoms: C_16  and  C_17 
ROOT
HETATM    1  C   UNL     1       8.180  21.072  52.907  1.00  0.00     0.068 C 
HETATM    2  C   UNL     1       7.591  22.281  53.572  1.00  0.00     0.014 A 
HETATM    3  N   UNL     1       6.997  23.174  52.762  1.00  0.00    -0.359 N 
HETATM    4  H   UNL     1       6.984  22.984  51.761  1.00  0.00     0.166 HD
HETATM    5  C   UNL     1       6.397  24.298  53.182  1.00  0.00     0.044 A 
HETATM    6  C   UNL     1       6.384  24.605  54.558  1.00  0.00     0.012 A 
HETATM    7  C   UNL     1       7.050  23.718  55.450  1.00  0.00     0.030 A 
HETATM    8  C   UNL     1       7.621  22.513  54.962  1.00  0.00    -0.010 A 
HETATM    9  C   UNL     1       5.793  25.150  52.241  1.00  0.00     0.030 A 
HETATM   10  C   UNL     1       5.147  26.311  52.655  1.00  0.00     0.002 A 
HETATM   11  C   UNL     1       5.091  26.620  54.007  1.00  0.00     0.001 A 
HETATM   12  C   UNL     1       5.695  25.778  54.946  1.00  0.00     0.015 A 
ENDROOT
BRANCH   7  13
HETATM   13  N   UNL     1       7.188  24.018  56.816  1.00  0.00    -0.283 NA
HETATM   14  H   UNL     1       6.410  24.576  57.180  1.00  0.00     0.128 HD
BRANCH  13  15
HETATM   15  C   UNL     1       8.456  24.670  57.203  1.00  0.00     0.195 C 
BRANCH  15  16
HETATM   16  C   UNL     1       8.175  26.125  57.602  1.00  0.00     0.231 C 
HETATM   17  N   UNL     1       8.503  27.052  56.635  1.00  0.00    -0.356 N 
HETATM   18  H   UNL     1       9.069  26.753  55.852  1.00  0.00     0.162 HD
HETATM   19  O   UNL     1       7.710  26.413  58.702  1.00  0.00    -0.272 OA
BRANCH  17  20
HETATM   20  C   UNL     1       8.441  28.487  56.886  1.00  0.00     0.076 C 
HETATM   21  C   UNL     1       9.850  29.062  57.027  1.00  0.00     0.032 C 
HETATM   22  C   UNL     1       7.689  29.173  55.749  1.00  0.00     0.032 C 
ENDBRANCH  17  20
ENDBRANCH  15  16
ENDBRANCH  13  15
ENDBRANCH   7  13
BRANCH   8  23
HETATM   23  C   UNL     1       8.264  21.465  55.882  1.00  0.00     0.014 C 
HETATM   24  C   UNL     1       7.358  20.249  56.083  1.00  0.00     0.015 C 
HETATM   25  C   UNL     1       9.687  21.043  55.497  1.00  0.00     0.015 C 
ENDBRANCH   8  23
TORSDOF 5
ENDMDL
MODEL 5
REMARK VINA RESULT:      -7.4      2.623      6.834
REMARK  5 active torsions:
REMARK  status: ('A' for Active; 'I' for Inactive)
REMARK    1  A    between atoms: C_7  and  N_8 
REMARK    2  A    between atoms: N_8  and  C_9 
REMARK    3  A    between atoms: C_9  and  C_10 
REMARK       I    between atoms: C_10  and  N_11 
REMARK    4  A    between atoms: N_11  and  C_12 
REMARK    5  A    between atoms: C_16  and  C_17 
ROOT
HETATM    1  C   UNL     1       5.174  28.613  52.027  1.00  0.00     0.068 C 
HETATM    2  C   UNL     1       5.862  28.202  53.295  1.00  0.00     0.014 A 
HETATM    3  N   UNL     1       5.938  29.134  54.259  1.00  0.00    -0.359 N 
HETATM    4  H   UNL     1       5.534  30.052  54.076  1.00  0.00     0.166 HD
HETATM    5  C   UNL     1       6.494  28.937  55.464  1.00  0.00     0.044 A 
HETATM    6  C   UNL     1       7.064  27.685  55.768  1.00  0.00     0.012 A 
HETATM    7  C   UNL     1       7.059  26.682  54.758  1.00  0.00     0.030 A 
HETATM    8  C   UNL     1       6.408  26.921  53.519  1.00  0.00    -0.010 A 
HETATM    9  C   UNL     1       6.500  29.985  56.400  1.00  0.00     0.030 A 
HETATM   10  C   UNL     1       7.054  29.798  57.663  1.00  0.00     0.002 A 
HETATM   11  C   UNL     1       7.592  28.564  58.001  1.00  0.00     0.001 A 
HETATM   12  C   UNL     1       7.593  27.520  57.070  1.00  0.00     0.015 A 
ENDROOT
BRANCH   7  13
HETATM   13  N   UNL     1       7.716  25.452  54.940  1.00  0.00    -0.283 NA
HETATM   14  H   UNL     1       7.974  25.006  54.055  1.00  0.00     0.128 HD
BRANCH  13  15
HETATM   15  C   UNL     1       7.003  24.464  55.774  1.00  0.00     0.195 C 
BRANCH  15  16
HETATM   16  C   UNL     1       7.849  23.188  55.882  1.00  0.00     0.231 C 
HETATM   17  N   UNL     1       7.741  22.342  54.798  1.00  0.00    -0.356 N 
HETATM   18  H   UNL     1       6.997  22.502  54.133  1.00  0.00     0.162 HD
HETATM   19  O   UNL     1       8.543  22.958  56.869  1.00  0.00    -0.272 OA
BRANCH  17  20
HETATM   20  C   UNL     1       8.358  21.021  54.783  1.00  0.00     0.076 C 
HETATM   21  C   UNL     1       7.681  20.109  55.807  1.00  0.00     0.032 C 
HETATM   22  C   UNL     1       8.260  20.426  53.382  1.00  0.00     0.032 C 
ENDBRANCH  17  20
ENDBRANCH  15  16
ENDBRANCH  13  15
ENDBRANCH   7  13
BRANCH   8  23
HETATM   23  C   UNL     1       6.277  25.850  52.427  1.00  0.00     0.014 C 
HETATM   24  C   UNL     1       7.619  25.189  52.110  1.00  0.00     0.015 C 
HETATM   25  C   UNL     1       5.183  24.802  52.669  1.00  0.00     0.015 C 
ENDBRANCH   8  23
TORSDOF 5
ENDMDL
MODEL 6
REMARK VINA RESULT:      -7.1      3.146      5.980
REMARK  5 active torsions:
REMARK  status: ('A' for Active; 'I' for Inactive)
REMARK    1  A    between atoms: C_7  and  N_8 
REMARK    2  A    between atoms: N_8  and  C_9 
REMARK    3  A    between atoms: C_9  and  C_10 
REMARK       I    between atoms: C_10  and  N_11 
REMARK    4  A    between atoms: N_11  and  C_12 
REMARK    5  A    between atoms: C_16  and  C_17 
ROOT
HETATM    1  C   UNL     1       5.096  25.999  50.944  1.00  0.00     0.068 C 
HETATM    2  C   UNL     1       5.816  25.721  52.230  1.00  0.00     0.014 A 
HETATM    3  N   UNL     1       6.455  24.542  52.311  1.00  0.00    -0.359 N 
HETATM    4  H   UNL     1       6.411  23.914  51.510  1.00  0.00     0.166 HD
HETATM    5  C   UNL     1       7.169  24.136  53.371  1.00  0.00     0.044 A 
HETATM    6  C   UNL     1       7.264  24.969  54.504  1.00  0.00     0.012 A 
HETATM    7  C   UNL     1       6.557  26.205  54.489  1.00  0.00     0.030 A 
HETATM    8  C   UNL     1       5.862  26.614  53.321  1.00  0.00    -0.010 A 
HETATM    9  C   UNL     1       7.809  22.885  53.333  1.00  0.00     0.030 A 
HETATM   10  C   UNL     1       8.571  22.451  54.414  1.00  0.00     0.002 A 
HETATM   11  C   UNL     1       8.709  23.267  55.529  1.00  0.00     0.001 A 
HETATM   12  C   UNL     1       8.069  24.510  55.572  1.00  0.00     0.015 A 
ENDROOT
BRANCH   7  13
HETATM   13  N   UNL     1       6.500  27.032  55.624  1.00  0.00    -0.283 NA
HETATM   14  H   UNL     1       5.614  27.539  55.700  1.00  0.00     0.128 HD
BRANCH  13  15
HETATM   15  C   UNL     1       7.608  27.999  55.767  1.00  0.00     0.195 C 
BRANCH  15  16
HETATM   16  C   UNL     1       7.774  28.362  57.249  1.00  0.00     0.231 C 
HETATM   17  N   UNL     1       7.786  29.718  57.503  1.00  0.00    -0.356 N 
HETATM   18  H   UNL     1       7.889  30.354  56.724  1.00  0.00     0.162 HD
HETATM   19  O   UNL     1       7.900  27.498  58.113  1.00  0.00    -0.272 OA
BRANCH  17  20
HETATM   20  C   UNL     1       8.077  30.254  58.827  1.00  0.00     0.076 C 
HETATM   21  C   UNL     1       9.540  30.685  58.915  1.00  0.00     0.032 C 
HETATM   22  C   UNL     1       7.150  31.430  59.118  1.00  0.00     0.032 C 
ENDBRANCH  17  20
ENDBRANCH  15  16
ENDBRANCH  13  15
ENDBRANCH   7  13
BRANCH   8  23
HETATM   23  C   UNL     1       5.165  27.977  53.201  1.00  0.00     0.014 C 
HETATM   24  C   UNL     1       5.697  28.790  52.019  1.00  0.00     0.015 C 
HETATM   25  C   UNL     1       3.632  27.929  53.200  1.00  0.00     0.015 C 
ENDBRANCH   8  23
TORSDOF 5
ENDMDL
MODEL 7
REMARK VINA RESULT:      -7.1      2.563      5.362
REMARK  5 active torsions:
REMARK  status: ('A' for Active; 'I' for Inactive)
REMARK    1  A    between atoms: C_7  and  N_8 
REMARK    2  A    between atoms: N_8  and  C_9 
REMARK    3  A    between atoms: C_9  and  C_10 
REMARK       I    between atoms: C_10  and  N_11 
REMARK    4  A    between atoms: N_11  and  C_12 
REMARK    5  A    between atoms: C_16  and  C_17 
ROOT
HETATM    1  C   UNL     1       5.470  27.368  51.094  1.00  0.00     0.068 C 
HETATM    2  C   UNL     1       5.760  26.462  52.252  1.00  0.00     0.014 A 
HETATM    3  N   UNL     1       6.548  25.403  51.997  1.00  0.00    -0.359 N 
HETATM    4  H   UNL     1       6.894  25.279  51.047  1.00  0.00     0.166 HD
HETATM    5  C   UNL     1       6.931  24.503  52.914  1.00  0.00     0.044 A 
HETATM    6  C   UNL     1       6.481  24.632  54.244  1.00  0.00     0.012 A 
HETATM    7  C   UNL     1       5.597  25.705  54.552  1.00  0.00     0.030 A 
HETATM    8  C   UNL     1       5.267  26.664  53.559  1.00  0.00    -0.010 A 
HETATM    9  C   UNL     1       7.773  23.445  52.532  1.00  0.00     0.030 A 
HETATM   10  C   UNL     1       8.200  22.510  53.470  1.00  0.00     0.002 A 
HETATM   11  C   UNL     1       7.799  22.633  54.793  1.00  0.00     0.001 A 
HETATM   12  C   UNL     1       6.956  23.681  55.177  1.00  0.00     0.015 A 
ENDROOT
BRANCH   7  13
HETATM   13  N   UNL     1       5.008  25.829  55.822  1.00  0.00    -0.283 NA
HETATM   14  H   UNL     1       4.279  26.548  55.852  1.00  0.00     0.128 HD
BRANCH  13  15
HETATM   15  C   UNL     1       5.943  26.062  56.941  1.00  0.00     0.195 C 
BRANCH  15  16
HETATM   16  C   UNL     1       6.237  27.564  57.051  1.00  0.00     0.231 C 
HETATM   17  N   UNL     1       7.549  27.907  56.797  1.00  0.00    -0.356 N 
HETATM   18  H   UNL     1       8.241  27.171  56.762  1.00  0.00     0.162 HD
HETATM   19  O   UNL     1       5.361  28.371  57.355  1.00  0.00    -0.272 OA
BRANCH  17  20
HETATM   20  C   UNL     1       8.046  29.263  56.991  1.00  0.00     0.076 C 
HETATM   21  C   UNL     1       8.264  29.540  58.479  1.00  0.00     0.032 C 
HETATM   22  C   UNL     1       9.344  29.449  56.212  1.00  0.00     0.032 C 
ENDBRANCH  17  20
ENDBRANCH  15  16
ENDBRANCH  13  15
ENDBRANCH   7  13
BRANCH   8  23
HETATM   23  C   UNL     1       4.403  27.899  53.849  1.00  0.00     0.014 C 
HETATM   24  C   UNL     1       5.244  29.172  53.960  1.00  0.00     0.015 C 
HETATM   25  C   UNL     1       3.211  28.099  52.905  1.00  0.00     0.015 C 
ENDBRANCH   8  23
TORSDOF 5
ENDMDL
MODEL 8
REMARK VINA RESULT:      -6.9      7.878     11.144
REMARK  5 active torsions:
REMARK  status: ('A' for Active; 'I' for Inactive)
REMARK    1  A    between atoms: C_7  and  N_8 
REMARK    2  A    between atoms: N_8  and  C_9 
REMARK    3  A    between atoms: C_9  and  C_10 
REMARK       I    between atoms: C_10  and  N_11 
REMARK    4  A    between atoms: N_11  and  C_12 
REMARK    5  A    between atoms: C_16  and  C_17 
ROOT
HETATM    1  C   UNL     1       3.501  34.156  59.498  1.00  0.00     0.068 C 
HETATM    2  C   UNL     1       4.666  33.593  60.257  1.00  0.00     0.014 A 
HETATM    3  N   UNL     1       4.913  34.140  61.459  1.00  0.00    -0.359 N 
HETATM    4  H   UNL     1       4.307  34.894  61.779  1.00  0.00     0.166 HD
HETATM    5  C   UNL     1       5.896  33.749  62.284  1.00  0.00     0.044 A 
HETATM    6  C   UNL     1       6.759  32.707  61.890  1.00  0.00     0.012 A 
HETATM    7  C   UNL     1       6.574  32.134  60.600  1.00  0.00     0.030 A 
HETATM    8  C   UNL     1       5.485  32.545  59.787  1.00  0.00    -0.010 A 
HETATM    9  C   UNL     1       6.046  34.386  63.528  1.00  0.00     0.030 A 
HETATM   10  C   UNL     1       7.046  33.984  64.409  1.00  0.00     0.002 A 
HETATM   11  C   UNL     1       7.889  32.938  64.059  1.00  0.00     0.001 A 
HETATM   12  C   UNL     1       7.746  32.305  62.820  1.00  0.00     0.015 A 
ENDROOT
BRANCH   7  13
HETATM   13  N   UNL     1       7.469  31.180  60.085  1.00  0.00    -0.283 NA
HETATM   14  H   UNL     1       7.729  30.468  60.774  1.00  0.00     0.128 HD
BRANCH  13  15
HETATM   15  C   UNL     1       8.703  31.720  59.480  1.00  0.00     0.195 C 
BRANCH  15  16
HETATM   16  C   UNL     1       9.195  30.759  58.390  1.00  0.00     0.231 C 
HETATM   17  N   UNL     1       8.300  29.760  58.067  1.00  0.00    -0.356 N 
HETATM   18  H   UNL     1       7.509  29.606  58.678  1.00  0.00     0.162 HD
HETATM   19  O   UNL     1      10.304  30.882  57.875  1.00  0.00    -0.272 OA
BRANCH  17  20
HETATM   20  C   UNL     1       8.647  28.673  57.160  1.00  0.00     0.076 C 
HETATM   21  C   UNL     1       7.877  27.407  57.532  1.00  0.00     0.032 C 
HETATM   22  C   UNL     1       8.342  29.088  55.724  1.00  0.00     0.032 C 
ENDBRANCH  17  20
ENDBRANCH  15  16
ENDBRANCH  13  15
ENDBRANCH   7  13
BRANCH   8  23
HETATM   23  C   UNL     1       5.168  31.898  58.431  1.00  0.00     0.014 C 
HETATM   24  C   UNL     1       3.874  31.083  58.475  1.00  0.00     0.015 C 
HETATM   25  C   UNL     1       5.183  32.854  57.232  1.00  0.00     0.015 C 
ENDBRANCH   8  23
TORSDOF 5
ENDMDL
MODEL 9
REMARK VINA RESULT:      -6.9      3.895      6.852
REMARK  5 active torsions:
REMARK  status: ('A' for Active; 'I' for Inactive)
REMARK    1  A    between atoms: C_7  and  N_8 
REMARK    2  A    between atoms: N_8  and  C_9 
REMARK    3  A    between atoms: C_9  and  C_10 
REMARK       I    between atoms: C_10  and  N_11 
REMARK    4  A    between atoms: N_11  and  C_12 
REMARK    5  A    between atoms: C_16  and  C_17 
ROOT
HETATM    1  C   UNL     1       2.676  28.582  52.268  1.00  0.00     0.068 C 
HETATM    2  C   UNL     1       3.889  28.109  53.013  1.00  0.00     0.014 A 
HETATM    3  N   UNL     1       4.163  26.796  52.932  1.00  0.00    -0.359 N 
HETATM    4  H   UNL     1       3.540  26.208  52.381  1.00  0.00     0.166 HD
HETATM    5  C   UNL     1       5.217  26.202  53.511  1.00  0.00     0.044 A 
HETATM    6  C   UNL     1       6.110  26.974  54.282  1.00  0.00     0.012 A 
HETATM    7  C   UNL     1       5.831  28.360  54.446  1.00  0.00     0.030 A 
HETATM    8  C   UNL     1       4.735  28.951  53.765  1.00  0.00    -0.010 A 
HETATM    9  C   UNL     1       5.410  24.821  53.340  1.00  0.00     0.030 A 
HETATM   10  C   UNL     1       6.507  24.187  53.916  1.00  0.00     0.002 A 
HETATM   11  C   UNL     1       7.420  24.929  54.652  1.00  0.00     0.001 A 
HETATM   12  C   UNL     1       7.229  26.303  54.829  1.00  0.00     0.015 A 
ENDROOT
BRANCH   7  13
HETATM   13  N   UNL     1       6.603  29.169  55.298  1.00  0.00    -0.283 NA
HETATM   14  H   UNL     1       7.610  29.040  55.162  1.00  0.00     0.128 HD
BRANCH  13  15
HETATM   15  C   UNL     1       6.305  29.045  56.740  1.00  0.00     0.195 C 
BRANCH  15  16
HETATM   16  C   UNL     1       7.622  28.948  57.522  1.00  0.00     0.231 C 
HETATM   17  N   UNL     1       8.415  30.074  57.440  1.00  0.00    -0.356 N 
HETATM   18  H   UNL     1       8.192  30.772  56.743  1.00  0.00     0.162 HD
HETATM   19  O   UNL     1       7.927  27.935  58.147  1.00  0.00    -0.272 OA
BRANCH  17  20
HETATM   20  C   UNL     1       9.761  30.115  57.997  1.00  0.00     0.076 C 
HETATM   21  C   UNL     1      10.782  29.672  56.949  1.00  0.00     0.032 C 
HETATM   22  C   UNL     1      10.070  31.526  58.489  1.00  0.00     0.032 C 
ENDBRANCH  17  20
ENDBRANCH  15  16
ENDBRANCH  13  15
ENDBRANCH   7  13
BRANCH   8  23
HETATM   23  C   UNL     1       4.437  30.457  53.816  1.00  0.00     0.014 C 
HETATM   24  C   UNL     1       4.240  31.049  52.420  1.00  0.00     0.015 C 
HETATM   25  C   UNL     1       3.300  30.866  54.761  1.00  0.00     0.015 C 
ENDBRANCH   8  23
TORSDOF 5
ENDMDL
MODEL 10
REMARK VINA RESULT:      -6.8     10.342     13.654
REMARK  5 active torsions:
REMARK  status: ('A' for Active; 'I' for Inactive)
REMARK    1  A    between atoms: C_7  and  N_8 
REMARK    2  A    between atoms: N_8  and  C_9 
REMARK    3  A    between atoms: C_9  and  C_10 
REMARK       I    between atoms: C_10  and  N_11 
REMARK    4  A    between atoms: N_11  and  C_12 
REMARK    5  A    between atoms: C_16  and  C_17 
ROOT
HETATM    1  C   UNL     1       4.075  32.734  58.407  1.00  0.00     0.068 C 
HETATM    2  C   UNL     1       5.109  32.642  59.490  1.00  0.00     0.014 A 
HETATM    3  N   UNL     1       6.160  31.842  59.242  1.00  0.00    -0.359 N 
HETATM    4  H   UNL     1       6.192  31.351  58.350  1.00  0.00     0.166 HD
HETATM    5  C   UNL     1       7.189  31.657  60.083  1.00  0.00     0.044 A 
HETATM    6  C   UNL     1       7.194  32.317  61.329  1.00  0.00     0.012 A 
HETATM    7  C   UNL     1       6.074  33.130  61.662  1.00  0.00     0.030 A 
HETATM    8  C   UNL     1       5.037  33.338  60.714  1.00  0.00    -0.010 A 
HETATM    9  C   UNL     1       8.243  30.808  59.706  1.00  0.00     0.030 A 
HETATM   10  C   UNL     1       9.330  30.616  60.553  1.00  0.00     0.002 A 
HETATM   11  C   UNL     1       9.376  31.279  61.772  1.00  0.00     0.001 A 
HETATM   12  C   UNL     1       8.327  32.122  62.153  1.00  0.00     0.015 A 
ENDROOT
BRANCH   7  13
HETATM   13  N   UNL     1       5.947  33.720  62.932  1.00  0.00    -0.283 NA
HETATM   14  H   UNL     1       6.770  34.267  63.198  1.00  0.00     0.128 HD
BRANCH  13  15
HETATM   15  C   UNL     1       5.619  32.796  64.036  1.00  0.00     0.195 C 
BRANCH  15  16
HETATM   16  C   UNL     1       4.912  33.574  65.154  1.00  0.00     0.231 C 
HETATM   17  N   UNL     1       5.728  33.912  66.214  1.00  0.00    -0.356 N 
HETATM   18  H   UNL     1       6.636  33.472  66.284  1.00  0.00     0.162 HD
HETATM   19  O   UNL     1       3.716  33.846  65.091  1.00  0.00    -0.272 OA
BRANCH  17  20
HETATM   20  C   UNL     1       5.204  34.525  67.429  1.00  0.00     0.076 C 
HETATM   21  C   UNL     1       6.260  34.498  68.533  1.00  0.00     0.032 C 
HETATM   22  C   UNL     1       4.769  35.957  67.133  1.00  0.00     0.032 C 
ENDBRANCH  17  20
ENDBRANCH  15  16
ENDBRANCH  13  15
ENDBRANCH   7  13
BRANCH   8  23
HETATM   23  C   UNL     1       3.854  34.283  60.970  1.00  0.00     0.014 C 
HETATM   24  C   UNL     1       2.765  33.620  61.815  1.00  0.00     0.015 C 
HETATM   25  C   UNL     1       4.228  35.663  61.526  1.00  0.00     0.015 C 
ENDBRANCH   8  23
TORSDOF 5
ENDMDL
