MODEL 1
REMARK VINA RESULT:      -9.9      0.000      0.000
REMARK  8 active torsions:
REMARK  status: ('A' for Active; 'I' for Inactive)
REMARK    1  A    between atoms: C_2  and  N_3 
REMARK    2  A    between atoms: C_2  and  C_36 
REMARK       I    between atoms: N_3  and  C_4 
REMARK    3  A    between atoms: C_4  and  C_5 
REMARK    4  A    between atoms: C_5  and  N_6 
REMARK       I    between atoms: N_12  and  C_13 
REMARK    5  A    between atoms: C_13  and  C_14 
REMARK    6  A    between atoms: C_15  and  O_16 
REMARK    7  A    between atoms: C_21  and  O_22 
REMARK    8  A    between atoms: N_27  and  C_28 
ROOT
HETATM    1  N   UNL     1       4.161  31.033  58.883  1.00  0.00    -0.325 N 
HETATM    2  C   UNL     1       3.979  30.533  57.608  1.00  0.00     0.250 C 
HETATM    3  O   UNL     1       2.902  30.400  57.045  1.00  0.00    -0.270 OA
HETATM    4  C   UNL     1       5.361  30.103  57.073  1.00  0.00     0.118 C 
HETATM    5  C   UNL     1       5.541  30.670  55.653  1.00  0.00     0.061 C 
HETATM    6  C   UNL     1       4.946  29.773  54.576  1.00  0.00     0.129 C 
HETATM    7  N   UNL     1       5.289  28.378  54.804  1.00  0.00    -0.348 N 
HETATM    8  C   UNL     1       6.361  27.818  54.098  1.00  0.00     0.259 C 
HETATM    9  O   UNL     1       7.089  28.468  53.351  1.00  0.00    -0.267 OA
HETATM   10  C   UNL     1       4.755  27.843  56.047  1.00  0.00     0.129 C 
HETATM   11  C   UNL     1       5.400  28.565  57.228  1.00  0.00     0.061 C 
HETATM   12  N   UNL     1       6.277  30.760  58.049  1.00  0.00    -0.346 N 
HETATM   13  C   UNL     1       5.540  31.260  59.200  1.00  0.00     0.254 C 
ENDROOT
BRANCH  12  14
HETATM   14  C   UNL     1       7.661  30.748  58.061  1.00  0.00     0.032 A 
HETATM   15  C   UNL     1       8.431  29.888  57.260  1.00  0.00     0.029 A 
HETATM   16  C   UNL     1       9.833  29.900  57.267  1.00  0.00     0.002 A 
HETATM   17  C   UNL     1      10.520  30.784  58.086  1.00  0.00     0.000 A 
HETATM   18  C   UNL     1       9.801  31.651  58.894  1.00  0.00     0.002 A 
HETATM   19  C   UNL     1       8.399  31.628  58.877  1.00  0.00     0.029 A 
ENDBRANCH  12  14
BRANCH   1  20
HETATM   20  C   UNL     1       3.082  31.604  59.675  1.00  0.00     0.230 C 
BRANCH  20  21
HETATM   21  C   UNL     1       3.445  32.899  60.421  1.00  0.00     0.236 C 
HETATM   22  N   UNL     1       3.594  32.759  61.785  1.00  0.00    -0.351 N 
HETATM   23  H   UNL     1       3.256  31.919  62.236  1.00  0.00     0.163 HD
HETATM   24  O   UNL     1       3.551  33.986  59.858  1.00  0.00    -0.272 OA
BRANCH  22  25
HETATM   25  C   UNL     1       3.866  33.919  62.632  1.00  0.00     0.113 C 
HETATM   26  C   UNL     1       2.628  34.190  63.499  1.00  0.00     0.037 C 
BRANCH  25  27
HETATM   27  C   UNL     1       5.148  33.766  63.448  1.00  0.00    -0.036 A 
HETATM   28  C   UNL     1       5.192  34.027  64.830  1.00  0.00     0.009 A 
HETATM   29  C   UNL     1       6.370  33.851  65.563  1.00  0.00     0.001 A 
HETATM   30  C   UNL     1       7.522  33.386  64.936  1.00  0.00     0.000 A 
HETATM   31  C   UNL     1       7.494  33.085  63.579  1.00  0.00     0.001 A 
HETATM   32  C   UNL     1       6.316  33.265  62.846  1.00  0.00     0.009 A 
ENDBRANCH  25  27
ENDBRANCH  22  25
ENDBRANCH  20  21
ENDBRANCH   1  20
BRANCH   8  33
HETATM   33  C   UNL     1       6.553  26.349  54.159  1.00  0.00     0.098 A 
HETATM   34  C   UNL     1       7.424  25.833  55.133  1.00  0.00     0.086 A 
HETATM   35  C   UNL     1       7.626  24.457  55.239  1.00  0.00     0.038 A 
HETATM   36  C   UNL     1       6.982  23.593  54.359  1.00  0.00     0.005 A 
HETATM   37  C   UNL     1       6.103  24.098  53.396  1.00  0.00     0.038 A 
HETATM   38  C   UNL     1       5.866  25.476  53.296  1.00  0.00     0.086 A 
BRANCH  34  39
HETATM   39  O   UNL     1       8.004  26.632  56.084  1.00  0.00    -0.355 OA
HETATM   40  C   UNL     1       8.059  25.974  57.347  1.00  0.00     0.210 C 
ENDBRANCH  34  39
BRANCH  38  41
HETATM   41  O   UNL     1       4.986  26.036  52.411  1.00  0.00    -0.355 OA
HETATM   42  C   UNL     1       5.309  25.982  51.026  1.00  0.00     0.210 C 
ENDBRANCH  38  41
ENDBRANCH   8  33
TORSDOF 8
ENDMDL
MODEL 2
REMARK VINA RESULT:      -9.8      0.193      2.141
REMARK  8 active torsions:
REMARK  status: ('A' for Active; 'I' for Inactive)
REMARK    1  A    between atoms: C_2  and  N_3 
REMARK    2  A    between atoms: C_2  and  C_36 
REMARK       I    between atoms: N_3  and  C_4 
REMARK    3  A    between atoms: C_4  and  C_5 
REMARK    4  A    between atoms: C_5  and  N_6 
REMARK       I    between atoms: N_12  and  C_13 
REMARK    5  A    between atoms: C_13  and  C_14 
REMARK    6  A    between atoms: C_15  and  O_16 
REMARK    7  A    between atoms: C_21  and  O_22 
REMARK    8  A    between atoms: N_27  and  C_28 
ROOT
HETATM    1  N   UNL     1       4.135  31.179  58.961  1.00  0.00    -0.325 N 
HETATM    2  C   UNL     1       3.931  30.687  57.687  1.00  0.00     0.250 C 
HETATM    3  O   UNL     1       2.845  30.567  57.137  1.00  0.00    -0.270 OA
HETATM    4  C   UNL     1       5.302  30.248  57.130  1.00  0.00     0.118 C 
HETATM    5  C   UNL     1       5.467  30.823  55.710  1.00  0.00     0.061 C 
HETATM    6  C   UNL     1       4.849  29.937  54.637  1.00  0.00     0.129 C 
HETATM    7  N   UNL     1       5.184  28.538  54.852  1.00  0.00    -0.348 N 
HETATM    8  C   UNL     1       6.241  27.972  54.128  1.00  0.00     0.259 C 
HETATM    9  O   UNL     1       6.964  28.621  53.375  1.00  0.00    -0.267 OA
HETATM   10  C   UNL     1       4.662  27.999  56.100  1.00  0.00     0.129 C 
HETATM   11  C   UNL     1       5.330  28.710  57.276  1.00  0.00     0.061 C 
HETATM   12  N   UNL     1       6.237  30.892  58.096  1.00  0.00    -0.346 N 
HETATM   13  C   UNL     1       5.520  31.392  59.260  1.00  0.00     0.254 C 
ENDROOT
BRANCH  12  14
HETATM   14  C   UNL     1       7.621  30.869  58.089  1.00  0.00     0.032 A 
HETATM   15  C   UNL     1       8.409  31.691  58.913  1.00  0.00     0.029 A 
HETATM   16  C   UNL     1       9.810  31.643  58.911  1.00  0.00     0.002 A 
HETATM   17  C   UNL     1      10.478  30.760  58.076  1.00  0.00     0.000 A 
HETATM   18  C   UNL     1       9.741  29.929  57.246  1.00  0.00     0.002 A 
HETATM   19  C   UNL     1       8.339  29.988  57.258  1.00  0.00     0.029 A 
ENDBRANCH  12  14
BRANCH   1  20
HETATM   20  C   UNL     1       3.072  31.754  59.772  1.00  0.00     0.230 C 
BRANCH  20  21
HETATM   21  C   UNL     1       3.469  33.018  60.552  1.00  0.00     0.236 C 
HETATM   22  N   UNL     1       3.537  32.856  61.921  1.00  0.00    -0.351 N 
HETATM   23  H   UNL     1       3.128  32.032  62.342  1.00  0.00     0.163 HD
HETATM   24  O   UNL     1       3.666  34.102  60.010  1.00  0.00    -0.272 OA
BRANCH  22  25
HETATM   25  C   UNL     1       3.829  33.990  62.796  1.00  0.00     0.113 C 
HETATM   26  C   UNL     1       2.618  34.224  63.711  1.00  0.00     0.037 C 
BRANCH  25  27
HETATM   27  C   UNL     1       5.138  33.818  63.565  1.00  0.00    -0.036 A 
HETATM   28  C   UNL     1       5.234  34.072  64.945  1.00  0.00     0.009 A 
HETATM   29  C   UNL     1       6.436  33.880  65.634  1.00  0.00     0.001 A 
HETATM   30  C   UNL     1       7.560  33.406  64.964  1.00  0.00     0.000 A 
HETATM   31  C   UNL     1       7.480  33.113  63.607  1.00  0.00     0.001 A 
HETATM   32  C   UNL     1       6.279  33.309  62.919  1.00  0.00     0.009 A 
ENDBRANCH  25  27
ENDBRANCH  22  25
ENDBRANCH  20  21
ENDBRANCH   1  20
BRANCH   8  33
HETATM   33  C   UNL     1       6.421  26.501  54.178  1.00  0.00     0.098 A 
HETATM   34  C   UNL     1       5.714  25.715  53.254  1.00  0.00     0.086 A 
HETATM   35  C   UNL     1       5.861  24.328  53.252  1.00  0.00     0.038 A 
HETATM   36  C   UNL     1       6.691  23.718  54.187  1.00  0.00     0.005 A 
HETATM   37  C   UNL     1       7.408  24.496  55.102  1.00  0.00     0.038 A 
HETATM   38  C   UNL     1       7.295  25.893  55.097  1.00  0.00     0.086 A 
BRANCH  34  39
HETATM   39  O   UNL     1       4.962  26.272  52.252  1.00  0.00    -0.355 OA
HETATM   40  C   UNL     1       5.522  25.993  50.971  1.00  0.00     0.210 C 
ENDBRANCH  34  39
BRANCH  38  41
HETATM   41  O   UNL     1       8.000  26.718  55.929  1.00  0.00    -0.355 OA
HETATM   42  C   UNL     1       8.186  26.303  57.277  1.00  0.00     0.210 C 
ENDBRANCH  38  41
ENDBRANCH   8  33
TORSDOF 8
ENDMDL
MODEL 3
REMARK VINA RESULT:      -9.3      6.227     10.503
REMARK  8 active torsions:
REMARK  status: ('A' for Active; 'I' for Inactive)
REMARK    1  A    between atoms: C_2  and  N_3 
REMARK    2  A    between atoms: C_2  and  C_36 
REMARK       I    between atoms: N_3  and  C_4 
REMARK    3  A    between atoms: C_4  and  C_5 
REMARK    4  A    between atoms: C_5  and  N_6 
REMARK       I    between atoms: N_12  and  C_13 
REMARK    5  A    between atoms: C_13  and  C_14 
REMARK    6  A    between atoms: C_15  and  O_16 
REMARK    7  A    between atoms: C_21  and  O_22 
REMARK    8  A    between atoms: N_27  and  C_28 
ROOT
HETATM    1  N   UNL     1       4.889  26.516  51.691  1.00  0.00    -0.325 N 
HETATM    2  C   UNL     1       4.554  26.985  50.437  1.00  0.00     0.250 C 
HETATM    3  O   UNL     1       4.586  26.333  49.402  1.00  0.00    -0.270 OA
HETATM    4  C   UNL     1       4.219  28.485  50.572  1.00  0.00     0.118 C 
HETATM    5  C   UNL     1       2.892  28.765  49.840  1.00  0.00     0.061 C 
HETATM    6  C   UNL     1       3.080  29.034  48.353  1.00  0.00     0.129 C 
HETATM    7  N   UNL     1       4.194  29.939  48.119  1.00  0.00    -0.348 N 
HETATM    8  C   UNL     1       3.933  31.300  47.912  1.00  0.00     0.259 C 
HETATM    9  O   UNL     1       2.810  31.791  48.001  1.00  0.00    -0.267 OA
HETATM   10  C   UNL     1       5.479  29.405  48.548  1.00  0.00     0.129 C 
HETATM   11  C   UNL     1       5.473  29.234  50.066  1.00  0.00     0.061 C 
HETATM   12  N   UNL     1       4.073  28.627  52.048  1.00  0.00    -0.346 N 
HETATM   13  C   UNL     1       4.563  27.441  52.736  1.00  0.00     0.254 C 
ENDROOT
BRANCH  12  14
HETATM   14  C   UNL     1       3.745  29.763  52.769  1.00  0.00     0.032 A 
HETATM   15  C   UNL     1       3.391  30.981  52.165  1.00  0.00     0.029 A 
HETATM   16  C   UNL     1       3.042  32.119  52.907  1.00  0.00     0.002 A 
HETATM   17  C   UNL     1       3.034  32.075  54.293  1.00  0.00     0.000 A 
HETATM   18  C   UNL     1       3.377  30.893  54.931  1.00  0.00     0.002 A 
HETATM   19  C   UNL     1       3.725  29.762  54.178  1.00  0.00     0.029 A 
ENDBRANCH  12  14
BRANCH   1  20
HETATM   20  C   UNL     1       5.196  25.120  51.964  1.00  0.00     0.230 C 
BRANCH  20  21
HETATM   21  C   UNL     1       6.599  24.869  52.538  1.00  0.00     0.236 C 
HETATM   22  N   UNL     1       6.619  24.382  53.829  1.00  0.00    -0.351 N 
HETATM   23  H   UNL     1       5.776  24.427  54.386  1.00  0.00     0.163 HD
HETATM   24  O   UNL     1       7.629  25.122  51.917  1.00  0.00    -0.272 OA
BRANCH  22  25
HETATM   25  C   UNL     1       7.884  24.167  54.529  1.00  0.00     0.113 C 
HETATM   26  C   UNL     1       7.824  24.897  55.879  1.00  0.00     0.037 C 
BRANCH  25  27
HETATM   27  C   UNL     1       8.237  22.687  54.664  1.00  0.00    -0.036 A 
HETATM   28  C   UNL     1       8.415  22.070  55.915  1.00  0.00     0.009 A 
HETATM   29  C   UNL     1       8.710  20.706  56.015  1.00  0.00     0.001 A 
HETATM   30  C   UNL     1       8.808  19.925  54.868  1.00  0.00     0.000 A 
HETATM   31  C   UNL     1       8.600  20.504  53.621  1.00  0.00     0.001 A 
HETATM   32  C   UNL     1       8.309  21.868  53.522  1.00  0.00     0.009 A 
ENDBRANCH  25  27
ENDBRANCH  22  25
ENDBRANCH  20  21
ENDBRANCH   1  20
BRANCH   8  33
HETATM   33  C   UNL     1       5.042  32.166  47.444  1.00  0.00     0.098 A 
HETATM   34  C   UNL     1       5.780  32.876  48.405  1.00  0.00     0.086 A 
HETATM   35  C   UNL     1       6.841  33.693  48.015  1.00  0.00     0.038 A 
HETATM   36  C   UNL     1       7.153  33.826  46.666  1.00  0.00     0.005 A 
HETATM   37  C   UNL     1       6.431  33.111  45.705  1.00  0.00     0.038 A 
HETATM   38  C   UNL     1       5.382  32.263  46.082  1.00  0.00     0.086 A 
BRANCH  34  39
HETATM   39  O   UNL     1       5.576  32.704  49.750  1.00  0.00    -0.355 OA
HETATM   40  C   UNL     1       5.746  33.930  50.458  1.00  0.00     0.210 C 
ENDBRANCH  34  39
BRANCH  38  41
HETATM   41  O   UNL     1       4.663  31.499  45.204  1.00  0.00    -0.355 OA
HETATM   42  C   UNL     1       3.920  32.169  44.193  1.00  0.00     0.210 C 
ENDBRANCH  38  41
ENDBRANCH   8  33
TORSDOF 8
ENDMDL
MODEL 4
REMARK VINA RESULT:      -9.2      6.197     10.729
REMARK  8 active torsions:
REMARK  status: ('A' for Active; 'I' for Inactive)
REMARK    1  A    between atoms: C_2  and  N_3 
REMARK    2  A    between atoms: C_2  and  C_36 
REMARK       I    between atoms: N_3  and  C_4 
REMARK    3  A    between atoms: C_4  and  C_5 
REMARK    4  A    between atoms: C_5  and  N_6 
REMARK       I    between atoms: N_12  and  C_13 
REMARK    5  A    between atoms: C_13  and  C_14 
REMARK    6  A    between atoms: C_15  and  O_16 
REMARK    7  A    between atoms: C_21  and  O_22 
REMARK    8  A    between atoms: N_27  and  C_28 
ROOT
HETATM    1  N   UNL     1       4.838  26.622  51.637  1.00  0.00    -0.325 N 
HETATM    2  C   UNL     1       4.554  27.154  50.394  1.00  0.00     0.250 C 
HETATM    3  O   UNL     1       4.588  26.542  49.336  1.00  0.00    -0.270 OA
HETATM    4  C   UNL     1       4.273  28.659  50.583  1.00  0.00     0.118 C 
HETATM    5  C   UNL     1       2.978  29.020  49.831  1.00  0.00     0.061 C 
HETATM    6  C   UNL     1       3.215  29.340  48.361  1.00  0.00     0.129 C 
HETATM    7  N   UNL     1       4.369  30.210  48.192  1.00  0.00    -0.348 N 
HETATM    8  C   UNL     1       4.166  31.587  48.035  1.00  0.00     0.259 C 
HETATM    9  O   UNL     1       3.060  32.118  48.116  1.00  0.00    -0.267 OA
HETATM   10  C   UNL     1       5.620  29.609  48.631  1.00  0.00     0.129 C 
HETATM   11  C   UNL     1       5.568  29.377  50.140  1.00  0.00     0.061 C 
HETATM   12  N   UNL     1       4.094  28.747  52.060  1.00  0.00    -0.346 N 
HETATM   13  C   UNL     1       4.520  27.516  52.710  1.00  0.00     0.254 C 
ENDROOT
BRANCH  12  14
HETATM   14  C   UNL     1       3.791  29.865  52.818  1.00  0.00     0.032 A 
HETATM   15  C   UNL     1       3.529  31.127  52.258  1.00  0.00     0.029 A 
HETATM   16  C   UNL     1       3.203  32.246  53.036  1.00  0.00     0.002 A 
HETATM   17  C   UNL     1       3.128  32.141  54.417  1.00  0.00     0.000 A 
HETATM   18  C   UNL     1       3.379  30.914  55.013  1.00  0.00     0.002 A 
HETATM   19  C   UNL     1       3.704  29.802  54.223  1.00  0.00     0.029 A 
ENDBRANCH  12  14
BRANCH   1  20
HETATM   20  C   UNL     1       5.084  25.205  51.859  1.00  0.00     0.230 C 
BRANCH  20  21
HETATM   21  C   UNL     1       6.463  24.876  52.452  1.00  0.00     0.236 C 
HETATM   22  N   UNL     1       6.441  24.411  53.751  1.00  0.00    -0.351 N 
HETATM   23  H   UNL     1       5.597  24.519  54.299  1.00  0.00     0.163 HD
HETATM   24  O   UNL     1       7.513  25.053  51.838  1.00  0.00    -0.272 OA
BRANCH  22  25
HETATM   25  C   UNL     1       7.682  24.128  54.468  1.00  0.00     0.113 C 
HETATM   26  C   UNL     1       7.603  24.779  55.856  1.00  0.00     0.037 C 
BRANCH  25  27
HETATM   27  C   UNL     1       8.003  22.636  54.523  1.00  0.00    -0.036 A 
HETATM   28  C   UNL     1       8.277  21.885  53.366  1.00  0.00     0.009 A 
HETATM   29  C   UNL     1       8.597  20.525  53.443  1.00  0.00     0.001 A 
HETATM   30  C   UNL     1       8.676  19.894  54.681  1.00  0.00     0.000 A 
HETATM   31  C   UNL     1       8.447  20.624  55.842  1.00  0.00     0.001 A 
HETATM   32  C   UNL     1       8.123  21.982  55.763  1.00  0.00     0.009 A 
ENDBRANCH  25  27
ENDBRANCH  22  25
ENDBRANCH  20  21
ENDBRANCH   1  20
BRANCH   8  33
HETATM   33  C   UNL     1       5.318  32.427  47.630  1.00  0.00     0.098 A 
HETATM   34  C   UNL     1       5.576  32.583  46.258  1.00  0.00     0.086 A 
HETATM   35  C   UNL     1       6.640  33.375  45.827  1.00  0.00     0.038 A 
HETATM   36  C   UNL     1       7.467  33.991  46.761  1.00  0.00     0.005 A 
HETATM   37  C   UNL     1       7.208  33.851  48.128  1.00  0.00     0.038 A 
HETATM   38  C   UNL     1       6.125  33.084  48.577  1.00  0.00     0.086 A 
BRANCH  34  39
HETATM   39  O   UNL     1       4.736  32.078  45.299  1.00  0.00    -0.355 OA
HETATM   40  C   UNL     1       4.586  32.989  44.213  1.00  0.00     0.210 C 
ENDBRANCH  34  39
BRANCH  38  41
HETATM   41  O   UNL     1       5.785  32.940  49.894  1.00  0.00    -0.355 OA
HETATM   42  C   UNL     1       5.677  34.118  50.685  1.00  0.00     0.210 C 
ENDBRANCH  38  41
ENDBRANCH   8  33
TORSDOF 8
ENDMDL
MODEL 5
REMARK VINA RESULT:      -8.8      3.125      9.381
REMARK  8 active torsions:
REMARK  status: ('A' for Active; 'I' for Inactive)
REMARK    1  A    between atoms: C_2  and  N_3 
REMARK    2  A    between atoms: C_2  and  C_36 
REMARK       I    between atoms: N_3  and  C_4 
REMARK    3  A    between atoms: C_4  and  C_5 
REMARK    4  A    between atoms: C_5  and  N_6 
REMARK       I    between atoms: N_12  and  C_13 
REMARK    5  A    between atoms: C_13  and  C_14 
REMARK    6  A    between atoms: C_15  and  O_16 
REMARK    7  A    between atoms: C_21  and  O_22 
REMARK    8  A    between atoms: N_27  and  C_28 
ROOT
HETATM    1  N   UNL     1       4.007  33.370  56.523  1.00  0.00    -0.325 N 
HETATM    2  C   UNL     1       3.495  33.367  57.805  1.00  0.00     0.250 C 
HETATM    3  O   UNL     1       2.595  34.089  58.212  1.00  0.00    -0.270 OA
HETATM    4  C   UNL     1       4.315  32.358  58.635  1.00  0.00     0.118 C 
HETATM    5  C   UNL     1       3.344  31.447  59.409  1.00  0.00     0.061 C 
HETATM    6  C   UNL     1       2.904  32.044  60.739  1.00  0.00     0.129 C 
HETATM    7  N   UNL     1       4.033  32.611  61.460  1.00  0.00    -0.348 N 
HETATM    8  C   UNL     1       4.642  31.856  62.471  1.00  0.00     0.259 C 
HETATM    9  O   UNL     1       4.327  30.697  62.728  1.00  0.00    -0.267 OA
HETATM   10  C   UNL     1       4.670  33.721  60.767  1.00  0.00     0.129 C 
HETATM   11  C   UNL     1       5.296  33.213  59.469  1.00  0.00     0.061 C 
HETATM   12  N   UNL     1       5.037  31.609  57.566  1.00  0.00    -0.346 N 
HETATM   13  C   UNL     1       4.910  32.283  56.282  1.00  0.00     0.254 C 
ENDROOT
BRANCH  12  14
HETATM   14  C   UNL     1       5.915  30.549  57.711  1.00  0.00     0.032 A 
HETATM   15  C   UNL     1       7.167  30.667  58.338  1.00  0.00     0.029 A 
HETATM   16  C   UNL     1       8.038  29.580  58.497  1.00  0.00     0.002 A 
HETATM   17  C   UNL     1       7.682  28.324  58.028  1.00  0.00     0.000 A 
HETATM   18  C   UNL     1       6.456  28.161  57.402  1.00  0.00     0.002 A 
HETATM   19  C   UNL     1       5.593  29.257  57.250  1.00  0.00     0.029 A 
ENDBRANCH  12  14
BRANCH   1  20
HETATM   20  C   UNL     1       3.434  34.152  55.438  1.00  0.00     0.230 C 
BRANCH  20  21
HETATM   21  C   UNL     1       2.698  33.330  54.368  1.00  0.00     0.236 C 
HETATM   22  N   UNL     1       3.516  32.730  53.433  1.00  0.00    -0.351 N 
HETATM   23  H   UNL     1       4.481  33.026  53.359  1.00  0.00     0.163 HD
HETATM   24  O   UNL     1       1.473  33.245  54.317  1.00  0.00    -0.272 OA
BRANCH  22  25
HETATM   25  C   UNL     1       2.951  31.979  52.314  1.00  0.00     0.113 C 
HETATM   26  C   UNL     1       3.251  32.740  51.014  1.00  0.00     0.037 C 
BRANCH  25  27
HETATM   27  C   UNL     1       3.424  30.527  52.281  1.00  0.00    -0.036 A 
HETATM   28  C   UNL     1       3.849  29.904  51.094  1.00  0.00     0.009 A 
HETATM   29  C   UNL     1       4.306  28.582  51.092  1.00  0.00     0.001 A 
HETATM   30  C   UNL     1       4.372  27.863  52.282  1.00  0.00     0.000 A 
HETATM   31  C   UNL     1       3.992  28.469  53.474  1.00  0.00     0.001 A 
HETATM   32  C   UNL     1       3.532  29.789  53.474  1.00  0.00     0.009 A 
ENDBRANCH  25  27
ENDBRANCH  22  25
ENDBRANCH  20  21
ENDBRANCH   1  20
BRANCH   8  33
HETATM   33  C   UNL     1       5.629  32.526  63.352  1.00  0.00     0.098 A 
HETATM   34  C   UNL     1       6.994  32.362  63.065  1.00  0.00     0.086 A 
HETATM   35  C   UNL     1       7.960  32.983  63.856  1.00  0.00     0.038 A 
HETATM   36  C   UNL     1       7.570  33.749  64.951  1.00  0.00     0.005 A 
HETATM   37  C   UNL     1       6.213  33.928  65.234  1.00  0.00     0.038 A 
HETATM   38  C   UNL     1       5.229  33.335  64.431  1.00  0.00     0.086 A 
BRANCH  34  39
HETATM   39  O   UNL     1       7.426  31.700  61.944  1.00  0.00    -0.355 OA
HETATM   40  C   UNL     1       8.554  30.878  62.233  1.00  0.00     0.210 C 
ENDBRANCH  34  39
BRANCH  38  41
HETATM   41  O   UNL     1       3.885  33.504  64.621  1.00  0.00    -0.355 OA
HETATM   42  C   UNL     1       3.455  34.637  65.366  1.00  0.00     0.210 C 
ENDBRANCH  38  41
ENDBRANCH   8  33
TORSDOF 8
ENDMDL
MODEL 6
REMARK VINA RESULT:      -8.8      3.132      9.330
REMARK  8 active torsions:
REMARK  status: ('A' for Active; 'I' for Inactive)
REMARK    1  A    between atoms: C_2  and  N_3 
REMARK    2  A    between atoms: C_2  and  C_36 
REMARK       I    between atoms: N_3  and  C_4 
REMARK    3  A    between atoms: C_4  and  C_5 
REMARK    4  A    between atoms: C_5  and  N_6 
REMARK       I    between atoms: N_12  and  C_13 
REMARK    5  A    between atoms: C_13  and  C_14 
REMARK    6  A    between atoms: C_15  and  O_16 
REMARK    7  A    between atoms: C_21  and  O_22 
REMARK    8  A    between atoms: N_27  and  C_28 
ROOT
HETATM    1  N   UNL     1       4.087  33.489  56.564  1.00  0.00    -0.325 N 
HETATM    2  C   UNL     1       3.570  33.482  57.844  1.00  0.00     0.250 C 
HETATM    3  O   UNL     1       2.675  34.209  58.252  1.00  0.00    -0.270 OA
HETATM    4  C   UNL     1       4.379  32.460  58.670  1.00  0.00     0.118 C 
HETATM    5  C   UNL     1       3.398  31.552  59.435  1.00  0.00     0.061 C 
HETATM    6  C   UNL     1       2.958  32.145  60.768  1.00  0.00     0.129 C 
HETATM    7  N   UNL     1       4.089  32.697  61.496  1.00  0.00    -0.348 N 
HETATM    8  C   UNL     1       4.688  31.931  62.504  1.00  0.00     0.259 C 
HETATM    9  O   UNL     1       4.362  30.772  62.753  1.00  0.00    -0.267 OA
HETATM   10  C   UNL     1       4.737  33.806  60.812  1.00  0.00     0.129 C 
HETATM   11  C   UNL     1       5.364  33.302  59.514  1.00  0.00     0.061 C 
HETATM   12  N   UNL     1       5.098  31.713  57.599  1.00  0.00    -0.346 N 
HETATM   13  C   UNL     1       4.982  32.396  56.319  1.00  0.00     0.254 C 
ENDROOT
BRANCH  12  14
HETATM   14  C   UNL     1       5.967  30.645  57.740  1.00  0.00     0.032 A 
HETATM   15  C   UNL     1       7.211  30.744  58.386  1.00  0.00     0.029 A 
HETATM   16  C   UNL     1       8.073  29.649  58.540  1.00  0.00     0.002 A 
HETATM   17  C   UNL     1       7.715  28.403  58.048  1.00  0.00     0.000 A 
HETATM   18  C   UNL     1       6.496  28.258  57.402  1.00  0.00     0.002 A 
HETATM   19  C   UNL     1       5.643  29.362  57.255  1.00  0.00     0.029 A 
ENDBRANCH  12  14
BRANCH   1  20
HETATM   20  C   UNL     1       3.525  34.283  55.482  1.00  0.00     0.230 C 
BRANCH  20  21
HETATM   21  C   UNL     1       2.782  33.474  54.406  1.00  0.00     0.236 C 
HETATM   22  N   UNL     1       3.584  32.653  53.642  1.00  0.00    -0.351 N 
HETATM   23  H   UNL     1       4.588  32.781  53.666  1.00  0.00     0.163 HD
HETATM   24  O   UNL     1       1.574  33.580  54.207  1.00  0.00    -0.272 OA
BRANCH  22  25
HETATM   25  C   UNL     1       3.027  31.881  52.533  1.00  0.00     0.113 C 
HETATM   26  C   UNL     1       3.406  32.575  51.217  1.00  0.00     0.037 C 
BRANCH  25  27
HETATM   27  C   UNL     1       3.437  30.410  52.574  1.00  0.00    -0.036 A 
HETATM   28  C   UNL     1       3.654  29.660  51.405  1.00  0.00     0.009 A 
HETATM   29  C   UNL     1       4.057  28.322  51.467  1.00  0.00     0.001 A 
HETATM   30  C   UNL     1       4.278  27.713  52.699  1.00  0.00     0.000 A 
HETATM   31  C   UNL     1       4.106  28.445  53.869  1.00  0.00     0.001 A 
HETATM   32  C   UNL     1       3.699  29.781  53.805  1.00  0.00     0.009 A 
ENDBRANCH  25  27
ENDBRANCH  22  25
ENDBRANCH  20  21
ENDBRANCH   1  20
BRANCH   8  33
HETATM   33  C   UNL     1       5.677  32.587  63.393  1.00  0.00     0.098 A 
HETATM   34  C   UNL     1       5.197  33.343  64.475  1.00  0.00     0.086 A 
HETATM   35  C   UNL     1       6.088  33.968  65.348  1.00  0.00     0.038 A 
HETATM   36  C   UNL     1       7.458  33.863  65.130  1.00  0.00     0.005 A 
HETATM   37  C   UNL     1       7.943  33.101  64.063  1.00  0.00     0.038 A 
HETATM   38  C   UNL     1       7.062  32.442  63.195  1.00  0.00     0.086 A 
BRANCH  34  39
HETATM   39  O   UNL     1       3.863  33.396  64.789  1.00  0.00    -0.355 OA
HETATM   40  C   UNL     1       3.420  34.744  64.933  1.00  0.00     0.210 C 
ENDBRANCH  34  39
BRANCH  38  41
HETATM   41  O   UNL     1       7.465  31.643  62.160  1.00  0.00    -0.355 OA
HETATM   42  C   UNL     1       8.739  31.896  61.581  1.00  0.00     0.210 C 
ENDBRANCH  38  41
ENDBRANCH   8  33
TORSDOF 8
ENDMDL
MODEL 7
REMARK VINA RESULT:      -8.5      4.118      9.097
REMARK  8 active torsions:
REMARK  status: ('A' for Active; 'I' for Inactive)
REMARK    1  A    between atoms: C_2  and  N_3 
REMARK    2  A    between atoms: C_2  and  C_36 
REMARK       I    between atoms: N_3  and  C_4 
REMARK    3  A    between atoms: C_4  and  C_5 
REMARK    4  A    between atoms: C_5  and  N_6 
REMARK       I    between atoms: N_12  and  C_13 
REMARK    5  A    between atoms: C_13  and  C_14 
REMARK    6  A    between atoms: C_15  and  O_16 
REMARK    7  A    between atoms: C_21  and  O_22 
REMARK    8  A    between atoms: N_27  and  C_28 
ROOT
HETATM    1  N   UNL     1       4.332  33.643  56.493  1.00  0.00    -0.325 N 
HETATM    2  C   UNL     1       3.775  33.659  57.756  1.00  0.00     0.250 C 
HETATM    3  O   UNL     1       2.908  34.433  58.140  1.00  0.00    -0.270 OA
HETATM    4  C   UNL     1       4.499  32.591  58.601  1.00  0.00     0.118 C 
HETATM    5  C   UNL     1       3.444  31.735  59.328  1.00  0.00     0.061 C 
HETATM    6  C   UNL     1       2.995  32.345  60.650  1.00  0.00     0.129 C 
HETATM    7  N   UNL     1       4.131  32.831  61.418  1.00  0.00    -0.348 N 
HETATM    8  C   UNL     1       4.654  32.027  62.439  1.00  0.00     0.259 C 
HETATM    9  O   UNL     1       4.256  30.888  62.670  1.00  0.00    -0.267 OA
HETATM   10  C   UNL     1       4.862  33.905  60.762  1.00  0.00     0.129 C 
HETATM   11  C   UNL     1       5.501  33.372  59.481  1.00  0.00     0.061 C 
HETATM   12  N   UNL     1       5.210  31.809  57.549  1.00  0.00    -0.346 N 
HETATM   13  C   UNL     1       5.172  32.504  56.270  1.00  0.00     0.254 C 
ENDROOT
BRANCH  12  14
HETATM   14  C   UNL     1       6.013  30.694  57.711  1.00  0.00     0.032 A 
HETATM   15  C   UNL     1       7.246  30.724  58.384  1.00  0.00     0.029 A 
HETATM   16  C   UNL     1       8.040  29.582  58.559  1.00  0.00     0.002 A 
HETATM   17  C   UNL     1       7.623  28.357  58.061  1.00  0.00     0.000 A 
HETATM   18  C   UNL     1       6.412  28.280  57.389  1.00  0.00     0.002 A 
HETATM   19  C   UNL     1       5.627  29.430  57.221  1.00  0.00     0.029 A 
ENDBRANCH  12  14
BRANCH   1  20
HETATM   20  C   UNL     1       3.850  34.473  55.399  1.00  0.00     0.230 C 
BRANCH  20  21
HETATM   21  C   UNL     1       4.829  34.622  54.223  1.00  0.00     0.236 C 
HETATM   22  N   UNL     1       5.541  35.803  54.208  1.00  0.00    -0.351 N 
HETATM   23  H   UNL     1       5.243  36.567  54.800  1.00  0.00     0.163 HD
HETATM   24  O   UNL     1       4.941  33.778  53.336  1.00  0.00    -0.272 OA
BRANCH  22  25
HETATM   25  C   UNL     1       6.453  36.115  53.109  1.00  0.00     0.113 C 
HETATM   26  C   UNL     1       5.647  36.762  51.974  1.00  0.00     0.037 C 
BRANCH  25  27
HETATM   27  C   UNL     1       7.645  36.960  53.555  1.00  0.00    -0.036 A 
HETATM   28  C   UNL     1       8.746  37.206  52.715  1.00  0.00     0.009 A 
HETATM   29  C   UNL     1       9.813  38.008  53.134  1.00  0.00     0.001 A 
HETATM   30  C   UNL     1       9.789  38.602  54.392  1.00  0.00     0.000 A 
HETATM   31  C   UNL     1       8.695  38.405  55.227  1.00  0.00     0.001 A 
HETATM   32  C   UNL     1       7.631  37.600  54.808  1.00  0.00     0.009 A 
ENDBRANCH  25  27
ENDBRANCH  22  25
ENDBRANCH  20  21
ENDBRANCH   1  20
BRANCH   8  33
HETATM   33  C   UNL     1       5.649  32.623  63.364  1.00  0.00     0.098 A 
HETATM   34  C   UNL     1       5.175  33.343  64.474  1.00  0.00     0.086 A 
HETATM   35  C   UNL     1       6.071  33.910  65.379  1.00  0.00     0.038 A 
HETATM   36  C   UNL     1       7.441  33.786  65.168  1.00  0.00     0.005 A 
HETATM   37  C   UNL     1       7.919  33.059  64.073  1.00  0.00     0.038 A 
HETATM   38  C   UNL     1       7.032  32.458  63.170  1.00  0.00     0.086 A 
BRANCH  34  39
HETATM   39  O   UNL     1       3.840  33.410  64.779  1.00  0.00    -0.355 OA
HETATM   40  C   UNL     1       3.450  34.745  65.093  1.00  0.00     0.210 C 
ENDBRANCH  34  39
BRANCH  38  41
HETATM   41  O   UNL     1       7.427  31.696  62.105  1.00  0.00    -0.355 OA
HETATM   42  C   UNL     1       8.506  30.789  62.299  1.00  0.00     0.210 C 
ENDBRANCH  38  41
ENDBRANCH   8  33
TORSDOF 8
ENDMDL
MODEL 8
REMARK VINA RESULT:      -8.4      3.976      8.577
REMARK  8 active torsions:
REMARK  status: ('A' for Active; 'I' for Inactive)
REMARK    1  A    between atoms: C_2  and  N_3 
REMARK    2  A    between atoms: C_2  and  C_36 
REMARK       I    between atoms: N_3  and  C_4 
REMARK    3  A    between atoms: C_4  and  C_5 
REMARK    4  A    between atoms: C_5  and  N_6 
REMARK       I    between atoms: N_12  and  C_13 
REMARK    5  A    between atoms: C_13  and  C_14 
REMARK    6  A    between atoms: C_15  and  O_16 
REMARK    7  A    between atoms: C_21  and  O_22 
REMARK    8  A    between atoms: N_27  and  C_28 
ROOT
HETATM    1  N   UNL     1       3.775  33.515  56.757  1.00  0.00    -0.325 N 
HETATM    2  C   UNL     1       3.304  33.453  58.053  1.00  0.00     0.250 C 
HETATM    3  O   UNL     1       2.386  34.123  58.507  1.00  0.00    -0.270 OA
HETATM    4  C   UNL     1       4.192  32.459  58.828  1.00  0.00     0.118 C 
HETATM    5  C   UNL     1       3.286  31.484  59.604  1.00  0.00     0.061 C 
HETATM    6  C   UNL     1       2.862  32.024  60.963  1.00  0.00     0.129 C 
HETATM    7  N   UNL     1       3.987  32.619  61.667  1.00  0.00    -0.348 N 
HETATM    8  C   UNL     1       4.659  31.864  62.636  1.00  0.00     0.259 C 
HETATM    9  O   UNL     1       4.403  30.685  62.868  1.00  0.00    -0.267 OA
HETATM   10  C   UNL     1       4.553  33.775  60.988  1.00  0.00     0.129 C 
HETATM   11  C   UNL     1       5.161  33.333  59.658  1.00  0.00     0.061 C 
HETATM   12  N   UNL     1       4.913  31.773  57.717  1.00  0.00    -0.346 N 
HETATM   13  C   UNL     1       4.717  32.477  56.458  1.00  0.00     0.254 C 
ENDROOT
BRANCH  12  14
HETATM   14  C   UNL     1       5.840  30.749  57.804  1.00  0.00     0.032 A 
HETATM   15  C   UNL     1       5.579  29.436  57.376  1.00  0.00     0.029 A 
HETATM   16  C   UNL     1       6.535  28.413  57.451  1.00  0.00     0.002 A 
HETATM   17  C   UNL     1       7.798  28.671  57.963  1.00  0.00     0.000 A 
HETATM   18  C   UNL     1       8.099  29.953  58.397  1.00  0.00     0.002 A 
HETATM   19  C   UNL     1       7.134  30.968  58.317  1.00  0.00     0.029 A 
ENDBRANCH  12  14
BRANCH   1  20
HETATM   20  C   UNL     1       3.136  34.302  55.713  1.00  0.00     0.230 C 
BRANCH  20  21
HETATM   21  C   UNL     1       3.516  35.791  55.704  1.00  0.00     0.236 C 
HETATM   22  N   UNL     1       4.552  36.131  56.549  1.00  0.00    -0.351 N 
HETATM   23  H   UNL     1       4.844  35.473  57.261  1.00  0.00     0.163 HD
HETATM   24  O   UNL     1       2.918  36.628  55.032  1.00  0.00    -0.272 OA
BRANCH  22  25
HETATM   25  C   UNL     1       4.971  37.523  56.700  1.00  0.00     0.113 C 
HETATM   26  C   UNL     1       5.056  37.846  58.199  1.00  0.00     0.037 C 
BRANCH  25  27
HETATM   27  C   UNL     1       6.262  37.834  55.946  1.00  0.00    -0.036 A 
HETATM   28  C   UNL     1       7.133  38.863  56.345  1.00  0.00     0.009 A 
HETATM   29  C   UNL     1       8.325  39.111  55.655  1.00  0.00     0.001 A 
HETATM   30  C   UNL     1       8.683  38.319  54.569  1.00  0.00     0.000 A 
HETATM   31  C   UNL     1       7.857  37.272  54.178  1.00  0.00     0.001 A 
HETATM   32  C   UNL     1       6.664  37.028  54.865  1.00  0.00     0.009 A 
ENDBRANCH  25  27
ENDBRANCH  22  25
ENDBRANCH  20  21
ENDBRANCH   1  20
BRANCH   8  33
HETATM   33  C   UNL     1       5.643  32.552  63.507  1.00  0.00     0.098 A 
HETATM   34  C   UNL     1       7.008  32.404  63.212  1.00  0.00     0.086 A 
HETATM   35  C   UNL     1       7.971  33.042  63.994  1.00  0.00     0.038 A 
HETATM   36  C   UNL     1       7.578  33.809  65.086  1.00  0.00     0.005 A 
HETATM   37  C   UNL     1       6.220  33.973  65.377  1.00  0.00     0.038 A 
HETATM   38  C   UNL     1       5.239  33.362  64.584  1.00  0.00     0.086 A 
BRANCH  34  39
HETATM   39  O   UNL     1       7.441  31.741  62.093  1.00  0.00    -0.355 OA
HETATM   40  C   UNL     1       8.405  32.512  61.378  1.00  0.00     0.210 C 
ENDBRANCH  34  39
BRANCH  38  41
HETATM   41  O   UNL     1       3.894  33.515  64.781  1.00  0.00    -0.355 OA
HETATM   42  C   UNL     1       3.419  34.801  65.161  1.00  0.00     0.210 C 
ENDBRANCH  38  41
ENDBRANCH   8  33
TORSDOF 8
ENDMDL
MODEL 9
REMARK VINA RESULT:      -8.2      6.701     10.829
REMARK  8 active torsions:
REMARK  status: ('A' for Active; 'I' for Inactive)
REMARK    1  A    between atoms: C_2  and  N_3 
REMARK    2  A    between atoms: C_2  and  C_36 
REMARK       I    between atoms: N_3  and  C_4 
REMARK    3  A    between atoms: C_4  and  C_5 
REMARK    4  A    between atoms: C_5  and  N_6 
REMARK       I    between atoms: N_12  and  C_13 
REMARK    5  A    between atoms: C_13  and  C_14 
REMARK    6  A    between atoms: C_15  and  O_16 
REMARK    7  A    between atoms: C_21  and  O_22 
REMARK    8  A    between atoms: N_27  and  C_28 
ROOT
HETATM    1  N   UNL     1       4.779  27.598  53.229  1.00  0.00    -0.325 N 
HETATM    2  C   UNL     1       4.834  28.953  52.968  1.00  0.00     0.250 C 
HETATM    3  O   UNL     1       5.155  29.818  53.771  1.00  0.00    -0.270 OA
HETATM    4  C   UNL     1       4.340  29.172  51.523  1.00  0.00     0.118 C 
HETATM    5  C   UNL     1       5.336  30.093  50.793  1.00  0.00     0.061 C 
HETATM    6  C   UNL     1       5.050  31.572  51.018  1.00  0.00     0.129 C 
HETATM    7  N   UNL     1       3.630  31.858  50.887  1.00  0.00    -0.348 N 
HETATM    8  C   UNL     1       3.149  32.372  49.676  1.00  0.00     0.259 C 
HETATM    9  O   UNL     1       3.854  32.517  48.679  1.00  0.00    -0.267 OA
HETATM   10  C   UNL     1       2.805  31.183  51.878  1.00  0.00     0.129 C 
HETATM   11  C   UNL     1       2.884  29.673  51.657  1.00  0.00     0.061 C 
HETATM   12  N   UNL     1       4.378  27.783  50.981  1.00  0.00    -0.346 N 
HETATM   13  C   UNL     1       4.567  26.812  52.049  1.00  0.00     0.254 C 
ENDROOT
BRANCH  12  14
HETATM   14  C   UNL     1       4.062  27.357  49.703  1.00  0.00     0.032 A 
HETATM   15  C   UNL     1       4.170  26.018  49.289  1.00  0.00     0.029 A 
HETATM   16  C   UNL     1       3.827  25.597  47.996  1.00  0.00     0.002 A 
HETATM   17  C   UNL     1       3.358  26.510  47.064  1.00  0.00     0.000 A 
HETATM   18  C   UNL     1       3.235  27.842  47.429  1.00  0.00     0.002 A 
HETATM   19  C   UNL     1       3.582  28.251  48.725  1.00  0.00     0.029 A 
ENDBRANCH  12  14
BRANCH   1  20
HETATM   20  C   UNL     1       5.238  27.008  54.477  1.00  0.00     0.230 C 
BRANCH  20  21
HETATM   21  C   UNL     1       6.610  26.319  54.399  1.00  0.00     0.236 C 
HETATM   22  N   UNL     1       6.758  25.226  55.227  1.00  0.00    -0.351 N 
HETATM   23  H   UNL     1       6.087  25.074  55.969  1.00  0.00     0.163 HD
HETATM   24  O   UNL     1       7.524  26.731  53.689  1.00  0.00    -0.272 OA
BRANCH  22  25
HETATM   25  C   UNL     1       8.034  24.518  55.313  1.00  0.00     0.113 C 
HETATM   26  C   UNL     1       8.525  24.572  56.768  1.00  0.00     0.037 C 
BRANCH  25  27
HETATM   27  C   UNL     1       7.957  23.096  54.760  1.00  0.00    -0.036 A 
HETATM   28  C   UNL     1       8.052  22.822  53.384  1.00  0.00     0.009 A 
HETATM   29  C   UNL     1       8.009  21.509  52.902  1.00  0.00     0.001 A 
HETATM   30  C   UNL     1       7.894  20.442  53.787  1.00  0.00     0.000 A 
HETATM   31  C   UNL     1       7.834  20.685  55.155  1.00  0.00     0.001 A 
HETATM   32  C   UNL     1       7.874  21.998  55.635  1.00  0.00     0.009 A 
ENDBRANCH  25  27
ENDBRANCH  22  25
ENDBRANCH  20  21
ENDBRANCH   1  20
BRANCH   8  33
HETATM   33  C   UNL     1       1.757  32.879  49.630  1.00  0.00     0.098 A 
HETATM   34  C   UNL     1       0.757  32.027  49.133  1.00  0.00     0.086 A 
HETATM   35  C   UNL     1      -0.570  32.453  49.082  1.00  0.00     0.038 A 
HETATM   36  C   UNL     1      -0.901  33.738  49.501  1.00  0.00     0.005 A 
HETATM   37  C   UNL     1       0.087  34.587  50.010  1.00  0.00     0.038 A 
HETATM   38  C   UNL     1       1.420  34.163  50.095  1.00  0.00     0.086 A 
BRANCH  34  39
HETATM   39  O   UNL     1       1.014  30.722  48.800  1.00  0.00    -0.355 OA
HETATM   40  C   UNL     1       0.624  30.446  47.457  1.00  0.00     0.210 C 
ENDBRANCH  34  39
BRANCH  38  41
HETATM   41  O   UNL     1       2.429  34.920  50.623  1.00  0.00    -0.355 OA
HETATM   42  C   UNL     1       2.396  35.194  52.019  1.00  0.00     0.210 C 
ENDBRANCH  38  41
ENDBRANCH   8  33
TORSDOF 8
ENDMDL
MODEL 10
REMARK VINA RESULT:      -8.1      6.426     10.550
REMARK  8 active torsions:
REMARK  status: ('A' for Active; 'I' for Inactive)
REMARK    1  A    between atoms: C_2  and  N_3 
REMARK    2  A    between atoms: C_2  and  C_36 
REMARK       I    between atoms: N_3  and  C_4 
REMARK    3  A    between atoms: C_4  and  C_5 
REMARK    4  A    between atoms: C_5  and  N_6 
REMARK       I    between atoms: N_12  and  C_13 
REMARK    5  A    between atoms: C_13  and  C_14 
REMARK    6  A    between atoms: C_15  and  O_16 
REMARK    7  A    between atoms: C_21  and  O_22 
REMARK    8  A    between atoms: N_27  and  C_28 
ROOT
HETATM    1  N   UNL     1       4.835  27.867  53.463  1.00  0.00    -0.325 N 
HETATM    2  C   UNL     1       4.652  29.210  53.199  1.00  0.00     0.250 C 
HETATM    3  O   UNL     1       4.632  30.102  54.036  1.00  0.00    -0.270 OA
HETATM    4  C   UNL     1       4.398  29.359  51.684  1.00  0.00     0.118 C 
HETATM    5  C   UNL     1       5.295  30.486  51.139  1.00  0.00     0.061 C 
HETATM    6  C   UNL     1       4.669  31.867  51.288  1.00  0.00     0.129 C 
HETATM    7  N   UNL     1       3.269  31.854  50.893  1.00  0.00    -0.348 N 
HETATM    8  C   UNL     1       2.921  32.288  49.607  1.00  0.00     0.259 C 
HETATM    9  O   UNL     1       3.750  32.603  48.756  1.00  0.00    -0.267 OA
HETATM   10  C   UNL     1       2.436  30.996  51.723  1.00  0.00     0.129 C 
HETATM   11  C   UNL     1       2.869  29.542  51.541  1.00  0.00     0.061 C 
HETATM   12  N   UNL     1       4.824  28.024  51.177  1.00  0.00    -0.346 N 
HETATM   13  C   UNL     1       5.014  27.086  52.274  1.00  0.00     0.254 C 
ENDROOT
BRANCH  12  14
HETATM   14  C   UNL     1       4.844  27.574  49.868  1.00  0.00     0.032 A 
HETATM   15  C   UNL     1       4.286  26.349  49.466  1.00  0.00     0.029 A 
HETATM   16  C   UNL     1       4.295  25.915  48.133  1.00  0.00     0.002 A 
HETATM   17  C   UNL     1       4.869  26.701  47.145  1.00  0.00     0.000 A 
HETATM   18  C   UNL     1       5.432  27.919  47.496  1.00  0.00     0.002 A 
HETATM   19  C   UNL     1       5.416  28.341  48.834  1.00  0.00     0.029 A 
ENDBRANCH  12  14
BRANCH   1  20
HETATM   20  C   UNL     1       5.171  27.353  54.782  1.00  0.00     0.230 C 
BRANCH  20  21
HETATM   21  C   UNL     1       6.565  26.714  54.889  1.00  0.00     0.236 C 
HETATM   22  N   UNL     1       6.566  25.380  55.241  1.00  0.00    -0.351 N 
HETATM   23  H   UNL     1       5.720  24.967  55.613  1.00  0.00     0.163 HD
HETATM   24  O   UNL     1       7.605  27.348  54.721  1.00  0.00    -0.272 OA
BRANCH  22  25
HETATM   25  C   UNL     1       7.821  24.661  55.453  1.00  0.00     0.113 C 
HETATM   26  C   UNL     1       8.133  24.659  56.957  1.00  0.00     0.037 C 
BRANCH  25  27
HETATM   27  C   UNL     1       7.808  23.261  54.842  1.00  0.00    -0.036 A 
HETATM   28  C   UNL     1       7.890  23.049  53.454  1.00  0.00     0.009 A 
HETATM   29  C   UNL     1       7.907  21.757  52.918  1.00  0.00     0.001 A 
HETATM   30  C   UNL     1       7.867  20.650  53.760  1.00  0.00     0.000 A 
HETATM   31  C   UNL     1       7.823  20.833  55.138  1.00  0.00     0.001 A 
HETATM   32  C   UNL     1       7.803  22.125  55.672  1.00  0.00     0.009 A 
ENDBRANCH  25  27
ENDBRANCH  22  25
ENDBRANCH  20  21
ENDBRANCH   1  20
BRANCH   8  33
HETATM   33  C   UNL     1       1.486  32.495  49.298  1.00  0.00     0.098 A 
HETATM   34  C   UNL     1       0.901  33.721  49.654  1.00  0.00     0.086 A 
HETATM   35  C   UNL     1      -0.443  33.968  49.371  1.00  0.00     0.038 A 
HETATM   36  C   UNL     1      -1.213  32.986  48.758  1.00  0.00     0.005 A 
HETATM   37  C   UNL     1      -0.633  31.768  48.388  1.00  0.00     0.038 A 
HETATM   38  C   UNL     1       0.722  31.516  48.637  1.00  0.00     0.086 A 
BRANCH  34  39
HETATM   39  O   UNL     1       1.638  34.755  50.171  1.00  0.00    -0.355 OA
HETATM   40  C   UNL     1       1.330  35.985  49.518  1.00  0.00     0.210 C 
ENDBRANCH  34  39
BRANCH  38  41
HETATM   41  O   UNL     1       1.367  30.369  48.263  1.00  0.00    -0.355 OA
HETATM   42  C   UNL     1       1.553  30.134  46.872  1.00  0.00     0.210 C 
ENDBRANCH  38  41
ENDBRANCH   8  33
TORSDOF 8
ENDMDL
