MODEL 1
REMARK VINA RESULT:     -11.7      0.000      0.000
REMARK  9 active torsions:
REMARK  status: ('A' for Active; 'I' for Inactive)
REMARK    1  A    between atoms: O_2  and  C_3 
REMARK    2  A    between atoms: C_6  and  C_7 
REMARK    3  A    between atoms: C_8  and  C_9 
REMARK    4  A    between atoms: C_9  and  O_10 
REMARK    5  A    between atoms: O_10  and  C_11 
REMARK    6  A    between atoms: C_14  and  C_15 
REMARK    7  A    between atoms: C_17  and  O_18 
REMARK    8  A    between atoms: N_26  and  C_28 
REMARK    9  A    between atoms: C_28  and  C_29 
ROOT
HETATM    1  C   UNL     1       7.265  32.358  59.695  1.00  0.00     0.243 C 
HETATM    2  N   UNL     1       8.607  31.814  59.400  1.00  0.00    -0.235 NA
HETATM    3  C   UNL     1       8.668  30.964  58.445  1.00  0.00     0.173 C 
HETATM    4  C   UNL     1       7.541  30.455  57.703  1.00  0.00     0.057 A 
HETATM    5  C   UNL     1       6.294  30.800  58.162  1.00  0.00     0.087 A 
HETATM    6  S   UNL     1       5.034  30.111  57.265  1.00  0.00    -0.074 SA
HETATM    7  C   UNL     1       6.138  29.326  56.240  1.00  0.00     0.018 A 
HETATM    8  C   UNL     1       7.460  29.599  56.556  1.00  0.00    -0.024 A 
HETATM    9  C   UNL     1       8.591  28.989  55.782  1.00  0.00     0.068 C 
HETATM   10  C   UNL     1       8.107  28.298  54.488  1.00  0.00     0.240 C 
HETATM   11  N   UNL     1       6.815  27.514  54.693  1.00  0.00    -0.063 N 
HETATM   12  H   UNL     1       6.527  27.143  53.782  1.00  0.00     0.280 HD
HETATM   13  C   UNL     1       5.691  28.449  55.126  1.00  0.00     0.282 C 
HETATM   14  N   UNL     1       6.124  31.582  59.239  1.00  0.00    -0.357 N 
HETATM   15  H   UNL     1       5.210  31.950  59.490  1.00  0.00     0.162 HD
ENDROOT
BRANCH   1  16
HETATM   16  C   UNL     1       7.058  32.609  61.181  1.00  0.00    -0.014 A 
HETATM   17  C   UNL     1       8.037  32.188  62.102  1.00  0.00     0.014 A 
HETATM   18  C   UNL     1       7.944  32.526  63.454  1.00  0.00     0.038 A 
HETATM   19  C   UNL     1       6.862  33.280  63.898  1.00  0.00     0.079 A 
HETATM   20  C   UNL     1       5.869  33.689  63.007  1.00  0.00     0.038 A 
HETATM   21  C   UNL     1       5.970  33.359  61.653  1.00  0.00     0.014 A 
BRANCH  19  22
HETATM   22  O   UNL     1       6.740  33.793  65.210  1.00  0.00    -0.276 OA
BRANCH  22  23
HETATM   23  C   UNL     1       5.558  33.846  65.935  1.00  0.00     0.288 C 
HETATM   24  O   UNL     1       4.483  33.345  65.642  1.00  0.00    -0.260 OA
BRANCH  23  25
HETATM   25  C   UNL     1       5.777  34.544  67.223  1.00  0.00     0.083 C 
HETATM   26  C   UNL     1       6.741  34.221  68.098  1.00  0.00     0.017 C 
BRANCH  26  27
HETATM   27  C   UNL     1       6.875  34.859  69.410  1.00  0.00    -0.036 A 
HETATM   28  C   UNL     1       7.731  35.951  69.602  1.00  0.00     0.014 A 
HETATM   29  C   UNL     1       7.783  36.610  70.836  1.00  0.00     0.037 A 
HETATM   30  C   UNL     1       6.973  36.188  71.889  1.00  0.00     0.068 A 
HETATM   31  C   UNL     1       6.130  35.090  71.703  1.00  0.00     0.037 A 
HETATM   32  C   UNL     1       6.070  34.434  70.470  1.00  0.00     0.014 A 
BRANCH  30  33
HETATM   33  O   UNL     1       6.912  36.754  73.132  1.00  0.00    -0.356 OA
HETATM   34  C   UNL     1       7.762  37.871  73.367  1.00  0.00     0.210 C 
ENDBRANCH  30  33
ENDBRANCH  26  27
ENDBRANCH  23  25
ENDBRANCH  22  23
ENDBRANCH  19  22
ENDBRANCH   1  16
BRANCH   3  35
HETATM   35  O   UNL     1       9.874  30.478  58.102  1.00  0.00    -0.344 OA
HETATM   36  H   UNL     1      10.271  30.127  58.921  1.00  0.00     0.219 HD
ENDBRANCH   3  35
BRANCH  11  37
HETATM   37  C   UNL     1       6.998  26.310  55.590  1.00  0.00     0.273 C 
BRANCH  37  38
HETATM   38  C   UNL     1       7.297  25.037  54.848  1.00  0.00    -0.033 A 
HETATM   39  C   UNL     1       7.466  25.034  53.454  1.00  0.00     0.009 A 
HETATM   40  C   UNL     1       7.712  23.837  52.778  1.00  0.00     0.001 A 
HETATM   41  C   UNL     1       7.794  22.638  53.483  1.00  0.00     0.000 A 
HETATM   42  C   UNL     1       7.636  22.630  54.866  1.00  0.00     0.001 A 
HETATM   43  C   UNL     1       7.388  23.822  55.547  1.00  0.00     0.009 A 
ENDBRANCH  37  38
ENDBRANCH  11  37
TORSDOF 9
ENDMDL
MODEL 2
REMARK VINA RESULT:     -10.8      2.531      4.625
REMARK  9 active torsions:
REMARK  status: ('A' for Active; 'I' for Inactive)
REMARK    1  A    between atoms: O_2  and  C_3 
REMARK    2  A    between atoms: C_6  and  C_7 
REMARK    3  A    between atoms: C_8  and  C_9 
REMARK    4  A    between atoms: C_9  and  O_10 
REMARK    5  A    between atoms: O_10  and  C_11 
REMARK    6  A    between atoms: C_14  and  C_15 
REMARK    7  A    between atoms: C_17  and  O_18 
REMARK    8  A    between atoms: N_26  and  C_28 
REMARK    9  A    between atoms: C_28  and  C_29 
ROOT
HETATM    1  C   UNL     1       5.261  29.905  56.893  1.00  0.00     0.243 C 
HETATM    2  N   UNL     1       5.476  30.306  55.487  1.00  0.00    -0.235 NA
HETATM    3  C   UNL     1       5.503  29.353  54.632  1.00  0.00     0.173 C 
HETATM    4  C   UNL     1       5.417  27.947  54.943  1.00  0.00     0.057 A 
HETATM    5  C   UNL     1       5.460  27.605  56.272  1.00  0.00     0.087 A 
HETATM    6  S   UNL     1       5.412  25.933  56.537  1.00  0.00    -0.074 SA
HETATM    7  C   UNL     1       5.338  25.629  54.866  1.00  0.00     0.018 A 
HETATM    8  C   UNL     1       5.326  26.787  54.105  1.00  0.00    -0.024 A 
HETATM    9  C   UNL     1       5.283  26.737  52.606  1.00  0.00     0.068 C 
HETATM   10  C   UNL     1       4.972  25.319  52.078  1.00  0.00     0.240 C 
HETATM   11  N   UNL     1       5.710  24.233  52.855  1.00  0.00    -0.063 N 
HETATM   12  H   UNL     1       5.404  23.325  52.491  1.00  0.00     0.280 HD
HETATM   13  C   UNL     1       5.287  24.247  54.319  1.00  0.00     0.282 C 
HETATM   14  N   UNL     1       5.564  28.527  57.240  1.00  0.00    -0.357 N 
HETATM   15  H   UNL     1       5.452  28.283  58.220  1.00  0.00     0.162 HD
ENDROOT
BRANCH   1  16
HETATM   16  C   UNL     1       6.034  30.782  57.867  1.00  0.00    -0.014 A 
HETATM   17  C   UNL     1       5.340  31.692  58.688  1.00  0.00     0.014 A 
HETATM   18  C   UNL     1       6.003  32.409  59.687  1.00  0.00     0.038 A 
HETATM   19  C   UNL     1       7.371  32.229  59.864  1.00  0.00     0.079 A 
HETATM   20  C   UNL     1       8.084  31.350  59.047  1.00  0.00     0.038 A 
HETATM   21  C   UNL     1       7.416  30.626  58.056  1.00  0.00     0.014 A 
BRANCH  19  22
HETATM   22  O   UNL     1       8.112  32.795  60.927  1.00  0.00    -0.276 OA
BRANCH  22  23
HETATM   23  C   UNL     1       8.678  32.076  61.971  1.00  0.00     0.288 C 
HETATM   24  O   UNL     1       9.649  31.337  61.925  1.00  0.00    -0.260 OA
BRANCH  23  25
HETATM   25  C   UNL     1       7.986  32.389  63.243  1.00  0.00     0.083 C 
HETATM   26  C   UNL     1       6.954  33.241  63.348  1.00  0.00     0.017 C 
BRANCH  26  27
HETATM   27  C   UNL     1       6.353  33.612  64.630  1.00  0.00    -0.036 A 
HETATM   28  C   UNL     1       4.966  33.570  64.820  1.00  0.00     0.014 A 
HETATM   29  C   UNL     1       4.408  33.839  66.076  1.00  0.00     0.037 A 
HETATM   30  C   UNL     1       5.234  34.146  67.157  1.00  0.00     0.068 A 
HETATM   31  C   UNL     1       6.616  34.204  66.965  1.00  0.00     0.037 A 
HETATM   32  C   UNL     1       7.176  33.929  65.714  1.00  0.00     0.014 A 
BRANCH  30  33
HETATM   33  O   UNL     1       4.820  34.408  68.434  1.00  0.00    -0.356 OA
HETATM   34  C   UNL     1       5.776  34.204  69.469  1.00  0.00     0.210 C 
ENDBRANCH  30  33
ENDBRANCH  26  27
ENDBRANCH  23  25
ENDBRANCH  22  23
ENDBRANCH  19  22
ENDBRANCH   1  16
BRANCH   3  35
HETATM   35  O   UNL     1       5.644  29.667  53.332  1.00  0.00    -0.344 OA
HETATM   36  H   UNL     1       5.717  28.822  52.853  1.00  0.00     0.219 HD
ENDBRANCH   3  35
BRANCH  11  37
HETATM   37  C   UNL     1       7.208  24.279  52.644  1.00  0.00     0.273 C 
BRANCH  37  38
HETATM   38  C   UNL     1       7.952  23.154  53.310  1.00  0.00    -0.033 A 
HETATM   39  C   UNL     1       7.988  21.873  52.739  1.00  0.00     0.009 A 
HETATM   40  C   UNL     1       8.657  20.832  53.387  1.00  0.00     0.001 A 
HETATM   41  C   UNL     1       9.297  21.062  54.604  1.00  0.00     0.000 A 
HETATM   42  C   UNL     1       9.274  22.330  55.176  1.00  0.00     0.001 A 
HETATM   43  C   UNL     1       8.605  23.373  54.535  1.00  0.00     0.009 A 
ENDBRANCH  37  38
ENDBRANCH  11  37
TORSDOF 9
ENDMDL
MODEL 3
REMARK VINA RESULT:     -10.8      3.058      4.658
REMARK  9 active torsions:
REMARK  status: ('A' for Active; 'I' for Inactive)
REMARK    1  A    between atoms: O_2  and  C_3 
REMARK    2  A    between atoms: C_6  and  C_7 
REMARK    3  A    between atoms: C_8  and  C_9 
REMARK    4  A    between atoms: C_9  and  O_10 
REMARK    5  A    between atoms: O_10  and  C_11 
REMARK    6  A    between atoms: C_14  and  C_15 
REMARK    7  A    between atoms: C_17  and  O_18 
REMARK    8  A    between atoms: N_26  and  C_28 
REMARK    9  A    between atoms: C_28  and  C_29 
ROOT
HETATM    1  C   UNL     1       6.626  31.782  59.522  1.00  0.00     0.243 C 
HETATM    2  N   UNL     1       7.830  30.928  59.472  1.00  0.00    -0.235 NA
HETATM    3  C   UNL     1       7.923  30.152  58.458  1.00  0.00     0.173 C 
HETATM    4  C   UNL     1       6.929  30.001  57.425  1.00  0.00     0.057 A 
HETATM    5  C   UNL     1       5.725  30.629  57.630  1.00  0.00     0.087 A 
HETATM    6  S   UNL     1       4.601  30.348  56.395  1.00  0.00    -0.074 SA
HETATM    7  C   UNL     1       5.707  29.368  55.556  1.00  0.00     0.018 A 
HETATM    8  C   UNL     1       6.934  29.268  56.193  1.00  0.00    -0.024 A 
HETATM    9  C   UNL     1       8.044  28.433  55.625  1.00  0.00     0.068 C 
HETATM   10  C   UNL     1       7.748  27.974  54.180  1.00  0.00     0.240 C 
HETATM   11  N   UNL     1       6.298  27.543  53.990  1.00  0.00    -0.063 N 
HETATM   12  H   UNL     1       6.166  27.316  52.999  1.00  0.00     0.280 HD
HETATM   13  C   UNL     1       5.356  28.708  54.270  1.00  0.00     0.282 C 
HETATM   14  N   UNL     1       5.483  31.360  58.729  1.00  0.00    -0.357 N 
HETATM   15  H   UNL     1       4.650  31.936  58.811  1.00  0.00     0.162 HD
ENDROOT
BRANCH   1  16
HETATM   16  C   UNL     1       6.121  31.986  60.943  1.00  0.00    -0.014 A 
HETATM   17  C   UNL     1       7.034  31.972  62.015  1.00  0.00     0.014 A 
HETATM   18  C   UNL     1       6.624  32.294  63.311  1.00  0.00     0.038 A 
HETATM   19  C   UNL     1       5.293  32.621  63.547  1.00  0.00     0.079 A 
HETATM   20  C   UNL     1       4.367  32.620  62.503  1.00  0.00     0.038 A 
HETATM   21  C   UNL     1       4.781  32.309  61.206  1.00  0.00     0.014 A 
BRANCH  19  22
HETATM   22  O   UNL     1       4.802  33.095  64.785  1.00  0.00    -0.276 OA
BRANCH  22  23
HETATM   23  C   UNL     1       5.328  34.168  65.490  1.00  0.00     0.288 C 
HETATM   24  O   UNL     1       6.003  34.130  66.507  1.00  0.00    -0.260 OA
BRANCH  23  25
HETATM   25  C   UNL     1       5.040  35.437  64.782  1.00  0.00     0.083 C 
HETATM   26  C   UNL     1       5.784  35.923  63.776  1.00  0.00     0.017 C 
BRANCH  26  27
HETATM   27  C   UNL     1       5.538  37.228  63.160  1.00  0.00    -0.036 A 
HETATM   28  C   UNL     1       4.723  37.354  62.028  1.00  0.00     0.014 A 
HETATM   29  C   UNL     1       4.421  38.616  61.502  1.00  0.00     0.037 A 
HETATM   30  C   UNL     1       4.926  39.765  62.107  1.00  0.00     0.068 A 
HETATM   31  C   UNL     1       5.752  39.641  63.226  1.00  0.00     0.037 A 
HETATM   32  C   UNL     1       6.049  38.383  63.759  1.00  0.00     0.014 A 
BRANCH  30  33
HETATM   33  O   UNL     1       4.692  41.052  61.707  1.00  0.00    -0.356 OA
HETATM   34  C   UNL     1       5.273  42.082  62.499  1.00  0.00     0.210 C 
ENDBRANCH  30  33
ENDBRANCH  26  27
ENDBRANCH  23  25
ENDBRANCH  22  23
ENDBRANCH  19  22
ENDBRANCH   1  16
BRANCH   3  35
HETATM   35  O   UNL     1       9.025  29.391  58.339  1.00  0.00    -0.344 OA
HETATM   36  H   UNL     1       9.602  29.624  59.090  1.00  0.00     0.219 HD
ENDBRANCH   3  35
BRANCH  11  37
HETATM   37  C   UNL     1       5.960  26.279  54.751  1.00  0.00     0.273 C 
BRANCH  37  38
HETATM   38  C   UNL     1       6.803  25.093  54.367  1.00  0.00    -0.033 A 
HETATM   39  C   UNL     1       7.647  24.472  55.300  1.00  0.00     0.009 A 
HETATM   40  C   UNL     1       8.445  23.392  54.917  1.00  0.00     0.001 A 
HETATM   41  C   UNL     1       8.406  22.923  53.606  1.00  0.00     0.000 A 
HETATM   42  C   UNL     1       7.567  23.526  52.674  1.00  0.00     0.001 A 
HETATM   43  C   UNL     1       6.768  24.606  53.049  1.00  0.00     0.009 A 
ENDBRANCH  37  38
ENDBRANCH  11  37
TORSDOF 9
ENDMDL
MODEL 4
REMARK VINA RESULT:     -10.5     11.392     12.481
REMARK  9 active torsions:
REMARK  status: ('A' for Active; 'I' for Inactive)
REMARK    1  A    between atoms: O_2  and  C_3 
REMARK    2  A    between atoms: C_6  and  C_7 
REMARK    3  A    between atoms: C_8  and  C_9 
REMARK    4  A    between atoms: C_9  and  O_10 
REMARK    5  A    between atoms: O_10  and  C_11 
REMARK    6  A    between atoms: C_14  and  C_15 
REMARK    7  A    between atoms: C_17  and  O_18 
REMARK    8  A    between atoms: N_26  and  C_28 
REMARK    9  A    between atoms: C_28  and  C_29 
ROOT
HETATM    1  C   UNL     1       5.019  31.220  50.169  1.00  0.00     0.243 C 
HETATM    2  N   UNL     1       5.448  30.183  49.209  1.00  0.00    -0.235 NA
HETATM    3  C   UNL     1       5.484  28.985  49.659  1.00  0.00     0.173 C 
HETATM    4  C   UNL     1       5.216  28.594  51.021  1.00  0.00     0.057 A 
HETATM    5  C   UNL     1       5.057  29.607  51.934  1.00  0.00     0.087 A 
HETATM    6  S   UNL     1       4.803  29.053  53.514  1.00  0.00    -0.074 SA
HETATM    7  C   UNL     1       4.909  27.435  53.008  1.00  0.00     0.018 A 
HETATM    8  C   UNL     1       5.112  27.307  51.643  1.00  0.00    -0.024 A 
HETATM    9  C   UNL     1       5.251  25.959  50.996  1.00  0.00     0.068 C 
HETATM   10  C   UNL     1       4.865  24.810  51.954  1.00  0.00     0.240 C 
HETATM   11  N   UNL     1       5.384  25.032  53.371  1.00  0.00    -0.063 N 
HETATM   12  H   UNL     1       5.035  24.266  53.955  1.00  0.00     0.280 HD
HETATM   13  C   UNL     1       4.784  26.302  53.963  1.00  0.00     0.282 C 
HETATM   14  N   UNL     1       5.132  30.899  51.583  1.00  0.00    -0.357 N 
HETATM   15  H   UNL     1       4.874  31.641  52.226  1.00  0.00     0.162 HD
ENDROOT
BRANCH   1  16
HETATM   16  C   UNL     1       5.750  32.538  49.959  1.00  0.00    -0.014 A 
HETATM   17  C   UNL     1       6.409  32.783  48.740  1.00  0.00     0.014 A 
HETATM   18  C   UNL     1       6.968  34.033  48.463  1.00  0.00     0.038 A 
HETATM   19  C   UNL     1       6.883  35.045  49.413  1.00  0.00     0.079 A 
HETATM   20  C   UNL     1       6.254  34.818  50.638  1.00  0.00     0.038 A 
HETATM   21  C   UNL     1       5.685  33.571  50.907  1.00  0.00     0.014 A 
BRANCH  19  22
HETATM   22  O   UNL     1       7.289  36.380  49.185  1.00  0.00    -0.276 OA
BRANCH  22  23
HETATM   23  C   UNL     1       7.556  37.310  50.180  1.00  0.00     0.288 C 
HETATM   24  O   UNL     1       6.790  38.135  50.651  1.00  0.00    -0.260 OA
BRANCH  23  25
HETATM   25  C   UNL     1       8.929  37.121  50.703  1.00  0.00     0.083 C 
HETATM   26  C   UNL     1       9.453  37.832  51.714  1.00  0.00     0.017 C 
BRANCH  26  27
HETATM   27  C   UNL     1      10.846  37.697  52.147  1.00  0.00    -0.036 A 
HETATM   28  C   UNL     1      11.179  37.608  53.504  1.00  0.00     0.014 A 
HETATM   29  C   UNL     1      12.503  37.388  53.902  1.00  0.00     0.037 A 
HETATM   30  C   UNL     1      13.507  37.248  52.945  1.00  0.00     0.068 A 
HETATM   31  C   UNL     1      13.179  37.353  51.592  1.00  0.00     0.037 A 
HETATM   32  C   UNL     1      11.857  37.565  51.191  1.00  0.00     0.014 A 
BRANCH  30  33
HETATM   33  O   UNL     1      14.830  37.012  53.198  1.00  0.00    -0.356 OA
HETATM   34  C   UNL     1      15.204  35.658  53.424  1.00  0.00     0.210 C 
ENDBRANCH  30  33
ENDBRANCH  26  27
ENDBRANCH  23  25
ENDBRANCH  22  23
ENDBRANCH  19  22
ENDBRANCH   1  16
BRANCH   3  35
HETATM   35  O   UNL     1       5.818  27.996  48.811  1.00  0.00    -0.344 OA
HETATM   36  H   UNL     1       5.688  27.162  49.299  1.00  0.00     0.219 HD
ENDBRANCH   3  35
BRANCH  11  37
HETATM   37  C   UNL     1       6.894  24.962  53.458  1.00  0.00     0.273 C 
BRANCH  37  38
HETATM   38  C   UNL     1       7.420  23.605  53.835  1.00  0.00    -0.033 A 
HETATM   39  C   UNL     1       7.855  22.699  52.855  1.00  0.00     0.009 A 
HETATM   40  C   UNL     1       8.311  21.431  53.221  1.00  0.00     0.001 A 
HETATM   41  C   UNL     1       8.341  21.059  54.564  1.00  0.00     0.000 A 
HETATM   42  C   UNL     1       7.920  21.952  55.545  1.00  0.00     0.001 A 
HETATM   43  C   UNL     1       7.461  23.218  55.185  1.00  0.00     0.009 A 
ENDBRANCH  37  38
ENDBRANCH  11  37
TORSDOF 9
ENDMDL
MODEL 5
REMARK VINA RESULT:     -10.4      4.714     13.906
REMARK  9 active torsions:
REMARK  status: ('A' for Active; 'I' for Inactive)
REMARK    1  A    between atoms: O_2  and  C_3 
REMARK    2  A    between atoms: C_6  and  C_7 
REMARK    3  A    between atoms: C_8  and  C_9 
REMARK    4  A    between atoms: C_9  and  O_10 
REMARK    5  A    between atoms: O_10  and  C_11 
REMARK    6  A    between atoms: C_14  and  C_15 
REMARK    7  A    between atoms: C_17  and  O_18 
REMARK    8  A    between atoms: N_26  and  C_28 
REMARK    9  A    between atoms: C_28  and  C_29 
ROOT
HETATM    1  C   UNL     1       3.402  30.949  55.618  1.00  0.00     0.243 C 
HETATM    2  N   UNL     1       3.402  30.118  56.840  1.00  0.00    -0.235 NA
HETATM    3  C   UNL     1       3.504  30.753  57.947  1.00  0.00     0.173 C 
HETATM    4  C   UNL     1       3.690  32.177  58.081  1.00  0.00     0.057 A 
HETATM    5  C   UNL     1       3.926  32.881  56.926  1.00  0.00     0.087 A 
HETATM    6  S   UNL     1       4.189  34.533  57.188  1.00  0.00    -0.074 SA
HETATM    7  C   UNL     1       3.998  34.340  58.865  1.00  0.00     0.018 A 
HETATM    8  C   UNL     1       3.713  33.033  59.230  1.00  0.00    -0.024 A 
HETATM    9  C   UNL     1       3.526  32.647  60.669  1.00  0.00     0.068 C 
HETATM   10  C   UNL     1       3.409  33.879  61.593  1.00  0.00     0.240 C 
HETATM   11  N   UNL     1       4.396  34.982  61.223  1.00  0.00    -0.063 N 
HETATM   12  H   UNL     1       4.214  35.783  61.836  1.00  0.00     0.280 HD
HETATM   13  C   UNL     1       4.127  35.482  59.809  1.00  0.00     0.282 C 
HETATM   14  N   UNL     1       3.969  32.283  55.726  1.00  0.00    -0.357 N 
HETATM   15  H   UNL     1       4.001  32.821  54.865  1.00  0.00     0.162 HD
ENDROOT
BRANCH   1  16
HETATM   16  C   UNL     1       4.110  30.265  54.457  1.00  0.00    -0.014 A 
HETATM   17  C   UNL     1       5.136  29.337  54.716  1.00  0.00     0.014 A 
HETATM   18  C   UNL     1       5.709  28.591  53.682  1.00  0.00     0.038 A 
HETATM   19  C   UNL     1       5.266  28.779  52.377  1.00  0.00     0.079 A 
HETATM   20  C   UNL     1       4.265  29.710  52.094  1.00  0.00     0.038 A 
HETATM   21  C   UNL     1       3.687  30.446  53.131  1.00  0.00     0.014 A 
BRANCH  19  22
HETATM   22  O   UNL     1       5.674  27.984  51.281  1.00  0.00    -0.276 OA
BRANCH  22  23
HETATM   23  C   UNL     1       5.213  26.703  51.014  1.00  0.00     0.288 C 
HETATM   24  O   UNL     1       4.624  26.318  50.016  1.00  0.00    -0.260 OA
BRANCH  23  25
HETATM   25  C   UNL     1       5.616  25.777  52.098  1.00  0.00     0.083 C 
HETATM   26  C   UNL     1       6.794  25.135  52.139  1.00  0.00     0.017 C 
BRANCH  26  27
HETATM   27  C   UNL     1       7.129  24.148  53.167  1.00  0.00    -0.036 A 
HETATM   28  C   UNL     1       7.918  23.029  52.870  1.00  0.00     0.014 A 
HETATM   29  C   UNL     1       8.308  22.141  53.879  1.00  0.00     0.037 A 
HETATM   30  C   UNL     1       7.916  22.366  55.198  1.00  0.00     0.068 A 
HETATM   31  C   UNL     1       7.116  23.471  55.494  1.00  0.00     0.037 A 
HETATM   32  C   UNL     1       6.731  24.364  54.489  1.00  0.00     0.014 A 
BRANCH  30  33
HETATM   33  O   UNL     1       8.244  21.590  56.276  1.00  0.00    -0.356 OA
HETATM   34  C   UNL     1       9.034  20.436  56.016  1.00  0.00     0.210 C 
ENDBRANCH  30  33
ENDBRANCH  26  27
ENDBRANCH  23  25
ENDBRANCH  22  23
ENDBRANCH  19  22
ENDBRANCH   1  16
BRANCH   3  35
HETATM   35  O   UNL     1       3.456  30.049  59.091  1.00  0.00    -0.344 OA
HETATM   36  H   UNL     1       4.263  29.502  59.110  1.00  0.00     0.219 HD
ENDBRANCH   3  35
BRANCH  11  37
HETATM   37  C   UNL     1       5.835  34.588  61.477  1.00  0.00     0.273 C 
BRANCH  37  38
HETATM   38  C   UNL     1       6.144  34.309  62.922  1.00  0.00    -0.033 A 
HETATM   39  C   UNL     1       5.517  35.032  63.949  1.00  0.00     0.009 A 
HETATM   40  C   UNL     1       5.841  34.781  65.284  1.00  0.00     0.001 A 
HETATM   41  C   UNL     1       6.785  33.808  65.605  1.00  0.00     0.000 A 
HETATM   42  C   UNL     1       7.408  33.080  64.595  1.00  0.00     0.001 A 
HETATM   43  C   UNL     1       7.091  33.327  63.260  1.00  0.00     0.009 A 
ENDBRANCH  37  38
ENDBRANCH  11  37
TORSDOF 9
ENDMDL
MODEL 6
REMARK VINA RESULT:     -10.3      4.629      7.868
REMARK  9 active torsions:
REMARK  status: ('A' for Active; 'I' for Inactive)
REMARK    1  A    between atoms: O_2  and  C_3 
REMARK    2  A    between atoms: C_6  and  C_7 
REMARK    3  A    between atoms: C_8  and  C_9 
REMARK    4  A    between atoms: C_9  and  O_10 
REMARK    5  A    between atoms: O_10  and  C_11 
REMARK    6  A    between atoms: C_14  and  C_15 
REMARK    7  A    between atoms: C_17  and  O_18 
REMARK    8  A    between atoms: N_26  and  C_28 
REMARK    9  A    between atoms: C_28  and  C_29 
ROOT
HETATM    1  C   UNL     1       5.004  28.379  55.717  1.00  0.00     0.243 C 
HETATM    2  N   UNL     1       4.125  29.486  55.287  1.00  0.00    -0.235 NA
HETATM    3  C   UNL     1       3.801  29.493  54.048  1.00  0.00     0.173 C 
HETATM    4  C   UNL     1       4.279  28.566  53.052  1.00  0.00     0.057 A 
HETATM    5  C   UNL     1       5.274  27.703  53.439  1.00  0.00     0.087 A 
HETATM    6  S   UNL     1       5.811  26.693  52.190  1.00  0.00    -0.074 SA
HETATM    7  C   UNL     1       4.718  27.398  51.095  1.00  0.00     0.018 A 
HETATM    8  C   UNL     1       3.931  28.381  51.674  1.00  0.00    -0.024 A 
HETATM    9  C   UNL     1       2.914  29.140  50.872  1.00  0.00     0.068 C 
HETATM   10  C   UNL     1       2.678  28.510  49.482  1.00  0.00     0.240 C 
HETATM   11  N   UNL     1       3.973  28.045  48.824  1.00  0.00    -0.063 N 
HETATM   12  H   UNL     1       3.728  27.584  47.942  1.00  0.00     0.280 HD
HETATM   13  C   UNL     1       4.644  26.972  49.673  1.00  0.00     0.282 C 
HETATM   14  N   UNL     1       5.775  27.707  54.683  1.00  0.00    -0.357 N 
HETATM   15  H   UNL     1       6.405  26.979  55.005  1.00  0.00     0.162 HD
ENDROOT
BRANCH   1  16
HETATM   16  C   UNL     1       5.992  28.810  56.790  1.00  0.00    -0.014 A 
HETATM   17  C   UNL     1       6.989  27.913  57.220  1.00  0.00     0.014 A 
HETATM   18  C   UNL     1       7.994  28.324  58.099  1.00  0.00     0.038 A 
HETATM   19  C   UNL     1       8.002  29.635  58.564  1.00  0.00     0.079 A 
HETATM   20  C   UNL     1       7.011  30.535  58.168  1.00  0.00     0.038 A 
HETATM   21  C   UNL     1       6.014  30.125  57.281  1.00  0.00     0.014 A 
BRANCH  19  22
HETATM   22  O   UNL     1       9.044  30.192  59.342  1.00  0.00    -0.276 OA
BRANCH  22  23
HETATM   23  C   UNL     1       9.499  31.499  59.239  1.00  0.00     0.288 C 
HETATM   24  O   UNL     1      10.279  31.951  58.415  1.00  0.00    -0.260 OA
BRANCH  23  25
HETATM   25  C   UNL     1       8.827  32.357  60.242  1.00  0.00     0.083 C 
HETATM   26  C   UNL     1       8.493  31.950  61.476  1.00  0.00     0.017 C 
BRANCH  26  27
HETATM   27  C   UNL     1       7.739  32.784  62.414  1.00  0.00    -0.036 A 
HETATM   28  C   UNL     1       6.689  33.601  61.976  1.00  0.00     0.014 A 
HETATM   29  C   UNL     1       5.916  34.324  62.893  1.00  0.00     0.037 A 
HETATM   30  C   UNL     1       6.182  34.232  64.258  1.00  0.00     0.068 A 
HETATM   31  C   UNL     1       7.239  33.431  64.695  1.00  0.00     0.037 A 
HETATM   32  C   UNL     1       8.008  32.702  63.783  1.00  0.00     0.014 A 
BRANCH  30  33
HETATM   33  O   UNL     1       5.494  34.867  65.255  1.00  0.00    -0.356 OA
HETATM   34  C   UNL     1       5.076  34.065  66.354  1.00  0.00     0.210 C 
ENDBRANCH  30  33
ENDBRANCH  26  27
ENDBRANCH  23  25
ENDBRANCH  22  23
ENDBRANCH  19  22
ENDBRANCH   1  16
BRANCH   3  35
HETATM   35  O   UNL     1       2.962  30.451  53.615  1.00  0.00    -0.344 OA
HETATM   36  H   UNL     1       3.256  30.686  52.716  1.00  0.00     0.219 HD
ENDBRANCH   3  35
BRANCH  11  37
HETATM   37  C   UNL     1       4.883  29.196  48.450  1.00  0.00     0.273 C 
BRANCH  37  38
HETATM   38  C   UNL     1       4.179  30.327  47.752  1.00  0.00    -0.033 A 
HETATM   39  C   UNL     1       4.204  31.628  48.277  1.00  0.00     0.009 A 
HETATM   40  C   UNL     1       3.518  32.660  47.632  1.00  0.00     0.001 A 
HETATM   41  C   UNL     1       2.807  32.403  46.461  1.00  0.00     0.000 A 
HETATM   42  C   UNL     1       2.781  31.118  45.928  1.00  0.00     0.001 A 
HETATM   43  C   UNL     1       3.463  30.083  46.568  1.00  0.00     0.009 A 
ENDBRANCH  37  38
ENDBRANCH  11  37
TORSDOF 9
ENDMDL
MODEL 7
REMARK VINA RESULT:     -10.2      4.145     14.133
REMARK  9 active torsions:
REMARK  status: ('A' for Active; 'I' for Inactive)
REMARK    1  A    between atoms: O_2  and  C_3 
REMARK    2  A    between atoms: C_6  and  C_7 
REMARK    3  A    between atoms: C_8  and  C_9 
REMARK    4  A    between atoms: C_9  and  O_10 
REMARK    5  A    between atoms: O_10  and  C_11 
REMARK    6  A    between atoms: C_14  and  C_15 
REMARK    7  A    between atoms: C_17  and  O_18 
REMARK    8  A    between atoms: N_26  and  C_28 
REMARK    9  A    between atoms: C_28  and  C_29 
ROOT
HETATM    1  C   UNL     1       3.273  31.284  57.450  1.00  0.00     0.243 C 
HETATM    2  N   UNL     1       3.154  30.665  58.787  1.00  0.00    -0.235 NA
HETATM    3  C   UNL     1       3.213  31.469  59.781  1.00  0.00     0.173 C 
HETATM    4  C   UNL     1       3.456  32.888  59.698  1.00  0.00     0.057 A 
HETATM    5  C   UNL     1       3.799  33.384  58.465  1.00  0.00     0.087 A 
HETATM    6  S   UNL     1       4.121  35.047  58.476  1.00  0.00    -0.074 SA
HETATM    7  C   UNL     1       3.813  35.137  60.144  1.00  0.00     0.018 A 
HETATM    8  C   UNL     1       3.444  33.919  60.693  1.00  0.00    -0.024 A 
HETATM    9  C   UNL     1       3.146  33.781  62.158  1.00  0.00     0.068 C 
HETATM   10  C   UNL     1       3.027  35.151  62.862  1.00  0.00     0.240 C 
HETATM   11  N   UNL     1       4.086  36.143  62.391  1.00  0.00    -0.063 N 
HETATM   12  H   UNL     1       3.902  37.039  62.852  1.00  0.00     0.280 HD
HETATM   13  C   UNL     1       3.933  36.413  60.898  1.00  0.00     0.282 C 
HETATM   14  N   UNL     1       3.893  32.597  57.383  1.00  0.00    -0.357 N 
HETATM   15  H   UNL     1       4.005  32.985  56.451  1.00  0.00     0.162 HD
ENDROOT
BRANCH   1  16
HETATM   16  C   UNL     1       4.022  30.395  56.468  1.00  0.00    -0.014 A 
HETATM   17  C   UNL     1       3.627  30.362  55.117  1.00  0.00     0.014 A 
HETATM   18  C   UNL     1       4.378  29.667  54.165  1.00  0.00     0.038 A 
HETATM   19  C   UNL     1       5.525  28.989  54.562  1.00  0.00     0.079 A 
HETATM   20  C   UNL     1       5.923  28.989  55.901  1.00  0.00     0.038 A 
HETATM   21  C   UNL     1       5.177  29.694  56.848  1.00  0.00     0.014 A 
BRANCH  19  22
HETATM   22  O   UNL     1       6.430  28.373  53.667  1.00  0.00    -0.276 OA
BRANCH  22  23
HETATM   23  C   UNL     1       6.064  27.582  52.587  1.00  0.00     0.288 C 
HETATM   24  O   UNL     1       5.732  27.955  51.472  1.00  0.00    -0.260 OA
BRANCH  23  25
HETATM   25  C   UNL     1       6.214  26.148  52.926  1.00  0.00     0.083 C 
HETATM   26  C   UNL     1       7.259  25.640  53.598  1.00  0.00     0.017 C 
BRANCH  26  27
HETATM   27  C   UNL     1       7.434  24.205  53.833  1.00  0.00    -0.036 A 
HETATM   28  C   UNL     1       7.773  23.335  52.789  1.00  0.00     0.014 A 
HETATM   29  C   UNL     1       8.027  21.982  53.041  1.00  0.00     0.037 A 
HETATM   30  C   UNL     1       7.951  21.486  54.342  1.00  0.00     0.068 A 
HETATM   31  C   UNL     1       7.598  22.349  55.382  1.00  0.00     0.037 A 
HETATM   32  C   UNL     1       7.351  23.703  55.135  1.00  0.00     0.014 A 
BRANCH  30  33
HETATM   33  O   UNL     1       8.194  20.196  54.725  1.00  0.00    -0.356 OA
HETATM   34  C   UNL     1       8.764  20.010  56.016  1.00  0.00     0.210 C 
ENDBRANCH  30  33
ENDBRANCH  26  27
ENDBRANCH  23  25
ENDBRANCH  22  23
ENDBRANCH  19  22
ENDBRANCH   1  16
BRANCH   3  35
HETATM   35  O   UNL     1       3.058  30.963  61.018  1.00  0.00    -0.344 OA
HETATM   36  H   UNL     1       3.828  30.386  61.176  1.00  0.00     0.219 HD
ENDBRANCH   3  35
BRANCH  11  37
HETATM   37  C   UNL     1       5.485  35.744  62.807  1.00  0.00     0.273 C 
BRANCH  37  38
HETATM   38  C   UNL     1       5.596  35.326  64.248  1.00  0.00    -0.033 A 
HETATM   39  C   UNL     1       6.434  34.267  64.631  1.00  0.00     0.009 A 
HETATM   40  C   UNL     1       6.500  33.872  65.969  1.00  0.00     0.001 A 
HETATM   41  C   UNL     1       5.738  34.530  66.932  1.00  0.00     0.000 A 
HETATM   42  C   UNL     1       4.909  35.587  66.564  1.00  0.00     0.001 A 
HETATM   43  C   UNL     1       4.837  35.984  65.229  1.00  0.00     0.009 A 
ENDBRANCH  37  38
ENDBRANCH  11  37
TORSDOF 9
ENDMDL
MODEL 8
REMARK VINA RESULT:     -10.1      5.156     14.426
REMARK  9 active torsions:
REMARK  status: ('A' for Active; 'I' for Inactive)
REMARK    1  A    between atoms: O_2  and  C_3 
REMARK    2  A    between atoms: C_6  and  C_7 
REMARK    3  A    between atoms: C_8  and  C_9 
REMARK    4  A    between atoms: C_9  and  O_10 
REMARK    5  A    between atoms: O_10  and  C_11 
REMARK    6  A    between atoms: C_14  and  C_15 
REMARK    7  A    between atoms: C_17  and  O_18 
REMARK    8  A    between atoms: N_26  and  C_28 
REMARK    9  A    between atoms: C_28  and  C_29 
ROOT
HETATM    1  C   UNL     1       3.354  31.623  57.561  1.00  0.00     0.243 C 
HETATM    2  N   UNL     1       3.369  31.115  58.948  1.00  0.00    -0.235 NA
HETATM    3  C   UNL     1       3.392  32.004  59.869  1.00  0.00     0.173 C 
HETATM    4  C   UNL     1       3.479  33.427  59.657  1.00  0.00     0.057 A 
HETATM    5  C   UNL     1       3.705  33.847  58.369  1.00  0.00     0.087 A 
HETATM    6  S   UNL     1       3.850  35.528  58.226  1.00  0.00    -0.074 SA
HETATM    7  C   UNL     1       3.617  35.732  59.897  1.00  0.00     0.018 A 
HETATM    8  C   UNL     1       3.407  34.535  60.564  1.00  0.00    -0.024 A 
HETATM    9  C   UNL     1       3.199  34.495  62.050  1.00  0.00     0.068 C 
HETATM   10  C   UNL     1       2.971  35.902  62.645  1.00  0.00     0.240 C 
HETATM   11  N   UNL     1       3.894  36.951  62.034  1.00  0.00    -0.063 N 
HETATM   12  H   UNL     1       3.639  37.861  62.431  1.00  0.00     0.280 HD
HETATM   13  C   UNL     1       3.639  37.074  60.536  1.00  0.00     0.282 C 
HETATM   14  N   UNL     1       3.827  32.982  57.351  1.00  0.00    -0.357 N 
HETATM   15  H   UNL     1       3.851  33.297  56.386  1.00  0.00     0.162 HD
ENDROOT
BRANCH   1  16
HETATM   16  C   UNL     1       4.144  30.733  56.612  1.00  0.00    -0.014 A 
HETATM   17  C   UNL     1       5.429  30.291  56.979  1.00  0.00     0.014 A 
HETATM   18  C   UNL     1       6.121  29.364  56.196  1.00  0.00     0.038 A 
HETATM   19  C   UNL     1       5.534  28.880  55.031  1.00  0.00     0.079 A 
HETATM   20  C   UNL     1       4.270  29.321  54.637  1.00  0.00     0.038 A 
HETATM   21  C   UNL     1       3.576  30.240  55.427  1.00  0.00     0.014 A 
BRANCH  19  22
HETATM   22  O   UNL     1       6.081  27.842  54.242  1.00  0.00    -0.276 OA
BRANCH  22  23
HETATM   23  C   UNL     1       7.435  27.665  53.990  1.00  0.00     0.288 C 
HETATM   24  O   UNL     1       8.288  28.531  53.870  1.00  0.00    -0.260 OA
BRANCH  23  25
HETATM   25  C   UNL     1       7.769  26.222  53.970  1.00  0.00     0.083 C 
HETATM   26  C   UNL     1       6.856  25.240  53.895  1.00  0.00     0.017 C 
BRANCH  26  27
HETATM   27  C   UNL     1       7.204  23.820  53.979  1.00  0.00    -0.036 A 
HETATM   28  C   UNL     1       7.519  23.082  52.831  1.00  0.00     0.014 A 
HETATM   29  C   UNL     1       7.938  21.750  52.931  1.00  0.00     0.037 A 
HETATM   30  C   UNL     1       8.053  21.145  54.182  1.00  0.00     0.068 A 
HETATM   31  C   UNL     1       7.724  21.875  55.326  1.00  0.00     0.037 A 
HETATM   32  C   UNL     1       7.312  23.207  55.230  1.00  0.00     0.014 A 
BRANCH  30  33
HETATM   33  O   UNL     1       8.468  19.863  54.418  1.00  0.00    -0.356 OA
HETATM   34  C   UNL     1       9.032  19.601  55.698  1.00  0.00     0.210 C 
ENDBRANCH  30  33
ENDBRANCH  26  27
ENDBRANCH  23  25
ENDBRANCH  22  23
ENDBRANCH  19  22
ENDBRANCH   1  16
BRANCH   3  35
HETATM   35  O   UNL     1       3.354  31.595  61.150  1.00  0.00    -0.344 OA
HETATM   36  H   UNL     1       2.798  30.793  61.165  1.00  0.00     0.219 HD
ENDBRANCH   3  35
BRANCH  11  37
HETATM   37  C   UNL     1       5.347  36.735  62.398  1.00  0.00     0.273 C 
BRANCH  37  38
HETATM   38  C   UNL     1       6.117  38.009  62.615  1.00  0.00    -0.033 A 
HETATM   39  C   UNL     1       6.073  38.680  63.847  1.00  0.00     0.009 A 
HETATM   40  C   UNL     1       6.769  39.878  64.020  1.00  0.00     0.001 A 
HETATM   41  C   UNL     1       7.515  40.412  62.971  1.00  0.00     0.000 A 
HETATM   42  C   UNL     1       7.571  39.752  61.747  1.00  0.00     0.001 A 
HETATM   43  C   UNL     1       6.876  38.556  61.567  1.00  0.00     0.009 A 
ENDBRANCH  37  38
ENDBRANCH  11  37
TORSDOF 9
ENDMDL
MODEL 9
REMARK VINA RESULT:     -10.0      2.262      3.323
REMARK  9 active torsions:
REMARK  status: ('A' for Active; 'I' for Inactive)
REMARK    1  A    between atoms: O_2  and  C_3 
REMARK    2  A    between atoms: C_6  and  C_7 
REMARK    3  A    between atoms: C_8  and  C_9 
REMARK    4  A    between atoms: C_9  and  O_10 
REMARK    5  A    between atoms: O_10  and  C_11 
REMARK    6  A    between atoms: C_14  and  C_15 
REMARK    7  A    between atoms: C_17  and  O_18 
REMARK    8  A    between atoms: N_26  and  C_28 
REMARK    9  A    between atoms: C_28  and  C_29 
ROOT
HETATM    1  C   UNL     1       5.885  30.989  57.033  1.00  0.00     0.243 C 
HETATM    2  N   UNL     1       7.262  30.467  57.153  1.00  0.00    -0.235 NA
HETATM    3  C   UNL     1       7.521  29.413  56.473  1.00  0.00     0.173 C 
HETATM    4  C   UNL     1       6.571  28.674  55.678  1.00  0.00     0.057 A 
HETATM    5  C   UNL     1       5.255  29.050  55.782  1.00  0.00     0.087 A 
HETATM    6  S   UNL     1       4.208  28.091  54.859  1.00  0.00    -0.074 SA
HETATM    7  C   UNL     1       5.502  27.143  54.301  1.00  0.00     0.018 A 
HETATM    8  C   UNL     1       6.730  27.560  54.790  1.00  0.00    -0.024 A 
HETATM    9  C   UNL     1       7.999  26.844  54.432  1.00  0.00     0.068 C 
HETATM   10  C   UNL     1       7.793  25.830  53.284  1.00  0.00     0.240 C 
HETATM   11  N   UNL     1       6.490  25.049  53.422  1.00  0.00    -0.063 N 
HETATM   12  H   UNL     1       6.396  24.449  52.596  1.00  0.00     0.280 HD
HETATM   13  C   UNL     1       5.296  25.995  53.378  1.00  0.00     0.282 C 
HETATM   14  N   UNL     1       4.864  30.061  56.573  1.00  0.00    -0.357 N 
HETATM   15  H   UNL     1       3.917  30.426  56.540  1.00  0.00     0.162 HD
ENDROOT
BRANCH   1  16
HETATM   16  C   UNL     1       5.378  31.585  58.338  1.00  0.00    -0.014 A 
HETATM   17  C   UNL     1       4.001  31.556  58.629  1.00  0.00     0.014 A 
HETATM   18  C   UNL     1       3.521  31.967  59.875  1.00  0.00     0.038 A 
HETATM   19  C   UNL     1       4.417  32.422  60.836  1.00  0.00     0.079 A 
HETATM   20  C   UNL     1       5.784  32.481  60.562  1.00  0.00     0.038 A 
HETATM   21  C   UNL     1       6.263  32.059  59.319  1.00  0.00     0.014 A 
BRANCH  19  22
HETATM   22  O   UNL     1       4.059  32.730  62.169  1.00  0.00    -0.276 OA
BRANCH  22  23
HETATM   23  C   UNL     1       4.324  33.935  62.805  1.00  0.00     0.288 C 
HETATM   24  O   UNL     1       4.268  35.056  62.325  1.00  0.00    -0.260 OA
BRANCH  23  25
HETATM   25  C   UNL     1       4.614  33.706  64.239  1.00  0.00     0.083 C 
HETATM   26  C   UNL     1       5.123  34.636  65.061  1.00  0.00     0.017 C 
BRANCH  26  27
HETATM   27  C   UNL     1       5.496  34.356  66.450  1.00  0.00    -0.036 A 
HETATM   28  C   UNL     1       6.823  34.473  66.882  1.00  0.00     0.014 A 
HETATM   29  C   UNL     1       7.153  34.291  68.231  1.00  0.00     0.037 A 
HETATM   30  C   UNL     1       6.158  33.998  69.161  1.00  0.00     0.068 A 
HETATM   31  C   UNL     1       4.836  33.865  68.729  1.00  0.00     0.037 A 
HETATM   32  C   UNL     1       4.502  34.053  67.384  1.00  0.00     0.014 A 
BRANCH  30  33
HETATM   33  O   UNL     1       6.342  33.817  70.505  1.00  0.00    -0.356 OA
HETATM   34  C   UNL     1       7.651  33.451  70.926  1.00  0.00     0.210 C 
ENDBRANCH  30  33
ENDBRANCH  26  27
ENDBRANCH  23  25
ENDBRANCH  22  23
ENDBRANCH  19  22
ENDBRANCH   1  16
BRANCH   3  35
HETATM   35  O   UNL     1       8.775  28.927  56.506  1.00  0.00    -0.344 OA
HETATM   36  H   UNL     1       9.268  29.394  55.808  1.00  0.00     0.219 HD
ENDBRANCH   3  35
BRANCH  11  37
HETATM   37  C   UNL     1       6.494  24.114  54.612  1.00  0.00     0.273 C 
BRANCH  37  38
HETATM   38  C   UNL     1       7.261  22.840  54.384  1.00  0.00    -0.033 A 
HETATM   39  C   UNL     1       7.565  22.401  53.086  1.00  0.00     0.009 A 
HETATM   40  C   UNL     1       8.250  21.200  52.892  1.00  0.00     0.001 A 
HETATM   41  C   UNL     1       8.640  20.432  53.987  1.00  0.00     0.000 A 
HETATM   42  C   UNL     1       8.351  20.861  55.279  1.00  0.00     0.001 A 
HETATM   43  C   UNL     1       7.665  22.058  55.479  1.00  0.00     0.009 A 
ENDBRANCH  37  38
ENDBRANCH  11  37
TORSDOF 9
ENDMDL
MODEL 10
REMARK VINA RESULT:      -9.5      4.600     14.211
REMARK  9 active torsions:
REMARK  status: ('A' for Active; 'I' for Inactive)
REMARK    1  A    between atoms: O_2  and  C_3 
REMARK    2  A    between atoms: C_6  and  C_7 
REMARK    3  A    between atoms: C_8  and  C_9 
REMARK    4  A    between atoms: C_9  and  O_10 
REMARK    5  A    between atoms: O_10  and  C_11 
REMARK    6  A    between atoms: C_14  and  C_15 
REMARK    7  A    between atoms: C_17  and  O_18 
REMARK    8  A    between atoms: N_26  and  C_28 
REMARK    9  A    between atoms: C_28  and  C_29 
ROOT
HETATM    1  C   UNL     1       5.262  30.590  58.664  1.00  0.00     0.243 C 
HETATM    2  N   UNL     1       6.614  31.082  58.998  1.00  0.00    -0.235 NA
HETATM    3  C   UNL     1       6.665  32.050  59.835  1.00  0.00     0.173 C 
HETATM    4  C   UNL     1       5.525  32.728  60.402  1.00  0.00     0.057 A 
HETATM    5  C   UNL     1       4.295  32.404  59.887  1.00  0.00     0.087 A 
HETATM    6  S   UNL     1       3.025  33.289  60.573  1.00  0.00    -0.074 SA
HETATM    7  C   UNL     1       4.103  34.136  61.577  1.00  0.00     0.018 A 
HETATM    8  C   UNL     1       5.420  33.737  61.414  1.00  0.00    -0.024 A 
HETATM    9  C   UNL     1       6.532  34.375  62.195  1.00  0.00     0.068 C 
HETATM   10  C   UNL     1       6.003  35.268  63.341  1.00  0.00     0.240 C 
HETATM   11  N   UNL     1       4.792  36.097  62.923  1.00  0.00    -0.063 N 
HETATM   12  H   UNL     1       4.464  36.608  63.748  1.00  0.00     0.280 HD
HETATM   13  C   UNL     1       3.638  35.185  62.522  1.00  0.00     0.282 C 
HETATM   14  N   UNL     1       4.150  31.493  58.912  1.00  0.00    -0.357 N 
HETATM   15  H   UNL     1       3.234  31.153  58.634  1.00  0.00     0.162 HD
ENDROOT
BRANCH   1  16
HETATM   16  C   UNL     1       5.151  30.150  57.211  1.00  0.00    -0.014 A 
HETATM   17  C   UNL     1       6.278  29.613  56.559  1.00  0.00     0.014 A 
HETATM   18  C   UNL     1       6.174  29.072  55.275  1.00  0.00     0.038 A 
HETATM   19  C   UNL     1       4.943  29.076  54.628  1.00  0.00     0.079 A 
HETATM   20  C   UNL     1       3.818  29.623  55.248  1.00  0.00     0.038 A 
HETATM   21  C   UNL     1       3.921  30.153  56.536  1.00  0.00     0.014 A 
BRANCH  19  22
HETATM   22  O   UNL     1       4.696  28.434  53.393  1.00  0.00    -0.276 OA
BRANCH  22  23
HETATM   23  C   UNL     1       5.678  27.972  52.528  1.00  0.00     0.288 C 
HETATM   24  O   UNL     1       6.325  28.623  51.722  1.00  0.00    -0.260 OA
BRANCH  23  25
HETATM   25  C   UNL     1       5.934  26.532  52.765  1.00  0.00     0.083 C 
HETATM   26  C   UNL     1       6.757  26.062  53.715  1.00  0.00     0.017 C 
BRANCH  26  27
HETATM   27  C   UNL     1       7.072  24.639  53.865  1.00  0.00    -0.036 A 
HETATM   28  C   UNL     1       7.585  23.894  52.795  1.00  0.00     0.014 A 
HETATM   29  C   UNL     1       7.968  22.559  52.974  1.00  0.00     0.037 A 
HETATM   30  C   UNL     1       7.848  21.958  54.226  1.00  0.00     0.068 A 
HETATM   31  C   UNL     1       7.322  22.696  55.289  1.00  0.00     0.037 A 
HETATM   32  C   UNL     1       6.946  24.031  55.116  1.00  0.00     0.014 A 
BRANCH  30  33
HETATM   33  O   UNL     1       8.203  20.675  54.539  1.00  0.00    -0.356 OA
HETATM   34  C   UNL     1       9.325  20.514  55.398  1.00  0.00     0.210 C 
ENDBRANCH  30  33
ENDBRANCH  26  27
ENDBRANCH  23  25
ENDBRANCH  22  23
ENDBRANCH  19  22
ENDBRANCH   1  16
BRANCH   3  35
HETATM   35  O   UNL     1       7.874  32.502  60.213  1.00  0.00    -0.344 OA
HETATM   36  H   UNL     1       8.464  32.378  59.447  1.00  0.00     0.219 HD
ENDBRANCH   3  35
BRANCH  11  37
HETATM   37  C   UNL     1       5.134  37.151  61.893  1.00  0.00     0.273 C 
BRANCH  37  38
HETATM   38  C   UNL     1       5.941  38.297  62.439  1.00  0.00    -0.033 A 
HETATM   39  C   UNL     1       6.867  38.979  61.634  1.00  0.00     0.009 A 
HETATM   40  C   UNL     1       7.630  40.020  62.168  1.00  0.00     0.001 A 
HETATM   41  C   UNL     1       7.473  40.391  63.502  1.00  0.00     0.000 A 
HETATM   42  C   UNL     1       6.553  39.727  64.307  1.00  0.00     0.001 A 
HETATM   43  C   UNL     1       5.790  38.685  63.781  1.00  0.00     0.009 A 
ENDBRANCH  37  38
ENDBRANCH  11  37
TORSDOF 9
ENDMDL
