MODEL 1
REMARK VINA RESULT:      -9.6      0.000      0.000
REMARK  3 active torsions:
REMARK  status: ('A' for Active; 'I' for Inactive)
REMARK    1  A    between atoms: C_6  and  C_7 
REMARK       I    between atoms: C_7  and  N_8 
REMARK    2  A    between atoms: N_8  and  C_9 
REMARK    3  A    between atoms: N_12  and  C_13 
ROOT
HETATM    1  C   UNL     1       6.618  27.706  56.308  1.00  0.00     0.177 C 
HETATM    2  C   UNL     1       7.794  28.363  57.063  1.00  0.00     0.248 C 
HETATM    3  O   UNL     1       8.884  27.787  57.092  1.00  0.00    -0.271 OA
HETATM    4  N   UNL     1       7.447  29.586  57.672  1.00  0.00    -0.299 N 
HETATM    5  C   UNL     1       6.114  30.122  57.403  1.00  0.00     0.134 C 
HETATM    6  C   UNL     1       5.798  30.079  55.912  1.00  0.00     0.023 C 
HETATM    7  C   UNL     1       5.992  28.685  55.319  1.00  0.00     0.036 C 
ENDROOT
BRANCH   1   8
HETATM    8  N   UNL     1       7.082  26.504  55.633  1.00  0.00    -0.344 N 
HETATM    9  C   UNL     1       6.404  25.313  55.704  1.00  0.00     0.253 C 
HETATM   10  O   UNL     1       5.321  25.173  56.257  1.00  0.00    -0.268 OA
HETATM   11  H   UNL     1       8.006  26.546  55.212  1.00  0.00     0.163 HD
BRANCH   9  12
HETATM   12  C   UNL     1       7.068  24.174  55.017  1.00  0.00     0.043 A 
HETATM   13  C   UNL     1       6.762  23.873  53.673  1.00  0.00    -0.045 A 
HETATM   14  C   UNL     1       7.377  22.760  53.074  1.00  0.00     0.014 A 
HETATM   15  C   UNL     1       5.788  24.680  52.860  1.00  0.00     0.049 C 
HETATM   16  C   UNL     1       8.306  21.983  53.774  1.00  0.00    -0.061 A 
HETATM   17  C   UNL     1       8.977  20.809  53.121  1.00  0.00     0.048 C 
HETATM   18  C   UNL     1       8.624  22.319  55.094  1.00  0.00     0.014 A 
HETATM   19  C   UNL     1       8.008  23.405  55.734  1.00  0.00    -0.045 A 
HETATM   20  C   UNL     1       8.384  23.730  57.154  1.00  0.00     0.049 C 
ENDBRANCH   9  12
ENDBRANCH   1   8
BRANCH   4  21
HETATM   21  C   UNL     1       8.327  30.210  58.572  1.00  0.00     0.154 A 
HETATM   22  N   UNL     1       8.323  30.003  59.892  1.00  0.00    -0.155 NA
HETATM   23  N   UNL     1       9.278  30.797  60.387  1.00  0.00    -0.283 N 
HETATM   24  C   UNL     1       9.525  30.818  61.807  1.00  0.00     0.179 C 
HETATM   25  C   UNL     1       9.927  31.517  59.435  1.00  0.00     0.115 A 
HETATM   26  C   UNL     1       9.334  31.165  58.246  1.00  0.00     0.071 A 
ENDBRANCH   4  21
TORSDOF 3
ENDMDL
MODEL 2
REMARK VINA RESULT:      -9.3      0.797      1.899
REMARK  3 active torsions:
REMARK  status: ('A' for Active; 'I' for Inactive)
REMARK    1  A    between atoms: C_6  and  C_7 
REMARK       I    between atoms: C_7  and  N_8 
REMARK    2  A    between atoms: N_8  and  C_9 
REMARK    3  A    between atoms: N_12  and  C_13 
ROOT
HETATM    1  C   UNL     1       6.467  28.240  56.679  1.00  0.00     0.177 C 
HETATM    2  C   UNL     1       7.610  28.903  57.478  1.00  0.00     0.248 C 
HETATM    3  O   UNL     1       8.698  28.328  57.556  1.00  0.00    -0.271 OA
HETATM    4  N   UNL     1       7.238  30.131  58.062  1.00  0.00    -0.299 N 
HETATM    5  C   UNL     1       5.917  30.663  57.734  1.00  0.00     0.134 C 
HETATM    6  C   UNL     1       5.663  30.609  56.232  1.00  0.00     0.023 C 
HETATM    7  C   UNL     1       5.882  29.212  55.657  1.00  0.00     0.036 C 
ENDROOT
BRANCH   1   8
HETATM    8  N   UNL     1       6.959  27.033  56.033  1.00  0.00    -0.344 N 
HETATM    9  C   UNL     1       6.432  25.793  56.292  1.00  0.00     0.253 C 
HETATM   10  O   UNL     1       5.458  25.599  57.009  1.00  0.00    -0.268 OA
HETATM   11  H   UNL     1       7.805  27.127  55.476  1.00  0.00     0.163 HD
BRANCH   9  12
HETATM   12  C   UNL     1       7.112  24.667  55.600  1.00  0.00     0.043 A 
HETATM   13  C   UNL     1       8.228  24.035  56.189  1.00  0.00    -0.045 A 
HETATM   14  C   UNL     1       8.871  23.005  55.482  1.00  0.00     0.014 A 
HETATM   15  C   UNL     1       8.771  24.431  57.534  1.00  0.00     0.049 C 
HETATM   16  C   UNL     1       8.400  22.580  54.235  1.00  0.00    -0.061 A 
HETATM   17  C   UNL     1       9.078  21.464  53.494  1.00  0.00     0.048 C 
HETATM   18  C   UNL     1       7.271  23.194  53.683  1.00  0.00     0.014 A 
HETATM   19  C   UNL     1       6.620  24.246  54.348  1.00  0.00    -0.045 A 
HETATM   20  C   UNL     1       5.408  24.874  53.717  1.00  0.00     0.049 C 
ENDBRANCH   9  12
ENDBRANCH   1   8
BRANCH   4  21
HETATM   21  C   UNL     1       8.080  30.762  58.994  1.00  0.00     0.154 A 
HETATM   22  N   UNL     1       7.826  30.841  60.303  1.00  0.00    -0.155 NA
HETATM   23  N   UNL     1       8.840  31.536  60.828  1.00  0.00    -0.283 N 
HETATM   24  C   UNL     1       8.860  31.811  62.243  1.00  0.00     0.179 C 
HETATM   25  C   UNL     1       9.768  31.913  59.910  1.00  0.00     0.115 A 
HETATM   26  C   UNL     1       9.306  31.430  58.708  1.00  0.00     0.071 A 
ENDBRANCH   4  21
TORSDOF 3
ENDMDL
MODEL 3
REMARK VINA RESULT:      -8.7      4.144      7.476
REMARK  3 active torsions:
REMARK  status: ('A' for Active; 'I' for Inactive)
REMARK    1  A    between atoms: C_6  and  C_7 
REMARK       I    between atoms: C_7  and  N_8 
REMARK    2  A    between atoms: N_8  and  C_9 
REMARK    3  A    between atoms: N_12  and  C_13 
ROOT
HETATM    1  C   UNL     1       5.402  27.224  53.116  1.00  0.00     0.177 C 
HETATM    2  C   UNL     1       4.949  26.840  51.690  1.00  0.00     0.248 C 
HETATM    3  O   UNL     1       5.144  25.691  51.288  1.00  0.00    -0.271 OA
HETATM    4  N   UNL     1       4.362  27.913  50.988  1.00  0.00    -0.299 N 
HETATM    5  C   UNL     1       4.140  29.159  51.718  1.00  0.00     0.134 C 
HETATM    6  C   UNL     1       3.485  28.892  53.069  1.00  0.00     0.023 C 
HETATM    7  C   UNL     1       4.258  27.867  53.895  1.00  0.00     0.036 C 
ENDROOT
BRANCH   1   8
HETATM    8  N   UNL     1       5.906  26.044  53.801  1.00  0.00    -0.344 N 
HETATM    9  C   UNL     1       7.206  25.942  54.228  1.00  0.00     0.253 C 
HETATM   10  O   UNL     1       8.025  26.849  54.155  1.00  0.00    -0.268 OA
HETATM   11  H   UNL     1       5.288  25.238  53.834  1.00  0.00     0.163 HD
BRANCH   9  12
HETATM   12  C   UNL     1       7.562  24.634  54.838  1.00  0.00     0.043 A 
HETATM   13  C   UNL     1       7.567  24.476  56.241  1.00  0.00    -0.045 A 
HETATM   14  C   UNL     1       7.953  23.237  56.779  1.00  0.00     0.014 A 
HETATM   15  C   UNL     1       7.195  25.586  57.185  1.00  0.00     0.049 C 
HETATM   16  C   UNL     1       8.290  22.161  55.951  1.00  0.00    -0.061 A 
HETATM   17  C   UNL     1       8.681  20.833  56.531  1.00  0.00     0.048 C 
HETATM   18  C   UNL     1       8.245  22.326  54.562  1.00  0.00     0.014 A 
HETATM   19  C   UNL     1       7.892  23.558  53.989  1.00  0.00    -0.045 A 
HETATM   20  C   UNL     1       7.854  23.686  52.491  1.00  0.00     0.049 C 
ENDBRANCH   9  12
ENDBRANCH   1   8
BRANCH   4  21
HETATM   21  C   UNL     1       4.089  27.802  49.613  1.00  0.00     0.154 A 
HETATM   22  N   UNL     1       2.885  27.522  49.106  1.00  0.00    -0.155 NA
HETATM   23  N   UNL     1       3.053  27.475  47.781  1.00  0.00    -0.283 N 
HETATM   24  C   UNL     1       1.927  27.179  46.929  1.00  0.00     0.179 C 
HETATM   25  C   UNL     1       4.329  27.727  47.389  1.00  0.00     0.115 A 
HETATM   26  C   UNL     1       5.031  27.940  48.552  1.00  0.00     0.071 A 
ENDBRANCH   4  21
TORSDOF 3
ENDMDL
MODEL 4
REMARK VINA RESULT:      -8.3      2.414      8.523
REMARK  3 active torsions:
REMARK  status: ('A' for Active; 'I' for Inactive)
REMARK    1  A    between atoms: C_6  and  C_7 
REMARK       I    between atoms: C_7  and  N_8 
REMARK    2  A    between atoms: N_8  and  C_9 
REMARK    3  A    between atoms: N_12  and  C_13 
ROOT
HETATM    1  C   UNL     1       6.125  29.553  57.225  1.00  0.00     0.177 C 
HETATM    2  C   UNL     1       6.711  28.125  57.180  1.00  0.00     0.248 C 
HETATM    3  O   UNL     1       7.392  27.726  58.128  1.00  0.00    -0.271 OA
HETATM    4  N   UNL     1       6.395  27.434  55.992  1.00  0.00    -0.299 N 
HETATM    5  C   UNL     1       5.476  28.080  55.057  1.00  0.00     0.134 C 
HETATM    6  C   UNL     1       4.250  28.622  55.783  1.00  0.00     0.023 C 
HETATM    7  C   UNL     1       4.624  29.534  56.950  1.00  0.00     0.036 C 
ENDROOT
BRANCH   1   8
HETATM    8  N   UNL     1       6.414  30.159  58.516  1.00  0.00    -0.344 N 
HETATM    9  C   UNL     1       6.508  31.517  58.685  1.00  0.00     0.253 C 
HETATM   10  O   UNL     1       6.274  32.335  57.805  1.00  0.00    -0.268 OA
HETATM   11  H   UNL     1       6.678  29.526  59.266  1.00  0.00     0.163 HD
BRANCH   9  12
HETATM   12  C   UNL     1       6.887  31.951  60.056  1.00  0.00     0.043 A 
HETATM   13  C   UNL     1       8.244  32.002  60.440  1.00  0.00    -0.045 A 
HETATM   14  C   UNL     1       8.559  32.373  61.758  1.00  0.00     0.014 A 
HETATM   15  C   UNL     1       9.369  31.656  59.503  1.00  0.00     0.049 C 
HETATM   16  C   UNL     1       7.557  32.725  62.670  1.00  0.00    -0.061 A 
HETATM   17  C   UNL     1       7.901  33.142  64.071  1.00  0.00     0.048 C 
HETATM   18  C   UNL     1       6.220  32.703  62.260  1.00  0.00     0.014 A 
HETATM   19  C   UNL     1       5.867  32.309  60.959  1.00  0.00    -0.045 A 
HETATM   20  C   UNL     1       4.415  32.304  60.564  1.00  0.00     0.049 C 
ENDBRANCH   9  12
ENDBRANCH   1   8
BRANCH   4  21
HETATM   21  C   UNL     1       7.020  26.211  55.691  1.00  0.00     0.154 A 
HETATM   22  N   UNL     1       7.353  25.293  56.602  1.00  0.00    -0.155 NA
HETATM   23  N   UNL     1       7.946  24.306  55.922  1.00  0.00    -0.283 N 
HETATM   24  C   UNL     1       8.440  23.150  56.628  1.00  0.00     0.179 C 
HETATM   25  C   UNL     1       8.006  24.534  54.584  1.00  0.00     0.115 A 
HETATM   26  C   UNL     1       7.418  25.762  54.398  1.00  0.00     0.071 A 
ENDBRANCH   4  21
TORSDOF 3
ENDMDL
MODEL 5
REMARK VINA RESULT:      -8.0      2.630      8.687
REMARK  3 active torsions:
REMARK  status: ('A' for Active; 'I' for Inactive)
REMARK    1  A    between atoms: C_6  and  C_7 
REMARK       I    between atoms: C_7  and  N_8 
REMARK    2  A    between atoms: N_8  and  C_9 
REMARK    3  A    between atoms: N_12  and  C_13 
ROOT
HETATM    1  C   UNL     1       5.804  30.139  57.134  1.00  0.00     0.177 C 
HETATM    2  C   UNL     1       6.397  28.729  56.923  1.00  0.00     0.248 C 
HETATM    3  O   UNL     1       7.089  28.230  57.813  1.00  0.00    -0.271 OA
HETATM    4  N   UNL     1       6.075  28.175  55.667  1.00  0.00    -0.299 N 
HETATM    5  C   UNL     1       5.144  28.917  54.819  1.00  0.00     0.134 C 
HETATM    6  C   UNL     1       3.921  29.365  55.612  1.00  0.00     0.023 C 
HETATM    7  C   UNL     1       4.300  30.141  56.871  1.00  0.00     0.036 C 
ENDROOT
BRANCH   1   8
HETATM    8  N   UNL     1       6.101  30.596  58.483  1.00  0.00    -0.344 N 
HETATM    9  C   UNL     1       6.271  31.923  58.788  1.00  0.00     0.253 C 
HETATM   10  O   UNL     1       6.104  32.836  57.990  1.00  0.00    -0.268 OA
HETATM   11  H   UNL     1       6.311  29.878  59.171  1.00  0.00     0.163 HD
BRANCH   9  12
HETATM   12  C   UNL     1       6.647  32.196  60.200  1.00  0.00     0.043 A 
HETATM   13  C   UNL     1       5.652  32.455  61.168  1.00  0.00    -0.045 A 
HETATM   14  C   UNL     1       6.050  32.754  62.482  1.00  0.00     0.014 A 
HETATM   15  C   UNL     1       4.183  32.446  60.846  1.00  0.00     0.049 C 
HETATM   16  C   UNL     1       7.401  32.758  62.845  1.00  0.00    -0.061 A 
HETATM   17  C   UNL     1       7.820  33.055  64.256  1.00  0.00     0.048 C 
HETATM   18  C   UNL     1       8.371  32.463  61.881  1.00  0.00     0.014 A 
HETATM   19  C   UNL     1       8.012  32.188  60.552  1.00  0.00    -0.045 A 
HETATM   20  C   UNL     1       9.090  31.874  59.551  1.00  0.00     0.049 C 
ENDBRANCH   9  12
ENDBRANCH   1   8
BRANCH   4  21
HETATM   21  C   UNL     1       6.704  26.999  55.223  1.00  0.00     0.154 A 
HETATM   22  N   UNL     1       7.036  26.758  53.952  1.00  0.00    -0.155 NA
HETATM   23  N   UNL     1       7.576  25.535  53.944  1.00  0.00    -0.283 N 
HETATM   24  C   UNL     1       8.036  24.966  52.702  1.00  0.00     0.179 C 
HETATM   25  C   UNL     1       7.624  24.959  55.173  1.00  0.00     0.115 A 
HETATM   26  C   UNL     1       7.063  25.878  56.027  1.00  0.00     0.071 A 
ENDBRANCH   4  21
TORSDOF 3
ENDMDL
MODEL 6
REMARK VINA RESULT:      -8.0      3.933      6.100
REMARK  3 active torsions:
REMARK  status: ('A' for Active; 'I' for Inactive)
REMARK    1  A    between atoms: C_6  and  C_7 
REMARK       I    between atoms: C_7  and  N_8 
REMARK    2  A    between atoms: N_8  and  C_9 
REMARK    3  A    between atoms: N_12  and  C_13 
ROOT
HETATM    1  C   UNL     1       5.315  27.897  54.622  1.00  0.00     0.177 C 
HETATM    2  C   UNL     1       4.495  28.251  53.362  1.00  0.00     0.248 C 
HETATM    3  O   UNL     1       4.399  27.419  52.457  1.00  0.00    -0.271 OA
HETATM    4  N   UNL     1       3.955  29.552  53.400  1.00  0.00    -0.299 N 
HETATM    5  C   UNL     1       4.116  30.316  54.636  1.00  0.00     0.134 C 
HETATM    6  C   UNL     1       3.745  29.473  55.851  1.00  0.00     0.023 C 
HETATM    7  C   UNL     1       4.501  28.147  55.889  1.00  0.00     0.036 C 
ENDROOT
BRANCH   1   8
HETATM    8  N   UNL     1       5.754  26.512  54.545  1.00  0.00    -0.344 N 
HETATM    9  C   UNL     1       7.080  26.164  54.493  1.00  0.00     0.253 C 
HETATM   10  O   UNL     1       8.003  26.962  54.594  1.00  0.00    -0.268 OA
HETATM   11  H   UNL     1       5.032  25.813  54.396  1.00  0.00     0.163 HD
BRANCH   9  12
HETATM   12  C   UNL     1       7.338  24.708  54.338  1.00  0.00     0.043 A 
HETATM   13  C   UNL     1       7.405  23.869  55.471  1.00  0.00    -0.045 A 
HETATM   14  C   UNL     1       7.696  22.507  55.285  1.00  0.00     0.014 A 
HETATM   15  C   UNL     1       7.198  24.375  56.872  1.00  0.00     0.049 C 
HETATM   16  C   UNL     1       7.879  21.974  54.005  1.00  0.00    -0.061 A 
HETATM   17  C   UNL     1       8.167  20.513  53.811  1.00  0.00     0.048 C 
HETATM   18  C   UNL     1       7.773  22.814  52.891  1.00  0.00     0.014 A 
HETATM   19  C   UNL     1       7.512  24.185  53.040  1.00  0.00    -0.045 A 
HETATM   20  C   UNL     1       7.404  25.049  51.813  1.00  0.00     0.049 C 
ENDBRANCH   9  12
ENDBRANCH   1   8
BRANCH   4  21
HETATM   21  C   UNL     1       3.366  30.114  52.254  1.00  0.00     0.154 A 
HETATM   22  N   UNL     1       3.528  31.384  51.872  1.00  0.00    -0.155 NA
HETATM   23  N   UNL     1       2.788  31.527  50.768  1.00  0.00    -0.283 N 
HETATM   24  C   UNL     1       2.738  32.806  50.103  1.00  0.00     0.179 C 
HETATM   25  C   UNL     1       2.148  30.388  50.396  1.00  0.00     0.115 A 
HETATM   26  C   UNL     1       2.497  29.451  51.340  1.00  0.00     0.071 A 
ENDBRANCH   4  21
TORSDOF 3
ENDMDL
MODEL 7
REMARK VINA RESULT:      -7.9      2.728      3.048
REMARK  3 active torsions:
REMARK  status: ('A' for Active; 'I' for Inactive)
REMARK    1  A    between atoms: C_6  and  C_7 
REMARK       I    between atoms: C_7  and  N_8 
REMARK    2  A    between atoms: N_8  and  C_9 
REMARK    3  A    between atoms: N_12  and  C_13 
ROOT
HETATM    1  C   UNL     1       4.726  27.570  55.454  1.00  0.00     0.177 C 
HETATM    2  C   UNL     1       5.140  28.533  56.588  1.00  0.00     0.248 C 
HETATM    3  O   UNL     1       5.884  28.123  57.481  1.00  0.00    -0.271 OA
HETATM    4  N   UNL     1       4.566  29.815  56.462  1.00  0.00    -0.299 N 
HETATM    5  C   UNL     1       3.799  30.098  55.251  1.00  0.00     0.134 C 
HETATM    6  C   UNL     1       4.559  29.652  54.007  1.00  0.00     0.023 C 
HETATM    7  C   UNL     1       4.996  28.192  54.086  1.00  0.00     0.036 C 
ENDROOT
BRANCH   1   8
HETATM    8  N   UNL     1       5.432  26.307  55.604  1.00  0.00    -0.344 N 
HETATM    9  C   UNL     1       6.723  26.131  55.173  1.00  0.00     0.253 C 
HETATM   10  O   UNL     1       7.419  27.026  54.711  1.00  0.00    -0.268 OA
HETATM   11  H   UNL     1       4.883  25.514  55.924  1.00  0.00     0.163 HD
BRANCH   9  12
HETATM   12  C   UNL     1       7.255  24.753  55.338  1.00  0.00     0.043 A 
HETATM   13  C   UNL     1       7.110  23.802  54.306  1.00  0.00    -0.045 A 
HETATM   14  C   UNL     1       7.586  22.497  54.520  1.00  0.00     0.014 A 
HETATM   15  C   UNL     1       6.449  24.120  52.994  1.00  0.00     0.049 C 
HETATM   16  C   UNL     1       8.227  22.147  55.713  1.00  0.00    -0.061 A 
HETATM   17  C   UNL     1       8.754  20.757  55.927  1.00  0.00     0.048 C 
HETATM   18  C   UNL     1       8.394  23.113  56.710  1.00  0.00     0.014 A 
HETATM   19  C   UNL     1       7.906  24.419  56.543  1.00  0.00    -0.045 A 
HETATM   20  C   UNL     1       8.111  25.425  57.643  1.00  0.00     0.049 C 
ENDBRANCH   9  12
ENDBRANCH   1   8
BRANCH   4  21
HETATM   21  C   UNL     1       4.661  30.745  57.512  1.00  0.00     0.154 A 
HETATM   22  N   UNL     1       3.706  30.950  58.423  1.00  0.00    -0.155 NA
HETATM   23  N   UNL     1       4.165  31.923  59.217  1.00  0.00    -0.283 N 
HETATM   24  C   UNL     1       3.354  32.393  60.312  1.00  0.00     0.179 C 
HETATM   25  C   UNL     1       5.402  32.365  58.868  1.00  0.00     0.115 A 
HETATM   26  C   UNL     1       5.754  31.626  57.764  1.00  0.00     0.071 A 
ENDBRANCH   4  21
TORSDOF 3
ENDMDL
MODEL 8
REMARK VINA RESULT:      -7.8      4.891      7.493
REMARK  3 active torsions:
REMARK  status: ('A' for Active; 'I' for Inactive)
REMARK    1  A    between atoms: C_6  and  C_7 
REMARK       I    between atoms: C_7  and  N_8 
REMARK    2  A    between atoms: N_8  and  C_9 
REMARK    3  A    between atoms: N_12  and  C_13 
ROOT
HETATM    1  C   UNL     1       5.295  26.328  51.845  1.00  0.00     0.177 C 
HETATM    2  C   UNL     1       4.988  27.098  53.148  1.00  0.00     0.248 C 
HETATM    3  O   UNL     1       4.004  27.840  53.188  1.00  0.00    -0.271 OA
HETATM    4  N   UNL     1       5.933  26.861  54.167  1.00  0.00    -0.299 N 
HETATM    5  C   UNL     1       6.959  25.851  53.917  1.00  0.00     0.134 C 
HETATM    6  C   UNL     1       6.344  24.574  53.356  1.00  0.00     0.023 C 
HETATM    7  C   UNL     1       5.481  24.839  52.124  1.00  0.00     0.036 C 
ENDROOT
BRANCH   1   8
HETATM    8  N   UNL     1       4.227  26.551  50.883  1.00  0.00    -0.344 N 
HETATM    9  C   UNL     1       4.412  27.282  49.736  1.00  0.00     0.253 C 
HETATM   10  O   UNL     1       5.493  27.730  49.376  1.00  0.00    -0.268 OA
HETATM   11  H   UNL     1       3.295  26.256  51.161  1.00  0.00     0.163 HD
BRANCH   9  12
HETATM   12  C   UNL     1       3.189  27.472  48.912  1.00  0.00     0.043 A 
HETATM   13  C   UNL     1       2.763  26.463  48.022  1.00  0.00    -0.045 A 
HETATM   14  C   UNL     1       1.629  26.700  47.228  1.00  0.00     0.014 A 
HETATM   15  C   UNL     1       3.485  25.152  47.872  1.00  0.00     0.049 C 
HETATM   16  C   UNL     1       0.904  27.892  47.337  1.00  0.00    -0.061 A 
HETATM   17  C   UNL     1      -0.320  28.130  46.501  1.00  0.00     0.048 C 
HETATM   18  C   UNL     1       1.321  28.865  48.251  1.00  0.00     0.014 A 
HETATM   19  C   UNL     1       2.467  28.675  49.040  1.00  0.00    -0.045 A 
HETATM   20  C   UNL     1       2.874  29.749  50.011  1.00  0.00     0.049 C 
ENDBRANCH   9  12
ENDBRANCH   1   8
BRANCH   4  21
HETATM   21  C   UNL     1       5.930  27.639  55.338  1.00  0.00     0.154 A 
HETATM   22  N   UNL     1       6.849  28.565  55.627  1.00  0.00    -0.155 NA
HETATM   23  N   UNL     1       6.511  29.049  56.827  1.00  0.00    -0.283 N 
HETATM   24  C   UNL     1       7.320  30.074  57.437  1.00  0.00     0.179 C 
HETATM   25  C   UNL     1       5.388  28.481  57.340  1.00  0.00     0.115 A 
HETATM   26  C   UNL     1       4.986  27.559  56.403  1.00  0.00     0.071 A 
ENDBRANCH   4  21
TORSDOF 3
ENDMDL
MODEL 9
REMARK VINA RESULT:      -7.8      4.716      7.255
REMARK  3 active torsions:
REMARK  status: ('A' for Active; 'I' for Inactive)
REMARK    1  A    between atoms: C_6  and  C_7 
REMARK       I    between atoms: C_7  and  N_8 
REMARK    2  A    between atoms: N_8  and  C_9 
REMARK    3  A    between atoms: N_12  and  C_13 
ROOT
HETATM    1  C   UNL     1       4.851  27.005  51.356  1.00  0.00     0.177 C 
HETATM    2  C   UNL     1       5.197  28.474  51.024  1.00  0.00     0.248 C 
HETATM    3  O   UNL     1       6.024  29.067  51.719  1.00  0.00    -0.271 OA
HETATM    4  N   UNL     1       4.468  28.979  49.927  1.00  0.00    -0.299 N 
HETATM    5  C   UNL     1       3.620  28.045  49.190  1.00  0.00     0.134 C 
HETATM    6  C   UNL     1       4.371  26.757  48.873  1.00  0.00     0.023 C 
HETATM    7  C   UNL     1       4.984  26.122  50.119  1.00  0.00     0.036 C 
ENDROOT
BRANCH   1   8
HETATM    8  N   UNL     1       5.710  26.534  52.432  1.00  0.00    -0.344 N 
HETATM    9  C   UNL     1       5.344  25.510  53.269  1.00  0.00     0.253 C 
HETATM   10  O   UNL     1       4.321  24.850  53.138  1.00  0.00    -0.268 OA
HETATM   11  H   UNL     1       6.542  27.085  52.625  1.00  0.00     0.163 HD
BRANCH   9  12
HETATM   12  C   UNL     1       6.312  25.217  54.358  1.00  0.00     0.043 A 
HETATM   13  C   UNL     1       7.317  24.242  54.178  1.00  0.00    -0.045 A 
HETATM   14  C   UNL     1       8.184  23.962  55.247  1.00  0.00     0.014 A 
HETATM   15  C   UNL     1       7.486  23.476  52.895  1.00  0.00     0.049 C 
HETATM   16  C   UNL     1       8.089  24.657  56.458  1.00  0.00    -0.061 A 
HETATM   17  C   UNL     1       9.032  24.369  57.590  1.00  0.00     0.048 C 
HETATM   18  C   UNL     1       7.109  25.645  56.605  1.00  0.00     0.014 A 
HETATM   19  C   UNL     1       6.207  25.931  55.569  1.00  0.00    -0.045 A 
HETATM   20  C   UNL     1       5.172  27.004  55.772  1.00  0.00     0.049 C 
ENDBRANCH   9  12
ENDBRANCH   1   8
BRANCH   4  21
HETATM   21  C   UNL     1       4.498  30.351  49.623  1.00  0.00     0.154 A 
HETATM   22  N   UNL     1       5.363  30.914  48.775  1.00  0.00    -0.155 NA
HETATM   23  N   UNL     1       5.085  32.221  48.788  1.00  0.00    -0.283 N 
HETATM   24  C   UNL     1       5.860  33.124  47.973  1.00  0.00     0.179 C 
HETATM   25  C   UNL     1       4.052  32.545  49.609  1.00  0.00     0.115 A 
HETATM   26  C   UNL     1       3.649  31.356  50.171  1.00  0.00     0.071 A 
ENDBRANCH   4  21
TORSDOF 3
ENDMDL
MODEL 10
REMARK VINA RESULT:      -7.7      4.688      7.255
REMARK  3 active torsions:
REMARK  status: ('A' for Active; 'I' for Inactive)
REMARK    1  A    between atoms: C_6  and  C_7 
REMARK       I    between atoms: C_7  and  N_8 
REMARK    2  A    between atoms: N_8  and  C_9 
REMARK    3  A    between atoms: N_12  and  C_13 
ROOT
HETATM    1  C   UNL     1       4.866  27.005  51.409  1.00  0.00     0.177 C 
HETATM    2  C   UNL     1       5.219  28.472  51.080  1.00  0.00     0.248 C 
HETATM    3  O   UNL     1       6.029  29.068  51.794  1.00  0.00    -0.271 OA
HETATM    4  N   UNL     1       4.517  28.974  49.965  1.00  0.00    -0.299 N 
HETATM    5  C   UNL     1       3.686  28.038  49.211  1.00  0.00     0.134 C 
HETATM    6  C   UNL     1       4.445  26.749  48.915  1.00  0.00     0.023 C 
HETATM    7  C   UNL     1       5.028  26.118  50.177  1.00  0.00     0.036 C 
ENDROOT
BRANCH   1   8
HETATM    8  N   UNL     1       5.698  26.537  52.506  1.00  0.00    -0.344 N 
HETATM    9  C   UNL     1       5.315  25.511  53.333  1.00  0.00     0.253 C 
HETATM   10  O   UNL     1       4.299  24.847  53.176  1.00  0.00    -0.268 OA
HETATM   11  H   UNL     1       6.523  27.091  52.720  1.00  0.00     0.163 HD
BRANCH   9  12
HETATM   12  C   UNL     1       6.257  25.222  54.447  1.00  0.00     0.043 A 
HETATM   13  C   UNL     1       6.162  25.927  55.665  1.00  0.00    -0.045 A 
HETATM   14  C   UNL     1       7.099  25.656  56.676  1.00  0.00     0.014 A 
HETATM   15  C   UNL     1       5.111  26.972  55.921  1.00  0.00     0.049 C 
HETATM   16  C   UNL     1       8.088  24.681  56.505  1.00  0.00    -0.061 A 
HETATM   17  C   UNL     1       9.073  24.380  57.597  1.00  0.00     0.048 C 
HETATM   18  C   UNL     1       8.144  23.967  55.303  1.00  0.00     0.014 A 
HETATM   19  C   UNL     1       7.242  24.231  54.260  1.00  0.00    -0.045 A 
HETATM   20  C   UNL     1       7.339  23.435  52.987  1.00  0.00     0.049 C 
ENDBRANCH   9  12
ENDBRANCH   1   8
BRANCH   4  21
HETATM   21  C   UNL     1       4.554  30.345  49.657  1.00  0.00     0.154 A 
HETATM   22  N   UNL     1       5.368  30.890  48.749  1.00  0.00    -0.155 NA
HETATM   23  N   UNL     1       5.118  32.203  48.780  1.00  0.00    -0.283 N 
HETATM   24  C   UNL     1       5.852  33.089  47.911  1.00  0.00     0.179 C 
HETATM   25  C   UNL     1       4.154  32.548  49.673  1.00  0.00     0.115 A 
HETATM   26  C   UNL     1       3.767  31.368  50.263  1.00  0.00     0.071 A 
ENDBRANCH   4  21
TORSDOF 3
ENDMDL
