MODEL 1
REMARK VINA RESULT:      -9.3      0.000      0.000
REMARK  7 active torsions:
REMARK  status: ('A' for Active; 'I' for Inactive)
REMARK    1  A    between atoms: C_2  and  N_3 
REMARK    2  A    between atoms: C_2  and  C_10 
REMARK    3  A    between atoms: N_11  and  C_12 
REMARK    4  A    between atoms: C_19  and  S_20 
REMARK    5  A    between atoms: S_20  and  C_21 
REMARK    6  A    between atoms: C_21  and  C_22 
REMARK    7  A    between atoms: C_21  and  C_28 
REMARK       I    between atoms: C_22  and  N_23 
REMARK       I    between atoms: N_23  and  C_24 
REMARK       I    between atoms: C_24  and  N_25 
ROOT
HETATM    1  C   UNL     1       7.806  28.173  57.391  1.00  0.00     0.166 A 
HETATM    2  N   UNL     1       7.052  27.350  56.555  1.00  0.00    -0.274 N 
HETATM    3  C   UNL     1       7.056  26.129  57.204  1.00  0.00     0.197 A 
HETATM    4  N   UNL     1       7.783  26.196  58.295  1.00  0.00    -0.122 NA
HETATM    5  N   UNL     1       8.278  27.460  58.394  1.00  0.00    -0.131 NA
ENDROOT
BRANCH   3   6
HETATM    6  S   UNL     1       6.310  24.669  56.656  1.00  0.00    -0.070 SA
BRANCH   6   7
HETATM    7  C   UNL     1       7.438  24.140  55.314  1.00  0.00     0.180 C 
BRANCH   7   8
HETATM    8  C   UNL     1       7.788  22.652  55.463  1.00  0.00     0.244 C 
HETATM    9  N   UNL     1       7.862  21.946  54.272  1.00  0.00    -0.278 N 
HETATM   10  C   UNL     1       8.183  20.635  54.077  1.00  0.00     0.320 C 
HETATM   11  H   UNL     1       7.630  22.417  53.409  1.00  0.00     0.173 HD
HETATM   12  N   UNL     1       8.598  19.936  55.153  1.00  0.00    -0.352 N 
HETATM   13  O   UNL     1       8.116  20.125  52.964  1.00  0.00    -0.247 OA
HETATM   14  H   UNL     1       8.410  20.295  56.082  1.00  0.00     0.160 HD
HETATM   15  H   UNL     1       8.749  18.943  55.037  1.00  0.00     0.160 HD
HETATM   16  O   UNL     1       7.944  22.151  56.580  1.00  0.00    -0.271 OA
ENDBRANCH   7   8
BRANCH   7  17
HETATM   17  C   UNL     1       6.976  24.474  53.897  1.00  0.00    -0.035 A 
HETATM   18  C   UNL     1       7.843  24.747  52.826  1.00  0.00     0.009 A 
HETATM   19  C   UNL     1       7.342  25.076  51.562  1.00  0.00     0.001 A 
HETATM   20  C   UNL     1       5.970  25.150  51.348  1.00  0.00     0.000 A 
HETATM   21  C   UNL     1       5.092  24.890  52.395  1.00  0.00     0.001 A 
HETATM   22  C   UNL     1       5.589  24.552  53.656  1.00  0.00     0.009 A 
ENDBRANCH   7  17
ENDBRANCH   6   7
ENDBRANCH   3   6
BRANCH   2  23
HETATM   23  C   UNL     1       6.385  27.727  55.362  1.00  0.00     0.043 A 
HETATM   24  C   UNL     1       4.984  27.799  55.340  1.00  0.00     0.033 A 
HETATM   25  C   UNL     1       4.325  28.145  54.157  1.00  0.00     0.044 A 
HETATM   26  C   UNL     1       5.063  28.417  53.011  1.00  0.00     0.116 A 
HETATM   27  F   UNL     1       4.426  28.740  51.880  1.00  0.00    -0.206 F 
HETATM   28  C   UNL     1       6.451  28.360  53.024  1.00  0.00     0.044 A 
HETATM   29  C   UNL     1       7.120  28.017  54.202  1.00  0.00     0.033 A 
ENDBRANCH   2  23
BRANCH   1  30
HETATM   30  C   UNL     1       7.929  29.665  57.300  1.00  0.00     0.255 C 
HETATM   31  C   UNL     1       9.185  30.075  56.529  1.00  0.00     0.049 C 
BRANCH  30  32
HETATM   32  N   UNL     1       7.920  30.392  58.666  1.00  0.00    -0.060 N 
HETATM   33  H   UNL     1       7.615  29.687  59.348  1.00  0.00     0.280 HD
HETATM   34  C   UNL     1       9.310  30.828  59.082  1.00  0.00     0.236 C 
HETATM   35  C   UNL     1       9.283  31.297  60.531  1.00  0.00     0.028 C 
HETATM   36  C   UNL     1       8.261  32.407  60.748  1.00  0.00     0.003 C 
HETATM   37  C   UNL     1       6.882  32.000  60.240  1.00  0.00     0.028 C 
HETATM   38  C   UNL     1       6.939  31.550  58.784  1.00  0.00     0.236 C 
ENDBRANCH  30  32
ENDBRANCH   1  30
TORSDOF 7
ENDMDL
MODEL 2
REMARK VINA RESULT:      -9.2      3.882      8.089
REMARK  7 active torsions:
REMARK  status: ('A' for Active; 'I' for Inactive)
REMARK    1  A    between atoms: C_2  and  N_3 
REMARK    2  A    between atoms: C_2  and  C_10 
REMARK    3  A    between atoms: N_11  and  C_12 
REMARK    4  A    between atoms: C_19  and  S_20 
REMARK    5  A    between atoms: S_20  and  C_21 
REMARK    6  A    between atoms: C_21  and  C_22 
REMARK    7  A    between atoms: C_21  and  C_28 
REMARK       I    between atoms: C_22  and  N_23 
REMARK       I    between atoms: N_23  and  C_24 
REMARK       I    between atoms: C_24  and  N_25 
ROOT
HETATM    1  C   UNL     1       5.024  29.011  51.822  1.00  0.00     0.166 A 
HETATM    2  N   UNL     1       5.099  28.215  52.963  1.00  0.00    -0.274 N 
HETATM    3  C   UNL     1       4.475  28.974  53.937  1.00  0.00     0.197 A 
HETATM    4  N   UNL     1       4.109  30.134  53.444  1.00  0.00    -0.122 NA
HETATM    5  N   UNL     1       4.481  30.171  52.135  1.00  0.00    -0.131 NA
ENDROOT
BRANCH   3   6
HETATM    6  S   UNL     1       4.267  28.548  55.599  1.00  0.00    -0.070 SA
BRANCH   6   7
HETATM    7  C   UNL     1       5.992  28.550  56.216  1.00  0.00     0.180 C 
BRANCH   7   8
HETATM    8  C   UNL     1       6.134  29.512  57.406  1.00  0.00     0.244 C 
HETATM    9  N   UNL     1       7.372  29.493  58.029  1.00  0.00    -0.278 N 
HETATM   10  C   UNL     1       7.812  30.249  59.076  1.00  0.00     0.320 C 
HETATM   11  H   UNL     1       8.066  28.828  57.717  1.00  0.00     0.173 HD
HETATM   12  N   UNL     1       6.997  31.231  59.511  1.00  0.00    -0.352 N 
HETATM   13  O   UNL     1       8.910  30.052  59.582  1.00  0.00    -0.247 OA
HETATM   14  H   UNL     1       6.016  31.214  59.253  1.00  0.00     0.160 HD
HETATM   15  H   UNL     1       7.272  31.734  60.342  1.00  0.00     0.160 HD
HETATM   16  O   UNL     1       5.180  30.204  57.772  1.00  0.00    -0.271 OA
ENDBRANCH   7   8
BRANCH   7  17
HETATM   17  C   UNL     1       6.580  27.175  56.527  1.00  0.00    -0.035 A 
HETATM   18  C   UNL     1       7.955  26.913  56.651  1.00  0.00     0.009 A 
HETATM   19  C   UNL     1       8.419  25.618  56.905  1.00  0.00     0.001 A 
HETATM   20  C   UNL     1       7.522  24.563  57.029  1.00  0.00     0.000 A 
HETATM   21  C   UNL     1       6.157  24.797  56.904  1.00  0.00     0.001 A 
HETATM   22  C   UNL     1       5.689  26.090  56.658  1.00  0.00     0.009 A 
ENDBRANCH   7  17
ENDBRANCH   6   7
ENDBRANCH   3   6
BRANCH   2  23
HETATM   23  C   UNL     1       5.628  26.902  53.056  1.00  0.00     0.043 A 
HETATM   24  C   UNL     1       7.017  26.713  53.106  1.00  0.00     0.033 A 
HETATM   25  C   UNL     1       7.540  25.419  53.171  1.00  0.00     0.044 A 
HETATM   26  C   UNL     1       6.678  24.328  53.188  1.00  0.00     0.116 A 
HETATM   27  F   UNL     1       7.185  23.091  53.242  1.00  0.00    -0.206 F 
HETATM   28  C   UNL     1       5.301  24.504  53.149  1.00  0.00     0.044 A 
HETATM   29  C   UNL     1       4.768  25.794  53.086  1.00  0.00     0.033 A 
ENDBRANCH   2  23
BRANCH   1  30
HETATM   30  C   UNL     1       5.329  28.588  50.416  1.00  0.00     0.255 C 
HETATM   31  C   UNL     1       5.666  29.790  49.532  1.00  0.00     0.049 C 
BRANCH  30  32
HETATM   32  N   UNL     1       4.207  27.765  49.738  1.00  0.00    -0.060 N 
HETATM   33  H   UNL     1       3.723  27.282  50.504  1.00  0.00     0.280 HD
HETATM   34  C   UNL     1       3.182  28.657  49.068  1.00  0.00     0.236 C 
HETATM   35  C   UNL     1       1.980  27.821  48.649  1.00  0.00     0.028 C 
HETATM   36  C   UNL     1       2.383  26.659  47.749  1.00  0.00     0.003 C 
HETATM   37  C   UNL     1       3.485  25.820  48.386  1.00  0.00     0.028 C 
HETATM   38  C   UNL     1       4.680  26.681  48.781  1.00  0.00     0.236 C 
ENDBRANCH  30  32
ENDBRANCH   1  30
TORSDOF 7
ENDMDL
MODEL 3
REMARK VINA RESULT:      -8.7      2.917      5.436
REMARK  7 active torsions:
REMARK  status: ('A' for Active; 'I' for Inactive)
REMARK    1  A    between atoms: C_2  and  N_3 
REMARK    2  A    between atoms: C_2  and  C_10 
REMARK    3  A    between atoms: N_11  and  C_12 
REMARK    4  A    between atoms: C_19  and  S_20 
REMARK    5  A    between atoms: S_20  and  C_21 
REMARK    6  A    between atoms: C_21  and  C_22 
REMARK    7  A    between atoms: C_21  and  C_28 
REMARK       I    between atoms: C_22  and  N_23 
REMARK       I    between atoms: N_23  and  C_24 
REMARK       I    between atoms: C_24  and  N_25 
ROOT
HETATM    1  C   UNL     1       5.431  28.601  56.316  1.00  0.00     0.166 A 
HETATM    2  N   UNL     1       6.681  28.017  56.515  1.00  0.00    -0.274 N 
HETATM    3  C   UNL     1       6.438  26.662  56.383  1.00  0.00     0.197 A 
HETATM    4  N   UNL     1       5.160  26.448  56.176  1.00  0.00    -0.122 NA
HETATM    5  N   UNL     1       4.526  27.652  56.168  1.00  0.00    -0.131 NA
ENDROOT
BRANCH   3   6
HETATM    6  S   UNL     1       7.593  25.387  56.551  1.00  0.00    -0.070 SA
BRANCH   6   7
HETATM    7  C   UNL     1       6.972  24.145  55.357  1.00  0.00     0.180 C 
BRANCH   7   8
HETATM    8  C   UNL     1       7.066  24.686  53.923  1.00  0.00     0.244 C 
HETATM    9  N   UNL     1       5.861  24.747  53.240  1.00  0.00    -0.278 N 
HETATM   10  C   UNL     1       5.617  25.210  51.980  1.00  0.00     0.320 C 
HETATM   11  H   UNL     1       5.028  24.387  53.684  1.00  0.00     0.173 HD
HETATM   12  N   UNL     1       6.643  25.797  51.331  1.00  0.00    -0.352 N 
HETATM   13  O   UNL     1       4.506  25.114  51.474  1.00  0.00    -0.247 OA
HETATM   14  H   UNL     1       7.591  25.645  51.657  1.00  0.00     0.160 HD
HETATM   15  H   UNL     1       6.498  26.059  50.366  1.00  0.00     0.160 HD
HETATM   16  O   UNL     1       8.158  24.997  53.438  1.00  0.00    -0.271 OA
ENDBRANCH   7   8
BRANCH   7  17
HETATM   17  C   UNL     1       7.589  22.752  55.478  1.00  0.00    -0.035 A 
HETATM   18  C   UNL     1       7.662  21.826  54.423  1.00  0.00     0.009 A 
HETATM   19  C   UNL     1       8.214  20.556  54.620  1.00  0.00     0.001 A 
HETATM   20  C   UNL     1       8.692  20.185  55.873  1.00  0.00     0.000 A 
HETATM   21  C   UNL     1       8.624  21.083  56.932  1.00  0.00     0.001 A 
HETATM   22  C   UNL     1       8.082  22.355  56.737  1.00  0.00     0.009 A 
ENDBRANCH   7  17
ENDBRANCH   6   7
ENDBRANCH   3   6
BRANCH   2  23
HETATM   23  C   UNL     1       7.912  28.688  56.726  1.00  0.00     0.043 A 
HETATM   24  C   UNL     1       8.257  29.124  58.015  1.00  0.00     0.033 A 
HETATM   25  C   UNL     1       9.458  29.807  58.218  1.00  0.00     0.044 A 
HETATM   26  C   UNL     1      10.304  30.050  57.142  1.00  0.00     0.116 A 
HETATM   27  F   UNL     1      11.449  30.712  57.342  1.00  0.00    -0.206 F 
HETATM   28  C   UNL     1       9.978  29.614  55.864  1.00  0.00     0.044 A 
HETATM   29  C   UNL     1       8.781  28.928  55.650  1.00  0.00     0.033 A 
ENDBRANCH   2  23
BRANCH   1  30
HETATM   30  C   UNL     1       5.148  30.059  56.110  1.00  0.00     0.255 C 
HETATM   31  C   UNL     1       4.091  30.567  57.093  1.00  0.00     0.049 C 
BRANCH  30  32
HETATM   32  N   UNL     1       4.714  30.430  54.671  1.00  0.00    -0.060 N 
HETATM   33  H   UNL     1       5.390  31.136  54.357  1.00  0.00     0.280 HD
HETATM   34  C   UNL     1       4.841  29.254  53.724  1.00  0.00     0.236 C 
HETATM   35  C   UNL     1       4.656  29.735  52.291  1.00  0.00     0.028 C 
HETATM   36  C   UNL     1       3.329  30.462  52.104  1.00  0.00     0.003 C 
HETATM   37  C   UNL     1       3.163  31.584  53.123  1.00  0.00     0.028 C 
HETATM   38  C   UNL     1       3.339  31.070  54.548  1.00  0.00     0.236 C 
ENDBRANCH  30  32
ENDBRANCH   1  30
TORSDOF 7
ENDMDL
MODEL 4
REMARK VINA RESULT:      -8.6      2.310      3.348
REMARK  7 active torsions:
REMARK  status: ('A' for Active; 'I' for Inactive)
REMARK    1  A    between atoms: C_2  and  N_3 
REMARK    2  A    between atoms: C_2  and  C_10 
REMARK    3  A    between atoms: N_11  and  C_12 
REMARK    4  A    between atoms: C_19  and  S_20 
REMARK    5  A    between atoms: S_20  and  C_21 
REMARK    6  A    between atoms: C_21  and  C_22 
REMARK    7  A    between atoms: C_21  and  C_28 
REMARK       I    between atoms: C_22  and  N_23 
REMARK       I    between atoms: N_23  and  C_24 
REMARK       I    between atoms: C_24  and  N_25 
ROOT
HETATM    1  C   UNL     1       7.671  29.733  58.226  1.00  0.00     0.166 A 
HETATM    2  N   UNL     1       6.557  29.301  57.508  1.00  0.00    -0.274 N 
HETATM    3  C   UNL     1       6.717  27.928  57.445  1.00  0.00     0.197 A 
HETATM    4  N   UNL     1       7.841  27.575  58.023  1.00  0.00    -0.122 NA
HETATM    5  N   UNL     1       8.453  28.702  58.480  1.00  0.00    -0.131 NA
ENDROOT
BRANCH   3   6
HETATM    6  S   UNL     1       5.671  26.805  56.651  1.00  0.00    -0.070 SA
BRANCH   6   7
HETATM    7  C   UNL     1       6.338  26.795  54.946  1.00  0.00     0.180 C 
BRANCH   7   8
HETATM    8  C   UNL     1       6.583  25.354  54.475  1.00  0.00     0.244 C 
HETATM    9  N   UNL     1       7.712  24.749  55.005  1.00  0.00    -0.278 N 
HETATM   10  C   UNL     1       8.171  23.479  54.810  1.00  0.00     0.320 C 
HETATM   11  H   UNL     1       8.323  25.290  55.602  1.00  0.00     0.173 HD
HETATM   12  N   UNL     1       7.385  22.643  54.102  1.00  0.00    -0.352 N 
HETATM   13  O   UNL     1       9.243  23.114  55.277  1.00  0.00    -0.247 OA
HETATM   14  H   UNL     1       6.643  23.025  53.527  1.00  0.00     0.160 HD
HETATM   15  H   UNL     1       7.756  21.732  53.874  1.00  0.00     0.160 HD
HETATM   16  O   UNL     1       5.830  24.824  53.654  1.00  0.00    -0.271 OA
ENDBRANCH   7   8
BRANCH   7  17
HETATM   17  C   UNL     1       5.535  27.597  53.922  1.00  0.00    -0.035 A 
HETATM   18  C   UNL     1       4.144  27.787  53.982  1.00  0.00     0.009 A 
HETATM   19  C   UNL     1       3.475  28.508  52.988  1.00  0.00     0.001 A 
HETATM   20  C   UNL     1       4.179  29.041  51.913  1.00  0.00     0.000 A 
HETATM   21  C   UNL     1       5.555  28.860  51.830  1.00  0.00     0.001 A 
HETATM   22  C   UNL     1       6.228  28.148  52.825  1.00  0.00     0.009 A 
ENDBRANCH   7  17
ENDBRANCH   6   7
ENDBRANCH   3   6
BRANCH   2  23
HETATM   23  C   UNL     1       5.486  30.099  57.032  1.00  0.00     0.043 A 
HETATM   24  C   UNL     1       4.355  30.300  57.837  1.00  0.00     0.033 A 
HETATM   25  C   UNL     1       3.289  31.065  57.357  1.00  0.00     0.044 A 
HETATM   26  C   UNL     1       3.358  31.624  56.087  1.00  0.00     0.116 A 
HETATM   27  F   UNL     1       2.330  32.348  55.630  1.00  0.00    -0.206 F 
HETATM   28  C   UNL     1       4.477  31.441  55.285  1.00  0.00     0.044 A 
HETATM   29  C   UNL     1       5.550  30.679  55.755  1.00  0.00     0.033 A 
ENDBRANCH   2  23
BRANCH   1  30
HETATM   30  C   UNL     1       7.889  31.102  58.798  1.00  0.00     0.255 C 
HETATM   31  C   UNL     1       9.348  31.541  58.654  1.00  0.00     0.049 C 
BRANCH  30  32
HETATM   32  N   UNL     1       7.463  31.254  60.277  1.00  0.00    -0.060 N 
HETATM   33  H   UNL     1       6.909  30.415  60.489  1.00  0.00     0.280 HD
HETATM   34  C   UNL     1       8.655  31.235  61.212  1.00  0.00     0.236 C 
HETATM   35  C   UNL     1       8.170  31.124  62.651  1.00  0.00     0.028 C 
HETATM   36  C   UNL     1       7.198  32.242  63.009  1.00  0.00     0.003 C 
HETATM   37  C   UNL     1       6.049  32.320  62.009  1.00  0.00     0.028 C 
HETATM   38  C   UNL     1       6.565  32.445  60.580  1.00  0.00     0.236 C 
ENDBRANCH  30  32
ENDBRANCH   1  30
TORSDOF 7
ENDMDL
MODEL 5
REMARK VINA RESULT:      -8.6      2.728      3.958
REMARK  7 active torsions:
REMARK  status: ('A' for Active; 'I' for Inactive)
REMARK    1  A    between atoms: C_2  and  N_3 
REMARK    2  A    between atoms: C_2  and  C_10 
REMARK    3  A    between atoms: N_11  and  C_12 
REMARK    4  A    between atoms: C_19  and  S_20 
REMARK    5  A    between atoms: S_20  and  C_21 
REMARK    6  A    between atoms: C_21  and  C_22 
REMARK    7  A    between atoms: C_21  and  C_28 
REMARK       I    between atoms: C_22  and  N_23 
REMARK       I    between atoms: N_23  and  C_24 
REMARK       I    between atoms: C_24  and  N_25 
ROOT
HETATM    1  C   UNL     1       8.033  28.689  57.275  1.00  0.00     0.166 A 
HETATM    2  N   UNL     1       6.717  28.362  56.955  1.00  0.00    -0.274 N 
HETATM    3  C   UNL     1       6.702  26.979  56.990  1.00  0.00     0.197 A 
HETATM    4  N   UNL     1       7.902  26.519  57.254  1.00  0.00    -0.122 NA
HETATM    5  N   UNL     1       8.739  27.583  57.399  1.00  0.00    -0.131 NA
ENDROOT
BRANCH   3   6
HETATM    6  S   UNL     1       5.353  25.954  56.649  1.00  0.00    -0.070 SA
BRANCH   6   7
HETATM    7  C   UNL     1       5.746  25.345  54.967  1.00  0.00     0.180 C 
BRANCH   7   8
HETATM    8  C   UNL     1       6.086  26.520  54.038  1.00  0.00     0.244 C 
HETATM    9  N   UNL     1       5.037  26.961  53.246  1.00  0.00    -0.278 N 
HETATM   10  C   UNL     1       5.016  27.996  52.357  1.00  0.00     0.320 C 
HETATM   11  H   UNL     1       4.158  26.465  53.277  1.00  0.00     0.173 HD
HETATM   12  N   UNL     1       6.110  28.783  52.303  1.00  0.00    -0.352 N 
HETATM   13  O   UNL     1       4.034  28.210  51.656  1.00  0.00    -0.247 OA
HETATM   14  H   UNL     1       6.983  28.449  52.697  1.00  0.00     0.160 HD
HETATM   15  H   UNL     1       6.142  29.493  51.586  1.00  0.00     0.160 HD
HETATM   16  O   UNL     1       7.229  26.982  54.001  1.00  0.00    -0.271 OA
ENDBRANCH   7   8
BRANCH   7  17
HETATM   17  C   UNL     1       6.804  24.244  54.898  1.00  0.00    -0.035 A 
HETATM   18  C   UNL     1       7.374  23.624  56.022  1.00  0.00     0.009 A 
HETATM   19  C   UNL     1       8.362  22.645  55.878  1.00  0.00     0.001 A 
HETATM   20  C   UNL     1       8.805  22.275  54.612  1.00  0.00     0.000 A 
HETATM   21  C   UNL     1       8.259  22.880  53.485  1.00  0.00     0.001 A 
HETATM   22  C   UNL     1       7.266  23.852  53.625  1.00  0.00     0.009 A 
ENDBRANCH   7  17
ENDBRANCH   6   7
ENDBRANCH   3   6
BRANCH   2  23
HETATM   23  C   UNL     1       5.644  29.261  56.726  1.00  0.00     0.043 A 
HETATM   24  C   UNL     1       4.767  29.582  57.773  1.00  0.00     0.033 A 
HETATM   25  C   UNL     1       3.696  30.448  57.542  1.00  0.00     0.044 A 
HETATM   26  C   UNL     1       3.508  30.988  56.275  1.00  0.00     0.116 A 
HETATM   27  F   UNL     1       2.475  31.810  56.057  1.00  0.00    -0.206 F 
HETATM   28  C   UNL     1       4.376  30.687  55.233  1.00  0.00     0.044 A 
HETATM   29  C   UNL     1       5.452  29.823  55.455  1.00  0.00     0.033 A 
ENDBRANCH   2  23
BRANCH   1  30
HETATM   30  C   UNL     1       8.556  30.052  57.616  1.00  0.00     0.255 C 
HETATM   31  C   UNL     1      10.070  30.137  57.409  1.00  0.00     0.049 C 
BRANCH  30  32
HETATM   32  N   UNL     1       8.219  30.527  59.050  1.00  0.00    -0.060 N 
HETATM   33  H   UNL     1       7.698  29.753  59.478  1.00  0.00     0.280 HD
HETATM   34  C   UNL     1       9.468  30.727  59.885  1.00  0.00     0.236 C 
HETATM   35  C   UNL     1       9.075  30.937  61.342  1.00  0.00     0.028 C 
HETATM   36  C   UNL     1       8.102  32.099  61.505  1.00  0.00     0.003 C 
HETATM   37  C   UNL     1       6.892  31.942  60.591  1.00  0.00     0.028 C 
HETATM   38  C   UNL     1       7.316  31.749  59.139  1.00  0.00     0.236 C 
ENDBRANCH  30  32
ENDBRANCH   1  30
TORSDOF 7
ENDMDL
MODEL 6
REMARK VINA RESULT:      -8.6      3.998      5.844
REMARK  7 active torsions:
REMARK  status: ('A' for Active; 'I' for Inactive)
REMARK    1  A    between atoms: C_2  and  N_3 
REMARK    2  A    between atoms: C_2  and  C_10 
REMARK    3  A    between atoms: N_11  and  C_12 
REMARK    4  A    between atoms: C_19  and  S_20 
REMARK    5  A    between atoms: S_20  and  C_21 
REMARK    6  A    between atoms: C_21  and  C_22 
REMARK    7  A    between atoms: C_21  and  C_28 
REMARK       I    between atoms: C_22  and  N_23 
REMARK       I    between atoms: N_23  and  C_24 
REMARK       I    between atoms: C_24  and  N_25 
ROOT
HETATM    1  C   UNL     1       6.689  28.234  55.657  1.00  0.00     0.166 A 
HETATM    2  N   UNL     1       6.148  27.484  54.613  1.00  0.00    -0.274 N 
HETATM    3  C   UNL     1       5.083  28.250  54.174  1.00  0.00     0.197 A 
HETATM    4  N   UNL     1       4.962  29.327  54.913  1.00  0.00    -0.122 NA
HETATM    5  N   UNL     1       5.941  29.302  55.858  1.00  0.00    -0.131 NA
ENDROOT
BRANCH   3   6
HETATM    6  S   UNL     1       3.980  27.848  52.905  1.00  0.00    -0.070 SA
BRANCH   6   7
HETATM    7  C   UNL     1       4.989  28.151  51.407  1.00  0.00     0.180 C 
BRANCH   7   8
HETATM    8  C   UNL     1       4.602  27.168  50.292  1.00  0.00     0.244 C 
HETATM    9  N   UNL     1       3.444  27.492  49.602  1.00  0.00    -0.278 N 
HETATM   10  C   UNL     1       2.869  26.843  48.549  1.00  0.00     0.320 C 
HETATM   11  H   UNL     1       2.905  28.293  49.900  1.00  0.00     0.173 HD
HETATM   12  N   UNL     1       3.554  25.812  48.013  1.00  0.00    -0.352 N 
HETATM   13  O   UNL     1       1.786  27.200  48.100  1.00  0.00    -0.247 OA
HETATM   14  H   UNL     1       4.306  25.385  48.543  1.00  0.00     0.160 HD
HETATM   15  H   UNL     1       3.096  25.269  47.295  1.00  0.00     0.160 HD
HETATM   16  O   UNL     1       5.277  26.155  50.084  1.00  0.00    -0.271 OA
ENDBRANCH   7   8
BRANCH   7  17
HETATM   17  C   UNL     1       5.007  29.595  50.908  1.00  0.00    -0.035 A 
HETATM   18  C   UNL     1       5.883  30.080  49.923  1.00  0.00     0.009 A 
HETATM   19  C   UNL     1       5.861  31.425  49.540  1.00  0.00     0.001 A 
HETATM   20  C   UNL     1       4.971  32.310  50.141  1.00  0.00     0.000 A 
HETATM   21  C   UNL     1       4.098  31.854  51.122  1.00  0.00     0.001 A 
HETATM   22  C   UNL     1       4.113  30.509  51.500  1.00  0.00     0.009 A 
ENDBRANCH   7  17
ENDBRANCH   6   7
ENDBRANCH   3   6
BRANCH   2  23
HETATM   23  C   UNL     1       6.645  26.261  54.094  1.00  0.00     0.043 A 
HETATM   24  C   UNL     1       7.548  26.275  53.021  1.00  0.00     0.033 A 
HETATM   25  C   UNL     1       8.017  25.070  52.493  1.00  0.00     0.044 A 
HETATM   26  C   UNL     1       7.587  23.865  53.037  1.00  0.00     0.116 A 
HETATM   27  F   UNL     1       8.033  22.714  52.521  1.00  0.00    -0.206 F 
HETATM   28  C   UNL     1       6.701  23.840  54.106  1.00  0.00     0.044 A 
HETATM   29  C   UNL     1       6.227  25.039  54.643  1.00  0.00     0.033 A 
ENDBRANCH   2  23
BRANCH   1  30
HETATM   30  C   UNL     1       8.003  27.999  56.338  1.00  0.00     0.255 C 
HETATM   31  C   UNL     1       7.882  26.938  57.434  1.00  0.00     0.049 C 
BRANCH  30  32
HETATM   32  N   UNL     1       8.650  29.270  56.938  1.00  0.00    -0.060 N 
HETATM   33  H   UNL     1       8.345  30.042  56.334  1.00  0.00     0.280 HD
HETATM   34  C   UNL     1       8.122  29.568  58.327  1.00  0.00     0.236 C 
HETATM   35  C   UNL     1       8.587  30.952  58.760  1.00  0.00     0.028 C 
HETATM   36  C   UNL     1      10.104  31.085  58.700  1.00  0.00     0.003 C 
HETATM   37  C   UNL     1      10.641  30.691  57.328  1.00  0.00     0.028 C 
HETATM   38  C   UNL     1      10.172  29.296  56.928  1.00  0.00     0.236 C 
ENDBRANCH  30  32
ENDBRANCH   1  30
TORSDOF 7
ENDMDL
MODEL 7
REMARK VINA RESULT:      -8.4      2.486      4.685
REMARK  7 active torsions:
REMARK  status: ('A' for Active; 'I' for Inactive)
REMARK    1  A    between atoms: C_2  and  N_3 
REMARK    2  A    between atoms: C_2  and  C_10 
REMARK    3  A    between atoms: N_11  and  C_12 
REMARK    4  A    between atoms: C_19  and  S_20 
REMARK    5  A    between atoms: S_20  and  C_21 
REMARK    6  A    between atoms: C_21  and  C_22 
REMARK    7  A    between atoms: C_21  and  C_28 
REMARK       I    between atoms: C_22  and  N_23 
REMARK       I    between atoms: N_23  and  C_24 
REMARK       I    between atoms: C_24  and  N_25 
ROOT
HETATM    1  C   UNL     1       5.436  29.079  56.384  1.00  0.00     0.166 A 
HETATM    2  N   UNL     1       6.591  28.417  56.800  1.00  0.00    -0.274 N 
HETATM    3  C   UNL     1       6.191  27.098  56.918  1.00  0.00     0.197 A 
HETATM    4  N   UNL     1       4.912  26.986  56.650  1.00  0.00    -0.122 NA
HETATM    5  N   UNL     1       4.433  28.224  56.350  1.00  0.00    -0.131 NA
ENDROOT
BRANCH   3   6
HETATM    6  S   UNL     1       7.168  25.768  57.433  1.00  0.00    -0.070 SA
BRANCH   6   7
HETATM    7  C   UNL     1       7.853  25.157  55.848  1.00  0.00     0.180 C 
BRANCH   7   8
HETATM    8  C   UNL     1       8.288  23.690  55.982  1.00  0.00     0.244 C 
HETATM    9  N   UNL     1       8.578  23.054  54.785  1.00  0.00    -0.278 N 
HETATM   10  C   UNL     1       9.020  21.779  54.582  1.00  0.00     0.320 C 
HETATM   11  H   UNL     1       8.433  23.552  53.918  1.00  0.00     0.173 HD
HETATM   12  N   UNL     1       9.332  21.055  55.676  1.00  0.00    -0.352 N 
HETATM   13  O   UNL     1       9.145  21.324  53.452  1.00  0.00    -0.247 OA
HETATM   14  H   UNL     1       8.992  21.352  56.584  1.00  0.00     0.160 HD
HETATM   15  H   UNL     1       9.571  20.082  55.542  1.00  0.00     0.160 HD
HETATM   16  O   UNL     1       8.325  23.144  57.088  1.00  0.00    -0.271 OA
ENDBRANCH   7   8
BRANCH   7  17
HETATM   17  C   UNL     1       6.968  25.375  54.622  1.00  0.00    -0.035 A 
HETATM   18  C   UNL     1       5.734  24.735  54.414  1.00  0.00     0.009 A 
HETATM   19  C   UNL     1       4.995  24.962  53.249  1.00  0.00     0.001 A 
HETATM   20  C   UNL     1       5.477  25.823  52.268  1.00  0.00     0.000 A 
HETATM   21  C   UNL     1       6.698  26.462  52.450  1.00  0.00     0.001 A 
HETATM   22  C   UNL     1       7.435  26.245  53.616  1.00  0.00     0.009 A 
ENDBRANCH   7  17
ENDBRANCH   6   7
ENDBRANCH   3   6
BRANCH   2  23
HETATM   23  C   UNL     1       7.880  28.980  56.977  1.00  0.00     0.043 A 
HETATM   24  C   UNL     1       8.241  29.518  58.222  1.00  0.00     0.033 A 
HETATM   25  C   UNL     1       9.502  30.096  58.390  1.00  0.00     0.044 A 
HETATM   26  C   UNL     1      10.391  30.132  57.323  1.00  0.00     0.116 A 
HETATM   27  F   UNL     1      11.594  30.694  57.487  1.00  0.00    -0.206 F 
HETATM   28  C   UNL     1      10.049  29.593  56.089  1.00  0.00     0.044 A 
HETATM   29  C   UNL     1       8.792  29.011  55.911  1.00  0.00     0.033 A 
ENDBRANCH   2  23
BRANCH   1  30
HETATM   30  C   UNL     1       5.349  30.484  55.870  1.00  0.00     0.255 C 
HETATM   31  C   UNL     1       4.524  31.370  56.806  1.00  0.00     0.049 C 
BRANCH  30  32
HETATM   32  N   UNL     1       4.783  30.608  54.435  1.00  0.00    -0.060 N 
HETATM   33  H   UNL     1       5.385  31.293  53.962  1.00  0.00     0.280 HD
HETATM   34  C   UNL     1       4.912  29.309  53.665  1.00  0.00     0.236 C 
HETATM   35  C   UNL     1       4.587  29.555  52.198  1.00  0.00     0.028 C 
HETATM   36  C   UNL     1       3.205  30.174  52.019  1.00  0.00     0.003 C 
HETATM   37  C   UNL     1       3.045  31.428  52.872  1.00  0.00     0.028 C 
HETATM   38  C   UNL     1       3.363  31.148  54.336  1.00  0.00     0.236 C 
ENDBRANCH  30  32
ENDBRANCH   1  30
TORSDOF 7
ENDMDL
MODEL 8
REMARK VINA RESULT:      -8.3      3.725      5.410
REMARK  7 active torsions:
REMARK  status: ('A' for Active; 'I' for Inactive)
REMARK    1  A    between atoms: C_2  and  N_3 
REMARK    2  A    between atoms: C_2  and  C_10 
REMARK    3  A    between atoms: N_11  and  C_12 
REMARK    4  A    between atoms: C_19  and  S_20 
REMARK    5  A    between atoms: S_20  and  C_21 
REMARK    6  A    between atoms: C_21  and  C_22 
REMARK    7  A    between atoms: C_21  and  C_28 
REMARK       I    between atoms: C_22  and  N_23 
REMARK       I    between atoms: N_23  and  C_24 
REMARK       I    between atoms: C_24  and  N_25 
ROOT
HETATM    1  C   UNL     1       5.362  29.358  55.994  1.00  0.00     0.166 A 
HETATM    2  N   UNL     1       6.584  28.727  55.765  1.00  0.00    -0.274 N 
HETATM    3  C   UNL     1       6.262  27.679  54.922  1.00  0.00     0.197 A 
HETATM    4  N   UNL     1       4.968  27.650  54.707  1.00  0.00    -0.122 NA
HETATM    5  N   UNL     1       4.402  28.676  55.400  1.00  0.00    -0.131 NA
ENDROOT
BRANCH   3   6
HETATM    6  S   UNL     1       7.350  26.493  54.293  1.00  0.00    -0.070 SA
BRANCH   6   7
HETATM    7  C   UNL     1       6.259  25.035  54.095  1.00  0.00     0.180 C 
BRANCH   7   8
HETATM    8  C   UNL     1       5.417  25.166  52.817  1.00  0.00     0.244 C 
HETATM    9  N   UNL     1       5.781  26.210  51.980  1.00  0.00    -0.278 N 
HETATM   10  C   UNL     1       5.255  26.558  50.771  1.00  0.00     0.320 C 
HETATM   11  H   UNL     1       6.512  26.842  52.276  1.00  0.00     0.173 HD
HETATM   12  N   UNL     1       4.333  25.729  50.240  1.00  0.00    -0.352 N 
HETATM   13  O   UNL     1       5.623  27.570  50.186  1.00  0.00    -0.247 OA
HETATM   14  H   UNL     1       3.871  25.050  50.836  1.00  0.00     0.160 HD
HETATM   15  H   UNL     1       3.871  26.023  49.391  1.00  0.00     0.160 HD
HETATM   16  O   UNL     1       4.470  24.403  52.606  1.00  0.00    -0.271 OA
ENDBRANCH   7   8
BRANCH   7  17
HETATM   17  C   UNL     1       6.954  23.678  54.178  1.00  0.00    -0.035 A 
HETATM   18  C   UNL     1       7.172  22.973  55.374  1.00  0.00     0.009 A 
HETATM   19  C   UNL     1       7.846  21.748  55.373  1.00  0.00     0.001 A 
HETATM   20  C   UNL     1       8.323  21.210  54.182  1.00  0.00     0.000 A 
HETATM   21  C   UNL     1       8.124  21.892  52.987  1.00  0.00     0.001 A 
HETATM   22  C   UNL     1       7.444  23.112  52.983  1.00  0.00     0.009 A 
ENDBRANCH   7  17
ENDBRANCH   6   7
ENDBRANCH   3   6
BRANCH   2  23
HETATM   23  C   UNL     1       7.857  29.135  56.240  1.00  0.00     0.043 A 
HETATM   24  C   UNL     1       8.032  29.432  57.600  1.00  0.00     0.033 A 
HETATM   25  C   UNL     1       9.279  29.858  58.063  1.00  0.00     0.044 A 
HETATM   26  C   UNL     1      10.339  29.984  57.172  1.00  0.00     0.116 A 
HETATM   27  F   UNL     1      11.529  30.400  57.619  1.00  0.00    -0.206 F 
HETATM   28  C   UNL     1      10.180  29.683  55.825  1.00  0.00     0.044 A 
HETATM   29  C   UNL     1       8.937  29.254  55.352  1.00  0.00     0.033 A 
ENDBRANCH   2  23
BRANCH   1  30
HETATM   30  C   UNL     1       5.153  30.694  56.642  1.00  0.00     0.255 C 
HETATM   31  C   UNL     1       4.453  30.554  57.996  1.00  0.00     0.049 C 
BRANCH  30  32
HETATM   32  N   UNL     1       4.373  31.711  55.776  1.00  0.00    -0.060 N 
HETATM   33  H   UNL     1       4.515  31.409  54.805  1.00  0.00     0.280 HD
HETATM   34  C   UNL     1       2.882  31.646  56.038  1.00  0.00     0.236 C 
HETATM   35  C   UNL     1       2.146  32.469  54.989  1.00  0.00     0.028 C 
HETATM   36  C   UNL     1       2.643  33.909  54.946  1.00  0.00     0.003 C 
HETATM   37  C   UNL     1       4.158  33.968  54.779  1.00  0.00     0.028 C 
HETATM   38  C   UNL     1       4.867  33.149  55.852  1.00  0.00     0.236 C 
ENDBRANCH  30  32
ENDBRANCH   1  30
TORSDOF 7
ENDMDL
MODEL 9
REMARK VINA RESULT:      -8.3      4.319      7.677
REMARK  7 active torsions:
REMARK  status: ('A' for Active; 'I' for Inactive)
REMARK    1  A    between atoms: C_2  and  N_3 
REMARK    2  A    between atoms: C_2  and  C_10 
REMARK    3  A    between atoms: N_11  and  C_12 
REMARK    4  A    between atoms: C_19  and  S_20 
REMARK    5  A    between atoms: S_20  and  C_21 
REMARK    6  A    between atoms: C_21  and  C_22 
REMARK    7  A    between atoms: C_21  and  C_28 
REMARK       I    between atoms: C_22  and  N_23 
REMARK       I    between atoms: N_23  and  C_24 
REMARK       I    between atoms: C_24  and  N_25 
ROOT
HETATM    1  C   UNL     1       6.154  25.183  53.955  1.00  0.00     0.166 A 
HETATM    2  N   UNL     1       5.672  26.483  54.093  1.00  0.00    -0.274 N 
HETATM    3  C   UNL     1       4.816  26.635  53.016  1.00  0.00     0.197 A 
HETATM    4  N   UNL     1       4.823  25.552  52.275  1.00  0.00    -0.122 NA
HETATM    5  N   UNL     1       5.681  24.659  52.840  1.00  0.00    -0.131 NA
ENDROOT
BRANCH   3   6
HETATM    6  S   UNL     1       3.919  28.054  52.604  1.00  0.00    -0.070 SA
BRANCH   6   7
HETATM    7  C   UNL     1       4.501  28.397  50.902  1.00  0.00     0.180 C 
BRANCH   7   8
HETATM    8  C   UNL     1       3.467  27.913  49.875  1.00  0.00     0.244 C 
HETATM    9  N   UNL     1       3.745  26.682  49.301  1.00  0.00    -0.278 N 
HETATM   10  C   UNL     1       3.008  25.977  48.394  1.00  0.00     0.320 C 
HETATM   11  H   UNL     1       4.611  26.217  49.534  1.00  0.00     0.173 HD
HETATM   12  N   UNL     1       1.790  26.464  48.081  1.00  0.00    -0.352 N 
HETATM   13  O   UNL     1       3.432  24.937  47.904  1.00  0.00    -0.247 OA
HETATM   14  H   UNL     1       1.568  27.429  48.298  1.00  0.00     0.160 HD
HETATM   15  H   UNL     1       1.276  26.002  47.344  1.00  0.00     0.160 HD
HETATM   16  O   UNL     1       2.495  28.615  49.581  1.00  0.00    -0.271 OA
ENDBRANCH   7   8
BRANCH   7  17
HETATM   17  C   UNL     1       4.934  29.837  50.634  1.00  0.00    -0.035 A 
HETATM   18  C   UNL     1       5.843  30.216  49.631  1.00  0.00     0.009 A 
HETATM   19  C   UNL     1       6.215  31.554  49.468  1.00  0.00     0.001 A 
HETATM   20  C   UNL     1       5.695  32.535  50.306  1.00  0.00     0.000 A 
HETATM   21  C   UNL     1       4.799  32.183  51.309  1.00  0.00     0.001 A 
HETATM   22  C   UNL     1       4.419  30.848  51.470  1.00  0.00     0.009 A 
ENDBRANCH   7  17
ENDBRANCH   6   7
ENDBRANCH   3   6
BRANCH   2  23
HETATM   23  C   UNL     1       5.952  27.391  55.146  1.00  0.00     0.043 A 
HETATM   24  C   UNL     1       5.182  27.358  56.319  1.00  0.00     0.033 A 
HETATM   25  C   UNL     1       5.441  28.268  57.346  1.00  0.00     0.044 A 
HETATM   26  C   UNL     1       6.463  29.199  57.199  1.00  0.00     0.116 A 
HETATM   27  F   UNL     1       6.701  30.074  58.183  1.00  0.00    -0.206 F 
HETATM   28  C   UNL     1       7.238  29.234  56.048  1.00  0.00     0.044 A 
HETATM   29  C   UNL     1       6.989  28.327  55.016  1.00  0.00     0.033 A 
ENDBRANCH   2  23
BRANCH   1  30
HETATM   30  C   UNL     1       6.931  24.405  54.975  1.00  0.00     0.255 C 
HETATM   31  C   UNL     1       8.271  25.077  55.285  1.00  0.00     0.049 C 
BRANCH  30  32
HETATM   32  N   UNL     1       7.186  22.927  54.595  1.00  0.00    -0.060 N 
HETATM   33  H   UNL     1       6.273  22.559  54.304  1.00  0.00     0.280 HD
HETATM   34  C   UNL     1       8.106  22.804  53.397  1.00  0.00     0.236 C 
HETATM   35  C   UNL     1       8.114  21.362  52.910  1.00  0.00     0.028 C 
HETATM   36  C   UNL     1       8.507  20.391  54.017  1.00  0.00     0.003 C 
HETATM   37  C   UNL     1       7.641  20.584  55.258  1.00  0.00     0.028 C 
HETATM   38  C   UNL     1       7.665  22.034  55.730  1.00  0.00     0.236 C 
ENDBRANCH  30  32
ENDBRANCH   1  30
TORSDOF 7
ENDMDL
MODEL 10
REMARK VINA RESULT:      -7.9      5.237      7.484
REMARK  7 active torsions:
REMARK  status: ('A' for Active; 'I' for Inactive)
REMARK    1  A    between atoms: C_2  and  N_3 
REMARK    2  A    between atoms: C_2  and  C_10 
REMARK    3  A    between atoms: N_11  and  C_12 
REMARK    4  A    between atoms: C_19  and  S_20 
REMARK    5  A    between atoms: S_20  and  C_21 
REMARK    6  A    between atoms: C_21  and  C_22 
REMARK    7  A    between atoms: C_21  and  C_28 
REMARK       I    between atoms: C_22  and  N_23 
REMARK       I    between atoms: N_23  and  C_24 
REMARK       I    between atoms: C_24  and  N_25 
ROOT
HETATM    1  C   UNL     1       4.535  28.525  54.709  1.00  0.00     0.166 A 
HETATM    2  N   UNL     1       5.054  28.002  53.525  1.00  0.00    -0.274 N 
HETATM    3  C   UNL     1       4.875  29.021  52.607  1.00  0.00     0.197 A 
HETATM    4  N   UNL     1       4.262  30.036  53.169  1.00  0.00    -0.122 NA
HETATM    5  N   UNL     1       4.019  29.715  54.470  1.00  0.00    -0.131 NA
ENDROOT
BRANCH   3   6
HETATM    6  S   UNL     1       5.290  28.981  50.930  1.00  0.00    -0.070 SA
BRANCH   6   7
HETATM    7  C   UNL     1       3.646  29.010  50.125  1.00  0.00     0.180 C 
BRANCH   7   8
HETATM    8  C   UNL     1       3.386  30.383  49.487  1.00  0.00     0.244 C 
HETATM    9  N   UNL     1       4.349  30.799  48.580  1.00  0.00    -0.278 N 
HETATM   10  C   UNL     1       4.381  31.939  47.832  1.00  0.00     0.320 C 
HETATM   11  H   UNL     1       5.170  30.226  48.440  1.00  0.00     0.173 HD
HETATM   12  N   UNL     1       3.291  32.733  47.874  1.00  0.00    -0.352 N 
HETATM   13  O   UNL     1       5.352  32.215  47.138  1.00  0.00    -0.247 OA
HETATM   14  H   UNL     1       2.622  32.620  48.627  1.00  0.00     0.160 HD
HETATM   15  H   UNL     1       3.341  33.623  47.398  1.00  0.00     0.160 HD
HETATM   16  O   UNL     1       2.402  31.053  49.814  1.00  0.00    -0.271 OA
ENDBRANCH   7   8
BRANCH   7  17
HETATM   17  C   UNL     1       3.374  27.870  49.145  1.00  0.00    -0.035 A 
HETATM   18  C   UNL     1       4.337  26.932  48.735  1.00  0.00     0.009 A 
HETATM   19  C   UNL     1       4.020  25.934  47.808  1.00  0.00     0.001 A 
HETATM   20  C   UNL     1       2.741  25.861  47.267  1.00  0.00     0.000 A 
HETATM   21  C   UNL     1       1.773  26.782  47.652  1.00  0.00     0.001 A 
HETATM   22  C   UNL     1       2.084  27.775  48.584  1.00  0.00     0.009 A 
ENDBRANCH   7  17
ENDBRANCH   6   7
ENDBRANCH   3   6
BRANCH   2  23
HETATM   23  C   UNL     1       5.683  26.742  53.352  1.00  0.00     0.043 A 
HETATM   24  C   UNL     1       7.084  26.658  53.342  1.00  0.00     0.033 A 
HETATM   25  C   UNL     1       7.704  25.422  53.146  1.00  0.00     0.044 A 
HETATM   26  C   UNL     1       6.928  24.283  52.964  1.00  0.00     0.116 A 
HETATM   27  F   UNL     1       7.528  23.103  52.768  1.00  0.00    -0.206 F 
HETATM   28  C   UNL     1       5.541  24.352  52.983  1.00  0.00     0.044 A 
HETATM   29  C   UNL     1       4.911  25.584  53.180  1.00  0.00     0.033 A 
ENDBRANCH   2  23
BRANCH   1  30
HETATM   30  C   UNL     1       4.684  27.944  56.083  1.00  0.00     0.255 C 
HETATM   31  C   UNL     1       4.732  29.040  57.150  1.00  0.00     0.049 C 
BRANCH  30  32
HETATM   32  N   UNL     1       5.914  27.020  56.257  1.00  0.00    -0.060 N 
HETATM   33  H   UNL     1       6.285  26.879  55.310  1.00  0.00     0.280 HD
HETATM   34  C   UNL     1       7.011  27.689  57.061  1.00  0.00     0.236 C 
HETATM   35  C   UNL     1       8.280  26.851  56.981  1.00  0.00     0.028 C 
HETATM   36  C   UNL     1       8.044  25.418  57.442  1.00  0.00     0.003 C 
HETATM   37  C   UNL     1       6.875  24.780  56.698  1.00  0.00     0.028 C 
HETATM   38  C   UNL     1       5.616  25.633  56.809  1.00  0.00     0.236 C 
ENDBRANCH  30  32
ENDBRANCH   1  30
TORSDOF 7
ENDMDL
