MODEL 1
REMARK VINA RESULT:      -8.9      0.000      0.000
REMARK  6 active torsions:
REMARK  status: ('A' for Active; 'I' for Inactive)
REMARK    1  A    between atoms: C_2  and  N_3 
REMARK    2  A    between atoms: C_5  and  C_6 
REMARK    3  A    between atoms: C_6  and  N_7 
REMARK       I    between atoms: N_7  and  C_8 
REMARK    4  A    between atoms: C_8  and  C_9 
REMARK    5  A    between atoms: C_9  and  C_10 
REMARK    6  A    between atoms: C_11  and  C_12 
ROOT
HETATM    1  C   UNL     1       5.937  25.290  55.197  1.00  0.00     0.006 A 
HETATM    2  C   UNL     1       6.951  24.340  55.564  1.00  0.00     0.096 A 
HETATM    3  N   UNL     1       7.467  24.627  56.765  1.00  0.00    -0.173 NA
HETATM    4  N   UNL     1       6.824  25.724  57.163  1.00  0.00    -0.282 N 
HETATM    5  H   UNL     1       7.070  26.114  58.067  1.00  0.00     0.189 HD
HETATM    6  C   UNL     1       5.872  26.156  56.282  1.00  0.00     0.033 A 
HETATM    7  C   UNL     1       5.022  27.325  56.599  1.00  0.00     0.070 C 
ENDROOT
BRANCH   1   8
HETATM    8  C   UNL     1       5.088  25.247  53.963  1.00  0.00     0.146 C 
BRANCH   8   9
HETATM    9  C   UNL     1       5.459  26.291  52.919  1.00  0.00     0.222 C 
HETATM   10  N   UNL     1       4.383  26.910  52.313  1.00  0.00    -0.359 N 
HETATM   11  H   UNL     1       3.460  26.544  52.529  1.00  0.00     0.162 HD
HETATM   12  O   UNL     1       6.622  26.590  52.643  1.00  0.00    -0.273 OA
BRANCH  10  13
HETATM   13  C   UNL     1       4.454  27.895  51.236  1.00  0.00     0.155 C 
BRANCH  13  14
HETATM   14  C   UNL     1       4.683  27.336  49.819  1.00  0.00     0.206 C 
HETATM   15  N   UNL     1       3.435  26.927  49.048  1.00  0.00    -0.066 N 
HETATM   16  H   UNL     1       3.108  26.053  49.517  1.00  0.00     0.280 HD
HETATM   17  C   UNL     1       3.970  26.646  47.665  1.00  0.00     0.235 C 
HETATM   18  C   UNL     1       5.136  27.618  47.487  1.00  0.00     0.030 C 
HETATM   19  C   UNL     1       5.362  28.279  48.844  1.00  0.00     0.036 C 
BRANCH  15  20
HETATM   20  C   UNL     1       2.252  27.864  49.075  1.00  0.00     0.231 C 
HETATM   21  C   UNL     1       1.210  27.451  48.048  1.00  0.00     0.034 C 
ENDBRANCH  15  20
ENDBRANCH  13  14
ENDBRANCH  10  13
ENDBRANCH   8   9
ENDBRANCH   1   8
BRANCH   2  22
HETATM   22  C   UNL     1       7.404  23.147  54.851  1.00  0.00    -0.005 A 
HETATM   23  C   UNL     1       7.505  21.909  55.499  1.00  0.00     0.017 A 
HETATM   24  C   UNL     1       7.937  20.782  54.794  1.00  0.00     0.043 A 
HETATM   25  C   UNL     1       8.255  20.894  53.445  1.00  0.00     0.116 A 
HETATM   26  F   UNL     1       8.667  19.811  52.774  1.00  0.00    -0.206 F 
HETATM   27  C   UNL     1       8.145  22.109  52.782  1.00  0.00     0.043 A 
HETATM   28  C   UNL     1       7.716  23.236  53.485  1.00  0.00     0.017 A 
ENDBRANCH   2  22
TORSDOF 6
ENDMDL
MODEL 2
REMARK VINA RESULT:      -8.6      3.649      7.045
REMARK  6 active torsions:
REMARK  status: ('A' for Active; 'I' for Inactive)
REMARK    1  A    between atoms: C_2  and  N_3 
REMARK    2  A    between atoms: C_5  and  C_6 
REMARK    3  A    between atoms: C_6  and  N_7 
REMARK       I    between atoms: N_7  and  C_8 
REMARK    4  A    between atoms: C_8  and  C_9 
REMARK    5  A    between atoms: C_9  and  C_10 
REMARK    6  A    between atoms: C_11  and  C_12 
ROOT
HETATM    1  C   UNL     1       6.101  26.450  53.549  1.00  0.00     0.006 A 
HETATM    2  C   UNL     1       5.908  25.028  53.623  1.00  0.00     0.096 A 
HETATM    3  N   UNL     1       4.676  24.688  53.227  1.00  0.00    -0.173 NA
HETATM    4  N   UNL     1       4.084  25.840  52.915  1.00  0.00    -0.282 N 
HETATM    5  H   UNL     1       3.126  25.804  52.584  1.00  0.00     0.189 HD
HETATM    6  C   UNL     1       4.894  26.932  53.057  1.00  0.00     0.033 A 
HETATM    7  C   UNL     1       4.413  28.284  52.691  1.00  0.00     0.070 C 
ENDROOT
BRANCH   1   8
HETATM    8  C   UNL     1       7.372  27.188  53.838  1.00  0.00     0.146 C 
BRANCH   8   9
HETATM    9  C   UNL     1       7.523  27.618  55.291  1.00  0.00     0.222 C 
HETATM   10  N   UNL     1       7.246  28.950  55.530  1.00  0.00    -0.359 N 
HETATM   11  H   UNL     1       7.082  29.539  54.718  1.00  0.00     0.162 HD
HETATM   12  O   UNL     1       7.839  26.847  56.197  1.00  0.00    -0.273 OA
BRANCH  10  13
HETATM   13  C   UNL     1       7.376  29.638  56.813  1.00  0.00     0.155 C 
BRANCH  13  14
HETATM   14  C   UNL     1       8.700  30.387  57.051  1.00  0.00     0.206 C 
HETATM   15  N   UNL     1       8.865  31.044  58.416  1.00  0.00    -0.066 N 
HETATM   16  H   UNL     1       8.216  31.863  58.395  1.00  0.00     0.280 HD
HETATM   17  C   UNL     1      10.309  31.483  58.407  1.00  0.00     0.235 C 
HETATM   18  C   UNL     1      11.035  30.432  57.567  1.00  0.00     0.030 C 
HETATM   19  C   UNL     1       9.958  29.544  56.953  1.00  0.00     0.036 C 
BRANCH  15  20
HETATM   20  C   UNL     1       8.467  30.246  59.634  1.00  0.00     0.231 C 
HETATM   21  C   UNL     1       9.128  30.804  60.885  1.00  0.00     0.034 C 
ENDBRANCH  15  20
ENDBRANCH  13  14
ENDBRANCH  10  13
ENDBRANCH   8   9
ENDBRANCH   1   8
BRANCH   2  22
HETATM   22  C   UNL     1       6.859  23.983  53.998  1.00  0.00    -0.005 A 
HETATM   23  C   UNL     1       7.610  23.303  53.029  1.00  0.00     0.017 A 
HETATM   24  C   UNL     1       8.517  22.311  53.412  1.00  0.00     0.043 A 
HETATM   25  C   UNL     1       8.677  22.010  54.761  1.00  0.00     0.116 A 
HETATM   26  F   UNL     1       9.547  21.059  55.124  1.00  0.00    -0.206 F 
HETATM   27  C   UNL     1       7.954  22.683  55.736  1.00  0.00     0.043 A 
HETATM   28  C   UNL     1       7.046  23.673  55.355  1.00  0.00     0.017 A 
ENDBRANCH   2  22
TORSDOF 6
ENDMDL
MODEL 3
REMARK VINA RESULT:      -8.5      2.841      6.086
REMARK  6 active torsions:
REMARK  status: ('A' for Active; 'I' for Inactive)
REMARK    1  A    between atoms: C_2  and  N_3 
REMARK    2  A    between atoms: C_5  and  C_6 
REMARK    3  A    between atoms: C_6  and  N_7 
REMARK       I    between atoms: N_7  and  C_8 
REMARK    4  A    between atoms: C_8  and  C_9 
REMARK    5  A    between atoms: C_9  and  C_10 
REMARK    6  A    between atoms: C_11  and  C_12 
ROOT
HETATM    1  C   UNL     1       6.278  26.471  53.432  1.00  0.00     0.006 A 
HETATM    2  C   UNL     1       6.001  25.065  53.542  1.00  0.00     0.096 A 
HETATM    3  N   UNL     1       4.749  24.789  53.155  1.00  0.00    -0.173 NA
HETATM    4  N   UNL     1       4.227  25.967  52.816  1.00  0.00    -0.282 N 
HETATM    5  H   UNL     1       3.267  25.981  52.487  1.00  0.00     0.189 HD
HETATM    6  C   UNL     1       5.101  27.012  52.930  1.00  0.00     0.033 A 
HETATM    7  C   UNL     1       4.700  28.381  52.532  1.00  0.00     0.070 C 
ENDROOT
BRANCH   1   8
HETATM    8  C   UNL     1       7.591  27.139  53.701  1.00  0.00     0.146 C 
BRANCH   8   9
HETATM    9  C   UNL     1       7.615  27.970  54.977  1.00  0.00     0.222 C 
HETATM   10  N   UNL     1       6.753  27.535  55.966  1.00  0.00    -0.359 N 
HETATM   11  H   UNL     1       6.112  26.785  55.720  1.00  0.00     0.162 HD
HETATM   12  O   UNL     1       8.356  28.940  55.141  1.00  0.00    -0.273 OA
BRANCH  10  13
HETATM   13  C   UNL     1       6.528  28.184  57.256  1.00  0.00     0.155 C 
BRANCH  13  14
HETATM   14  C   UNL     1       5.174  28.897  57.429  1.00  0.00     0.206 C 
HETATM   15  N   UNL     1       5.203  30.220  58.185  1.00  0.00    -0.066 N 
HETATM   16  H   UNL     1       5.374  29.952  59.180  1.00  0.00     0.280 HD
HETATM   17  C   UNL     1       3.805  30.752  57.988  1.00  0.00     0.235 C 
HETATM   18  C   UNL     1       3.384  30.254  56.606  1.00  0.00     0.030 C 
HETATM   19  C   UNL     1       4.468  29.285  56.143  1.00  0.00     0.036 C 
BRANCH  15  20
HETATM   20  C   UNL     1       6.294  31.204  57.840  1.00  0.00     0.231 C 
HETATM   21  C   UNL     1       7.256  31.376  59.005  1.00  0.00     0.034 C 
ENDBRANCH  15  20
ENDBRANCH  13  14
ENDBRANCH  10  13
ENDBRANCH   8   9
ENDBRANCH   1   8
BRANCH   2  22
HETATM   22  C   UNL     1       6.889  23.975  53.941  1.00  0.00    -0.005 A 
HETATM   23  C   UNL     1       7.541  23.183  52.986  1.00  0.00     0.017 A 
HETATM   24  C   UNL     1       8.389  22.150  53.393  1.00  0.00     0.043 A 
HETATM   25  C   UNL     1       8.591  21.918  54.749  1.00  0.00     0.116 A 
HETATM   26  F   UNL     1       9.405  20.927  55.134  1.00  0.00    -0.206 F 
HETATM   27  C   UNL     1       7.966  22.702  55.710  1.00  0.00     0.043 A 
HETATM   28  C   UNL     1       7.117  23.734  55.305  1.00  0.00     0.017 A 
ENDBRANCH   2  22
TORSDOF 6
ENDMDL
MODEL 4
REMARK VINA RESULT:      -8.3      1.371      1.726
REMARK  6 active torsions:
REMARK  status: ('A' for Active; 'I' for Inactive)
REMARK    1  A    between atoms: C_2  and  N_3 
REMARK    2  A    between atoms: C_5  and  C_6 
REMARK    3  A    between atoms: C_6  and  N_7 
REMARK       I    between atoms: N_7  and  C_8 
REMARK    4  A    between atoms: C_8  and  C_9 
REMARK    5  A    between atoms: C_9  and  C_10 
REMARK    6  A    between atoms: C_11  and  C_12 
ROOT
HETATM    1  C   UNL     1       7.276  26.248  55.244  1.00  0.00     0.006 A 
HETATM    2  C   UNL     1       7.524  24.912  55.713  1.00  0.00     0.096 A 
HETATM    3  N   UNL     1       7.276  24.808  57.024  1.00  0.00    -0.173 NA
HETATM    4  N   UNL     1       6.890  26.028  57.399  1.00  0.00    -0.282 N 
HETATM    5  H   UNL     1       6.649  26.168  58.374  1.00  0.00     0.189 HD
HETATM    6  C   UNL     1       6.840  26.930  56.373  1.00  0.00     0.033 A 
HETATM    7  C   UNL     1       6.370  28.315  56.606  1.00  0.00     0.070 C 
ENDROOT
BRANCH   1   8
HETATM    8  C   UNL     1       7.371  26.720  53.826  1.00  0.00     0.146 C 
BRANCH   8   9
HETATM    9  C   UNL     1       6.062  26.627  53.052  1.00  0.00     0.222 C 
HETATM   10  N   UNL     1       6.179  26.100  51.781  1.00  0.00    -0.359 N 
HETATM   11  H   UNL     1       7.121  25.931  51.437  1.00  0.00     0.162 HD
HETATM   12  O   UNL     1       4.974  26.966  53.519  1.00  0.00    -0.273 OA
BRANCH  10  13
HETATM   13  C   UNL     1       5.099  25.961  50.806  1.00  0.00     0.155 C 
BRANCH  13  14
HETATM   14  C   UNL     1       5.019  27.053  49.722  1.00  0.00     0.206 C 
HETATM   15  N   UNL     1       4.561  26.598  48.343  1.00  0.00    -0.066 N 
HETATM   16  H   UNL     1       5.366  26.051  47.964  1.00  0.00     0.280 HD
HETATM   17  C   UNL     1       4.378  27.900  47.601  1.00  0.00     0.235 C 
HETATM   18  C   UNL     1       3.927  28.900  48.665  1.00  0.00     0.030 C 
HETATM   19  C   UNL     1       4.063  28.196  50.012  1.00  0.00     0.036 C 
BRANCH  15  20
HETATM   20  C   UNL     1       3.373  25.671  48.266  1.00  0.00     0.231 C 
HETATM   21  C   UNL     1       2.629  25.851  46.952  1.00  0.00     0.034 C 
ENDBRANCH  15  20
ENDBRANCH  13  14
ENDBRANCH  10  13
ENDBRANCH   8   9
ENDBRANCH   1   8
BRANCH   2  22
HETATM   22  C   UNL     1       7.928  23.727  54.960  1.00  0.00    -0.005 A 
HETATM   23  C   UNL     1       7.248  23.338  53.798  1.00  0.00     0.017 A 
HETATM   24  C   UNL     1       7.656  22.203  53.092  1.00  0.00     0.043 A 
HETATM   25  C   UNL     1       8.748  21.468  53.543  1.00  0.00     0.116 A 
HETATM   26  F   UNL     1       9.136  20.382  52.863  1.00  0.00    -0.206 F 
HETATM   27  C   UNL     1       9.444  21.847  54.683  1.00  0.00     0.043 A 
HETATM   28  C   UNL     1       9.036  22.979  55.390  1.00  0.00     0.017 A 
ENDBRANCH   2  22
TORSDOF 6
ENDMDL
MODEL 5
REMARK VINA RESULT:      -8.2      2.623      4.334
REMARK  6 active torsions:
REMARK  status: ('A' for Active; 'I' for Inactive)
REMARK    1  A    between atoms: C_2  and  N_3 
REMARK    2  A    between atoms: C_5  and  C_6 
REMARK    3  A    between atoms: C_6  and  N_7 
REMARK       I    between atoms: N_7  and  C_8 
REMARK    4  A    between atoms: C_8  and  C_9 
REMARK    5  A    between atoms: C_9  and  C_10 
REMARK    6  A    between atoms: C_11  and  C_12 
ROOT
HETATM    1  C   UNL     1       7.558  23.478  53.998  1.00  0.00     0.006 A 
HETATM    2  C   UNL     1       7.333  23.774  55.386  1.00  0.00     0.096 A 
HETATM    3  N   UNL     1       7.444  22.672  56.138  1.00  0.00    -0.173 NA
HETATM    4  N   UNL     1       7.721  21.694  55.276  1.00  0.00    -0.282 N 
HETATM    5  H   UNL     1       7.848  20.759  55.648  1.00  0.00     0.189 HD
HETATM    6  C   UNL     1       7.833  22.116  53.981  1.00  0.00     0.033 A 
HETATM    7  C   UNL     1       8.200  21.167  52.905  1.00  0.00     0.070 C 
ENDROOT
BRANCH   1   8
HETATM    8  C   UNL     1       7.591  24.468  52.875  1.00  0.00     0.146 C 
BRANCH   8   9
HETATM    9  C   UNL     1       6.214  24.883  52.373  1.00  0.00     0.222 C 
HETATM   10  N   UNL     1       6.228  25.831  51.368  1.00  0.00    -0.359 N 
HETATM   11  H   UNL     1       7.128  26.243  51.136  1.00  0.00     0.162 HD
HETATM   12  O   UNL     1       5.164  24.403  52.800  1.00  0.00    -0.273 OA
BRANCH  10  13
HETATM   13  C   UNL     1       5.054  26.451  50.756  1.00  0.00     0.155 C 
BRANCH  13  14
HETATM   14  C   UNL     1       5.325  27.390  49.566  1.00  0.00     0.206 C 
HETATM   15  N   UNL     1       4.664  27.011  48.247  1.00  0.00    -0.066 N 
HETATM   16  H   UNL     1       5.194  26.174  47.917  1.00  0.00     0.280 HD
HETATM   17  C   UNL     1       4.934  28.215  47.377  1.00  0.00     0.235 C 
HETATM   18  C   UNL     1       4.933  29.404  48.337  1.00  0.00     0.030 C 
HETATM   19  C   UNL     1       4.869  28.826  49.747  1.00  0.00     0.036 C 
BRANCH  15  20
HETATM   20  C   UNL     1       3.217  26.585  48.281  1.00  0.00     0.231 C 
HETATM   21  C   UNL     1       3.067  25.143  47.823  1.00  0.00     0.034 C 
ENDBRANCH  15  20
ENDBRANCH  13  14
ENDBRANCH  10  13
ENDBRANCH   8   9
ENDBRANCH   1   8
BRANCH   2  22
HETATM   22  C   UNL     1       7.076  25.062  56.028  1.00  0.00    -0.005 A 
HETATM   23  C   UNL     1       5.799  25.640  56.009  1.00  0.00     0.017 A 
HETATM   24  C   UNL     1       5.577  26.871  56.634  1.00  0.00     0.043 A 
HETATM   25  C   UNL     1       6.627  27.512  57.283  1.00  0.00     0.116 A 
HETATM   26  F   UNL     1       6.409  28.690  57.881  1.00  0.00    -0.206 F 
HETATM   27  C   UNL     1       7.895  26.947  57.326  1.00  0.00     0.043 A 
HETATM   28  C   UNL     1       8.119  25.719  56.700  1.00  0.00     0.017 A 
ENDBRANCH   2  22
TORSDOF 6
ENDMDL
MODEL 6
REMARK VINA RESULT:      -8.2      1.711      2.344
REMARK  6 active torsions:
REMARK  status: ('A' for Active; 'I' for Inactive)
REMARK    1  A    between atoms: C_2  and  N_3 
REMARK    2  A    between atoms: C_5  and  C_6 
REMARK    3  A    between atoms: C_6  and  N_7 
REMARK       I    between atoms: N_7  and  C_8 
REMARK    4  A    between atoms: C_8  and  C_9 
REMARK    5  A    between atoms: C_9  and  C_10 
REMARK    6  A    between atoms: C_11  and  C_12 
ROOT
HETATM    1  C   UNL     1       5.834  27.723  54.643  1.00  0.00     0.006 A 
HETATM    2  C   UNL     1       6.933  26.830  54.889  1.00  0.00     0.096 A 
HETATM    3  N   UNL     1       7.751  27.320  55.828  1.00  0.00    -0.173 NA
HETATM    4  N   UNL     1       7.215  28.489  56.175  1.00  0.00    -0.282 N 
HETATM    5  H   UNL     1       7.689  29.032  56.889  1.00  0.00     0.189 HD
HETATM    6  C   UNL     1       6.048  28.776  55.524  1.00  0.00     0.033 A 
HETATM    7  C   UNL     1       5.288  30.007  55.840  1.00  0.00     0.070 C 
ENDROOT
BRANCH   1   8
HETATM    8  C   UNL     1       4.682  27.476  53.719  1.00  0.00     0.146 C 
BRANCH   8   9
HETATM    9  C   UNL     1       4.985  27.774  52.256  1.00  0.00     0.222 C 
HETATM   10  N   UNL     1       4.690  26.745  51.384  1.00  0.00    -0.359 N 
HETATM   11  H   UNL     1       4.411  25.858  51.796  1.00  0.00     0.162 HD
HETATM   12  O   UNL     1       5.433  28.852  51.863  1.00  0.00    -0.273 OA
BRANCH  10  13
HETATM   13  C   UNL     1       4.943  26.739  49.944  1.00  0.00     0.155 C 
BRANCH  13  14
HETATM   14  C   UNL     1       3.733  26.431  49.043  1.00  0.00     0.206 C 
HETATM   15  N   UNL     1       2.525  27.346  49.205  1.00  0.00    -0.066 N 
HETATM   16  H   UNL     1       2.113  27.080  50.127  1.00  0.00     0.280 HD
HETATM   17  C   UNL     1       1.633  26.931  48.061  1.00  0.00     0.235 C 
HETATM   18  C   UNL     1       2.590  26.516  46.944  1.00  0.00     0.030 C 
HETATM   19  C   UNL     1       3.990  26.509  47.550  1.00  0.00     0.036 C 
BRANCH  15  20
HETATM   20  C   UNL     1       2.774  28.832  49.289  1.00  0.00     0.231 C 
HETATM   21  C   UNL     1       2.033  29.439  50.470  1.00  0.00     0.034 C 
ENDBRANCH  15  20
ENDBRANCH  13  14
ENDBRANCH  10  13
ENDBRANCH   8   9
ENDBRANCH   1   8
BRANCH   2  22
HETATM   22  C   UNL     1       7.203  25.514  54.313  1.00  0.00    -0.005 A 
HETATM   23  C   UNL     1       6.943  24.339  55.032  1.00  0.00     0.017 A 
HETATM   24  C   UNL     1       7.205  23.092  54.458  1.00  0.00     0.043 A 
HETATM   25  C   UNL     1       7.716  23.023  53.165  1.00  0.00     0.116 A 
HETATM   26  F   UNL     1       7.965  21.827  52.619  1.00  0.00    -0.206 F 
HETATM   27  C   UNL     1       7.965  24.175  52.432  1.00  0.00     0.043 A 
HETATM   28  C   UNL     1       7.706  25.422  53.005  1.00  0.00     0.017 A 
ENDBRANCH   2  22
TORSDOF 6
ENDMDL
MODEL 7
REMARK VINA RESULT:      -8.2      3.933      7.172
REMARK  6 active torsions:
REMARK  status: ('A' for Active; 'I' for Inactive)
REMARK    1  A    between atoms: C_2  and  N_3 
REMARK    2  A    between atoms: C_5  and  C_6 
REMARK    3  A    between atoms: C_6  and  N_7 
REMARK       I    between atoms: N_7  and  C_8 
REMARK    4  A    between atoms: C_8  and  C_9 
REMARK    5  A    between atoms: C_9  and  C_10 
REMARK    6  A    between atoms: C_11  and  C_12 
ROOT
HETATM    1  C   UNL     1       7.711  22.600  55.150  1.00  0.00     0.006 A 
HETATM    2  C   UNL     1       7.485  23.140  53.837  1.00  0.00     0.096 A 
HETATM    3  N   UNL     1       7.851  22.269  52.888  1.00  0.00    -0.173 NA
HETATM    4  N   UNL     1       8.305  21.207  53.553  1.00  0.00    -0.282 N 
HETATM    5  H   UNL     1       8.637  20.417  53.010  1.00  0.00     0.189 HD
HETATM    6  C   UNL     1       8.220  21.329  54.912  1.00  0.00     0.033 A 
HETATM    7  C   UNL     1       8.623  20.214  55.798  1.00  0.00     0.070 C 
ENDROOT
BRANCH   1   8
HETATM    8  C   UNL     1       7.353  23.253  56.449  1.00  0.00     0.146 C 
BRANCH   8   9
HETATM    9  C   UNL     1       8.241  24.436  56.814  1.00  0.00     0.222 C 
HETATM   10  N   UNL     1       7.583  25.648  56.896  1.00  0.00    -0.359 N 
HETATM   11  H   UNL     1       6.610  25.664  56.602  1.00  0.00     0.162 HD
HETATM   12  O   UNL     1       9.446  24.332  57.046  1.00  0.00    -0.273 OA
BRANCH  10  13
HETATM   13  C   UNL     1       8.203  26.945  57.161  1.00  0.00     0.155 C 
BRANCH  13  14
HETATM   14  C   UNL     1       7.243  28.144  57.278  1.00  0.00     0.206 C 
HETATM   15  N   UNL     1       7.763  29.348  58.053  1.00  0.00    -0.066 N 
HETATM   16  H   UNL     1       7.762  29.041  59.051  1.00  0.00     0.280 HD
HETATM   17  C   UNL     1       6.708  30.396  57.795  1.00  0.00     0.235 C 
HETATM   18  C   UNL     1       6.193  30.100  56.387  1.00  0.00     0.030 C 
HETATM   19  C   UNL     1       6.817  28.773  55.965  1.00  0.00     0.036 C 
BRANCH  15  20
HETATM   20  C   UNL     1       9.174  29.808  57.775  1.00  0.00     0.231 C 
HETATM   21  C   UNL     1       9.561  30.953  58.697  1.00  0.00     0.034 C 
ENDBRANCH  15  20
ENDBRANCH  13  14
ENDBRANCH  10  13
ENDBRANCH   8   9
ENDBRANCH   1   8
BRANCH   2  22
HETATM   22  C   UNL     1       6.888  24.417  53.451  1.00  0.00    -0.005 A 
HETATM   23  C   UNL     1       5.504  24.546  53.270  1.00  0.00     0.017 A 
HETATM   24  C   UNL     1       4.956  25.779  52.906  1.00  0.00     0.043 A 
HETATM   25  C   UNL     1       5.790  26.880  52.735  1.00  0.00     0.116 A 
HETATM   26  F   UNL     1       5.261  28.059  52.387  1.00  0.00    -0.206 F 
HETATM   27  C   UNL     1       7.162  26.775  52.925  1.00  0.00     0.043 A 
HETATM   28  C   UNL     1       7.711  25.543  53.287  1.00  0.00     0.017 A 
ENDBRANCH   2  22
TORSDOF 6
ENDMDL
MODEL 8
REMARK VINA RESULT:      -8.1      2.181      6.285
REMARK  6 active torsions:
REMARK  status: ('A' for Active; 'I' for Inactive)
REMARK    1  A    between atoms: C_2  and  N_3 
REMARK    2  A    between atoms: C_5  and  C_6 
REMARK    3  A    between atoms: C_6  and  N_7 
REMARK       I    between atoms: N_7  and  C_8 
REMARK    4  A    between atoms: C_8  and  C_9 
REMARK    5  A    between atoms: C_9  and  C_10 
REMARK    6  A    between atoms: C_11  and  C_12 
ROOT
HETATM    1  C   UNL     1       5.041  27.625  51.131  1.00  0.00     0.006 A 
HETATM    2  C   UNL     1       5.219  26.201  51.224  1.00  0.00     0.096 A 
HETATM    3  N   UNL     1       4.523  25.566  50.274  1.00  0.00    -0.173 NA
HETATM    4  N   UNL     1       3.908  26.532  49.593  1.00  0.00    -0.282 N 
HETATM    5  H   UNL     1       3.319  26.259  48.814  1.00  0.00     0.189 HD
HETATM    6  C   UNL     1       4.201  27.792  50.037  1.00  0.00     0.033 A 
HETATM    7  C   UNL     1       3.651  28.983  49.350  1.00  0.00     0.070 C 
ENDROOT
BRANCH   1   8
HETATM    8  C   UNL     1       5.721  28.659  51.974  1.00  0.00     0.146 C 
BRANCH   8   9
HETATM    9  C   UNL     1       5.289  28.650  53.434  1.00  0.00     0.222 C 
HETATM   10  N   UNL     1       6.207  29.195  54.311  1.00  0.00    -0.359 N 
HETATM   11  H   UNL     1       7.117  29.444  53.930  1.00  0.00     0.162 HD
HETATM   12  O   UNL     1       4.201  28.220  53.817  1.00  0.00    -0.273 OA
BRANCH  10  13
HETATM   13  C   UNL     1       6.077  29.252  55.766  1.00  0.00     0.155 C 
BRANCH  13  14
HETATM   14  C   UNL     1       6.929  28.246  56.563  1.00  0.00     0.206 C 
HETATM   15  N   UNL     1       6.162  27.225  57.394  1.00  0.00    -0.066 N 
HETATM   16  H   UNL     1       5.769  27.774  58.191  1.00  0.00     0.280 HD
HETATM   17  C   UNL     1       7.245  26.281  57.853  1.00  0.00     0.235 C 
HETATM   18  C   UNL     1       8.266  26.269  56.715  1.00  0.00     0.030 C 
HETATM   19  C   UNL     1       7.841  27.359  55.736  1.00  0.00     0.036 C 
BRANCH  15  20
HETATM   20  C   UNL     1       4.977  26.544  56.753  1.00  0.00     0.231 C 
HETATM   21  C   UNL     1       4.775  25.153  57.331  1.00  0.00     0.034 C 
ENDBRANCH  15  20
ENDBRANCH  13  14
ENDBRANCH  10  13
ENDBRANCH   8   9
ENDBRANCH   1   8
BRANCH   2  22
HETATM   22  C   UNL     1       6.062  25.432  52.136  1.00  0.00    -0.005 A 
HETATM   23  C   UNL     1       5.554  24.920  53.338  1.00  0.00     0.017 A 
HETATM   24  C   UNL     1       6.379  24.183  54.192  1.00  0.00     0.043 A 
HETATM   25  C   UNL     1       7.704  23.952  53.838  1.00  0.00     0.116 A 
HETATM   26  F   UNL     1       8.491  23.244  54.659  1.00  0.00    -0.206 F 
HETATM   27  C   UNL     1       8.222  24.437  52.645  1.00  0.00     0.043 A 
HETATM   28  C   UNL     1       7.399  25.175  51.791  1.00  0.00     0.017 A 
ENDBRANCH   2  22
TORSDOF 6
ENDMDL
MODEL 9
REMARK VINA RESULT:      -7.9      4.107      7.652
REMARK  6 active torsions:
REMARK  status: ('A' for Active; 'I' for Inactive)
REMARK    1  A    between atoms: C_2  and  N_3 
REMARK    2  A    between atoms: C_5  and  C_6 
REMARK    3  A    between atoms: C_6  and  N_7 
REMARK       I    between atoms: N_7  and  C_8 
REMARK    4  A    between atoms: C_8  and  C_9 
REMARK    5  A    between atoms: C_9  and  C_10 
REMARK    6  A    between atoms: C_11  and  C_12 
ROOT
HETATM    1  C   UNL     1       5.934  26.899  55.028  1.00  0.00     0.006 A 
HETATM    2  C   UNL     1       6.740  28.086  54.947  1.00  0.00     0.096 A 
HETATM    3  N   UNL     1       6.829  28.524  53.686  1.00  0.00    -0.173 NA
HETATM    4  N   UNL     1       6.118  27.655  52.969  1.00  0.00    -0.282 N 
HETATM    5  H   UNL     1       6.054  27.808  51.968  1.00  0.00     0.189 HD
HETATM    6  C   UNL     1       5.529  26.674  53.718  1.00  0.00     0.033 A 
HETATM    7  C   UNL     1       4.651  25.664  53.085  1.00  0.00     0.070 C 
ENDROOT
BRANCH   1   8
HETATM    8  C   UNL     1       5.549  26.173  56.279  1.00  0.00     0.146 C 
BRANCH   8   9
HETATM    9  C   UNL     1       6.658  25.303  56.857  1.00  0.00     0.222 C 
HETATM   10  N   UNL     1       6.903  24.138  56.156  1.00  0.00    -0.359 N 
HETATM   11  H   UNL     1       6.260  23.912  55.402  1.00  0.00     0.162 HD
HETATM   12  O   UNL     1       7.313  25.613  57.854  1.00  0.00    -0.273 OA
BRANCH  10  13
HETATM   13  C   UNL     1       7.860  23.098  56.527  1.00  0.00     0.155 C 
BRANCH  13  14
HETATM   14  C   UNL     1       7.800  21.796  55.706  1.00  0.00     0.206 C 
HETATM   15  N   UNL     1       7.719  21.960  54.193  1.00  0.00    -0.066 N 
HETATM   16  H   UNL     1       6.751  22.309  54.016  1.00  0.00     0.280 HD
HETATM   17  C   UNL     1       7.898  20.548  53.691  1.00  0.00     0.235 C 
HETATM   18  C   UNL     1       8.831  19.884  54.704  1.00  0.00     0.030 C 
HETATM   19  C   UNL     1       8.990  20.868  55.860  1.00  0.00     0.036 C 
BRANCH  15  20
HETATM   20  C   UNL     1       8.635  22.969  53.544  1.00  0.00     0.231 C 
HETATM   21  C   UNL     1       7.847  23.933  52.672  1.00  0.00     0.034 C 
ENDBRANCH  15  20
ENDBRANCH  13  14
ENDBRANCH  10  13
ENDBRANCH   8   9
ENDBRANCH   1   8
BRANCH   2  22
HETATM   22  C   UNL     1       7.377  28.847  56.021  1.00  0.00    -0.005 A 
HETATM   23  C   UNL     1       8.770  28.845  56.184  1.00  0.00     0.017 A 
HETATM   24  C   UNL     1       9.356  29.584  57.216  1.00  0.00     0.043 A 
HETATM   25  C   UNL     1       8.551  30.329  58.072  1.00  0.00     0.116 A 
HETATM   26  F   UNL     1       9.117  31.036  59.058  1.00  0.00    -0.206 F 
HETATM   27  C   UNL     1       7.172  30.355  57.917  1.00  0.00     0.043 A 
HETATM   28  C   UNL     1       6.584  29.615  56.888  1.00  0.00     0.017 A 
ENDBRANCH   2  22
TORSDOF 6
ENDMDL
MODEL 10
REMARK VINA RESULT:      -7.8      2.736      4.707
REMARK  6 active torsions:
REMARK  status: ('A' for Active; 'I' for Inactive)
REMARK    1  A    between atoms: C_2  and  N_3 
REMARK    2  A    between atoms: C_5  and  C_6 
REMARK    3  A    between atoms: C_6  and  N_7 
REMARK       I    between atoms: N_7  and  C_8 
REMARK    4  A    between atoms: C_8  and  C_9 
REMARK    5  A    between atoms: C_9  and  C_10 
REMARK    6  A    between atoms: C_11  and  C_12 
ROOT
HETATM    1  C   UNL     1       7.404  23.092  54.421  1.00  0.00     0.006 A 
HETATM    2  C   UNL     1       7.529  23.661  55.735  1.00  0.00     0.096 A 
HETATM    3  N   UNL     1       8.293  22.894  56.522  1.00  0.00    -0.173 NA
HETATM    4  N   UNL     1       8.646  21.861  55.758  1.00  0.00    -0.282 N 
HETATM    5  H   UNL     1       9.238  21.149  56.171  1.00  0.00     0.189 HD
HETATM    6  C   UNL     1       8.171  21.934  54.478  1.00  0.00     0.033 A 
HETATM    7  C   UNL     1       8.524  20.899  53.480  1.00  0.00     0.070 C 
ENDROOT
BRANCH   1   8
HETATM    8  C   UNL     1       6.693  23.704  53.254  1.00  0.00     0.146 C 
BRANCH   8   9
HETATM    9  C   UNL     1       7.240  25.063  52.838  1.00  0.00     0.222 C 
HETATM   10  N   UNL     1       6.469  26.141  53.228  1.00  0.00    -0.359 N 
HETATM   11  H   UNL     1       5.567  25.933  53.649  1.00  0.00     0.162 HD
HETATM   12  O   UNL     1       8.299  25.208  52.225  1.00  0.00    -0.273 OA
BRANCH  10  13
HETATM   13  C   UNL     1       6.726  27.543  52.904  1.00  0.00     0.155 C 
BRANCH  13  14
HETATM   14  C   UNL     1       5.491  28.398  52.564  1.00  0.00     0.206 C 
HETATM   15  N   UNL     1       5.087  28.441  51.096  1.00  0.00    -0.066 N 
HETATM   16  H   UNL     1       5.821  29.025  50.637  1.00  0.00     0.280 HD
HETATM   17  C   UNL     1       3.757  29.152  51.132  1.00  0.00     0.235 C 
HETATM   18  C   UNL     1       3.126  28.740  52.462  1.00  0.00     0.030 C 
HETATM   19  C   UNL     1       4.196  27.976  53.235  1.00  0.00     0.036 C 
BRANCH  15  20
HETATM   20  C   UNL     1       5.073  27.140  50.331  1.00  0.00     0.231 C 
HETATM   21  C   UNL     1       4.128  27.221  49.142  1.00  0.00     0.034 C 
ENDBRANCH  15  20
ENDBRANCH  13  14
ENDBRANCH  10  13
ENDBRANCH   8   9
ENDBRANCH   1   8
BRANCH   2  22
HETATM   22  C   UNL     1       7.003  24.924  56.250  1.00  0.00    -0.005 A 
HETATM   23  C   UNL     1       5.628  25.111  56.446  1.00  0.00     0.017 A 
HETATM   24  C   UNL     1       5.149  26.326  56.945  1.00  0.00     0.043 A 
HETATM   25  C   UNL     1       6.046  27.344  57.254  1.00  0.00     0.116 A 
HETATM   26  F   UNL     1       5.583  28.506  57.732  1.00  0.00    -0.206 F 
HETATM   27  C   UNL     1       7.412  27.171  57.082  1.00  0.00     0.043 A 
HETATM   28  C   UNL     1       7.892  25.959  56.582  1.00  0.00     0.017 A 
ENDBRANCH   2  22
TORSDOF 6
ENDMDL
