MODEL 1
REMARK VINA RESULT:      -8.9      0.000      0.000
REMARK  6 active torsions:
REMARK  status: ('A' for Active; 'I' for Inactive)
REMARK    1  A    between atoms: C_2  and  N_3 
REMARK    2  A    between atoms: C_2  and  C_24 
REMARK       I    between atoms: N_3  and  C_4 
REMARK    3  A    between atoms: C_4  and  C_5 
REMARK    4  A    between atoms: C_5  and  N_6 
REMARK    5  A    between atoms: C_10  and  N_11 
REMARK       I    between atoms: N_11  and  C_12 
REMARK       I    between atoms: C_12  and  N_13 
REMARK    6  A    between atoms: N_13  and  C_14 
ROOT
HETATM    1  N   UNL     1       8.349  29.565  57.239  1.00  0.00    -0.063 N 
HETATM    2  H   UNL     1       7.951  30.516  57.302  1.00  0.00     0.280 HD
HETATM    3  C   UNL     1       8.532  29.191  55.797  1.00  0.00     0.237 C 
HETATM    4  C   UNL     1       7.218  28.857  55.123  1.00  0.00     0.053 C 
HETATM    5  C   UNL     1       6.394  27.820  55.877  1.00  0.00     0.089 C 
HETATM    6  C   UNL     1       6.198  28.237  57.332  1.00  0.00     0.053 C 
HETATM    7  C   UNL     1       7.459  28.664  58.063  1.00  0.00     0.237 C 
ENDROOT
BRANCH   1   8
HETATM    8  C   UNL     1       9.740  29.676  57.905  1.00  0.00     0.337 C 
BRANCH   8   9
HETATM    9  C   UNL     1       9.983  31.078  58.454  1.00  0.00     0.244 C 
HETATM   10  N   UNL     1       9.548  31.448  59.685  1.00  0.00    -0.351 N 
HETATM   11  H   UNL     1       9.786  32.409  59.908  1.00  0.00     0.163 HD
HETATM   12  O   UNL     1      10.592  31.894  57.754  1.00  0.00    -0.272 OA
BRANCH  10  13
HETATM   13  C   UNL     1       8.669  30.779  60.648  1.00  0.00     0.120 C 
HETATM   14  C   UNL     1       9.410  30.356  61.913  1.00  0.00     0.038 C 
BRANCH  13  15
HETATM   15  C   UNL     1       7.392  31.567  60.827  1.00  0.00     0.005 A 
HETATM   16  S   UNL     1       6.680  31.863  62.362  1.00  0.00    -0.104 SA
HETATM   17  C   UNL     1       5.357  32.694  61.678  1.00  0.00     0.050 A 
HETATM   18  C   UNL     1       5.432  32.739  60.307  1.00  0.00     0.008 A 
HETATM   19  C   UNL     1       6.603  32.092  59.817  1.00  0.00     0.017 A 
ENDBRANCH  13  15
ENDBRANCH  10  13
ENDBRANCH   8   9
ENDBRANCH   1   8
BRANCH   5  20
HETATM   20  N   UNL     1       6.839  26.442  55.665  1.00  0.00    -0.338 N 
HETATM   21  C   UNL     1       6.198  25.300  56.016  1.00  0.00     0.316 C 
HETATM   22  N   UNL     1       6.848  24.136  55.812  1.00  0.00    -0.339 N 
HETATM   23  O   UNL     1       5.086  25.274  56.531  1.00  0.00    -0.247 OA
HETATM   24  H   UNL     1       6.274  23.336  56.052  1.00  0.00     0.164 HD
HETATM   25  H   UNL     1       7.696  26.324  55.144  1.00  0.00     0.164 HD
BRANCH  22  26
HETATM   26  C   UNL     1       8.185  23.858  55.287  1.00  0.00     0.086 C 
HETATM   27  C   UNL     1       8.686  22.500  55.802  1.00  0.00     0.025 C 
HETATM   28  C   UNL     1       7.971  21.314  55.152  1.00  0.00     0.002 C 
HETATM   29  C   UNL     1       8.022  21.393  53.630  1.00  0.00     0.000 C 
HETATM   30  C   UNL     1       7.486  22.725  53.115  1.00  0.00     0.002 C 
HETATM   31  C   UNL     1       8.208  23.910  53.754  1.00  0.00     0.025 C 
ENDBRANCH  22  26
ENDBRANCH   5  20
TORSDOF 6
ENDMDL
MODEL 2
REMARK VINA RESULT:      -8.8      2.969      9.500
REMARK  6 active torsions:
REMARK  status: ('A' for Active; 'I' for Inactive)
REMARK    1  A    between atoms: C_2  and  N_3 
REMARK    2  A    between atoms: C_2  and  C_24 
REMARK       I    between atoms: N_3  and  C_4 
REMARK    3  A    between atoms: C_4  and  C_5 
REMARK    4  A    between atoms: C_5  and  N_6 
REMARK    5  A    between atoms: C_10  and  N_11 
REMARK       I    between atoms: N_11  and  C_12 
REMARK       I    between atoms: C_12  and  N_13 
REMARK    6  A    between atoms: N_13  and  C_14 
ROOT
HETATM    1  N   UNL     1       7.352  27.469  56.756  1.00  0.00    -0.063 N 
HETATM    2  H   UNL     1       7.412  27.239  55.750  1.00  0.00     0.280 HD
HETATM    3  C   UNL     1       6.243  28.454  56.981  1.00  0.00     0.237 C 
HETATM    4  C   UNL     1       6.618  29.849  56.524  1.00  0.00     0.053 C 
HETATM    5  C   UNL     1       7.940  30.343  57.098  1.00  0.00     0.089 C 
HETATM    6  C   UNL     1       9.056  29.337  56.830  1.00  0.00     0.053 C 
HETATM    7  C   UNL     1       8.735  27.896  57.189  1.00  0.00     0.237 C 
ENDROOT
BRANCH   1   8
HETATM    8  C   UNL     1       6.979  26.133  57.442  1.00  0.00     0.337 C 
BRANCH   8   9
HETATM    9  C   UNL     1       8.119  25.125  57.350  1.00  0.00     0.244 C 
HETATM   10  N   UNL     1       8.327  24.382  56.234  1.00  0.00    -0.351 N 
HETATM   11  H   UNL     1       9.123  23.758  56.324  1.00  0.00     0.163 HD
HETATM   12  O   UNL     1       8.871  24.986  58.321  1.00  0.00    -0.272 OA
BRANCH  10  13
HETATM   13  C   UNL     1       7.521  24.199  55.022  1.00  0.00     0.120 C 
HETATM   14  C   UNL     1       7.687  25.351  54.037  1.00  0.00     0.038 C 
BRANCH  13  15
HETATM   15  C   UNL     1       7.698  22.799  54.483  1.00  0.00     0.005 A 
HETATM   16  S   UNL     1       7.916  21.425  55.491  1.00  0.00    -0.104 SA
HETATM   17  C   UNL     1       8.083  20.373  54.159  1.00  0.00     0.050 A 
HETATM   18  C   UNL     1       7.994  21.042  52.962  1.00  0.00     0.008 A 
HETATM   19  C   UNL     1       7.772  22.436  53.147  1.00  0.00     0.017 A 
ENDBRANCH  13  15
ENDBRANCH  10  13
ENDBRANCH   8   9
ENDBRANCH   1   8
BRANCH   5  20
HETATM   20  N   UNL     1       7.843  30.833  58.474  1.00  0.00    -0.338 N 
HETATM   21  C   UNL     1       8.710  31.643  59.129  1.00  0.00     0.316 C 
HETATM   22  N   UNL     1       8.469  31.884  60.434  1.00  0.00    -0.339 N 
HETATM   23  O   UNL     1       9.705  32.136  58.611  1.00  0.00    -0.247 OA
HETATM   24  H   UNL     1       9.134  32.540  60.826  1.00  0.00     0.164 HD
HETATM   25  H   UNL     1       7.002  30.589  58.976  1.00  0.00     0.164 HD
BRANCH  22  26
HETATM   26  C   UNL     1       7.418  31.393  61.327  1.00  0.00     0.086 C 
HETATM   27  C   UNL     1       7.955  31.270  62.760  1.00  0.00     0.025 C 
HETATM   28  C   UNL     1       8.168  32.625  63.437  1.00  0.00     0.002 C 
HETATM   29  C   UNL     1       6.911  33.486  63.378  1.00  0.00     0.000 C 
HETATM   30  C   UNL     1       6.400  33.645  61.949  1.00  0.00     0.002 C 
HETATM   31  C   UNL     1       6.175  32.291  61.277  1.00  0.00     0.025 C 
ENDBRANCH  22  26
ENDBRANCH   5  20
TORSDOF 6
ENDMDL
MODEL 3
REMARK VINA RESULT:      -8.7      3.001      9.187
REMARK  6 active torsions:
REMARK  status: ('A' for Active; 'I' for Inactive)
REMARK    1  A    between atoms: C_2  and  N_3 
REMARK    2  A    between atoms: C_2  and  C_24 
REMARK       I    between atoms: N_3  and  C_4 
REMARK    3  A    between atoms: C_4  and  C_5 
REMARK    4  A    between atoms: C_5  and  N_6 
REMARK    5  A    between atoms: C_10  and  N_11 
REMARK       I    between atoms: N_11  and  C_12 
REMARK       I    between atoms: C_12  and  N_13 
REMARK    6  A    between atoms: N_13  and  C_14 
ROOT
HETATM    1  N   UNL     1       6.236  26.765  56.196  1.00  0.00    -0.063 N 
HETATM    2  H   UNL     1       5.835  26.482  55.288  1.00  0.00     0.280 HD
HETATM    3  C   UNL     1       5.269  27.657  56.918  1.00  0.00     0.237 C 
HETATM    4  C   UNL     1       5.225  29.049  56.325  1.00  0.00     0.053 C 
HETATM    5  C   UNL     1       6.598  29.696  56.189  1.00  0.00     0.089 C 
HETATM    6  C   UNL     1       7.554  28.783  55.426  1.00  0.00     0.053 C 
HETATM    7  C   UNL     1       7.602  27.343  55.908  1.00  0.00     0.237 C 
ENDROOT
BRANCH   1   8
HETATM    8  C   UNL     1       6.384  25.445  56.989  1.00  0.00     0.337 C 
BRANCH   8   9
HETATM    9  C   UNL     1       7.804  24.898  56.896  1.00  0.00     0.244 C 
HETATM   10  N   UNL     1       8.241  24.228  55.800  1.00  0.00    -0.351 N 
HETATM   11  H   UNL     1       9.207  23.927  55.887  1.00  0.00     0.163 HD
HETATM   12  O   UNL     1       8.573  25.073  57.847  1.00  0.00    -0.272 OA
BRANCH  10  13
HETATM   13  C   UNL     1       7.531  23.723  54.621  1.00  0.00     0.120 C 
HETATM   14  C   UNL     1       7.578  24.702  53.452  1.00  0.00     0.038 C 
BRANCH  13  15
HETATM   15  C   UNL     1       7.933  22.294  54.340  1.00  0.00     0.005 A 
HETATM   16  S   UNL     1       8.472  21.213  55.562  1.00  0.00    -0.104 SA
HETATM   17  C   UNL     1       8.747  19.956  54.443  1.00  0.00     0.050 A 
HETATM   18  C   UNL     1       8.456  20.341  53.156  1.00  0.00     0.008 A 
HETATM   19  C   UNL     1       7.987  21.685  53.096  1.00  0.00     0.017 A 
ENDBRANCH  13  15
ENDBRANCH  10  13
ENDBRANCH   8   9
ENDBRANCH   1   8
BRANCH   5  20
HETATM   20  N   UNL     1       7.115  30.258  57.438  1.00  0.00    -0.338 N 
HETATM   21  C   UNL     1       7.674  29.592  58.478  1.00  0.00     0.316 C 
HETATM   22  N   UNL     1       7.988  30.309  59.576  1.00  0.00    -0.339 N 
HETATM   23  O   UNL     1       7.878  28.384  58.482  1.00  0.00    -0.247 OA
HETATM   24  H   UNL     1       8.449  29.742  60.278  1.00  0.00     0.164 HD
HETATM   25  H   UNL     1       7.110  31.265  57.510  1.00  0.00     0.164 HD
BRANCH  22  26
HETATM   26  C   UNL     1       7.807  31.728  59.886  1.00  0.00     0.086 C 
HETATM   27  C   UNL     1       6.704  31.904  60.941  1.00  0.00     0.025 C 
HETATM   28  C   UNL     1       7.136  31.454  62.337  1.00  0.00     0.002 C 
HETATM   29  C   UNL     1       8.438  32.122  62.766  1.00  0.00     0.000 C 
HETATM   30  C   UNL     1       9.546  31.912  61.738  1.00  0.00     0.002 C 
HETATM   31  C   UNL     1       9.120  32.374  60.346  1.00  0.00     0.025 C 
ENDBRANCH  22  26
ENDBRANCH   5  20
TORSDOF 6
ENDMDL
MODEL 4
REMARK VINA RESULT:      -8.7      4.768      7.579
REMARK  6 active torsions:
REMARK  status: ('A' for Active; 'I' for Inactive)
REMARK    1  A    between atoms: C_2  and  N_3 
REMARK    2  A    between atoms: C_2  and  C_24 
REMARK       I    between atoms: N_3  and  C_4 
REMARK    3  A    between atoms: C_4  and  C_5 
REMARK    4  A    between atoms: C_5  and  N_6 
REMARK    5  A    between atoms: C_10  and  N_11 
REMARK       I    between atoms: N_11  and  C_12 
REMARK       I    between atoms: C_12  and  N_13 
REMARK    6  A    between atoms: N_13  and  C_14 
ROOT
HETATM    1  N   UNL     1       6.243  28.062  55.304  1.00  0.00    -0.063 N 
HETATM    2  H   UNL     1       6.006  28.948  55.779  1.00  0.00     0.280 HD
HETATM    3  C   UNL     1       5.238  27.010  55.670  1.00  0.00     0.237 C 
HETATM    4  C   UNL     1       5.440  26.492  57.078  1.00  0.00     0.053 C 
HETATM    5  C   UNL     1       6.866  26.035  57.359  1.00  0.00     0.089 C 
HETATM    6  C   UNL     1       7.866  27.132  57.008  1.00  0.00     0.053 C 
HETATM    7  C   UNL     1       7.687  27.763  55.637  1.00  0.00     0.237 C 
ENDROOT
BRANCH   1   8
HETATM    8  C   UNL     1       6.110  28.377  53.796  1.00  0.00     0.337 C 
BRANCH   8   9
HETATM    9  C   UNL     1       4.666  28.239  53.326  1.00  0.00     0.244 C 
HETATM   10  N   UNL     1       4.302  27.317  52.400  1.00  0.00    -0.351 N 
HETATM   11  H   UNL     1       3.308  27.346  52.191  1.00  0.00     0.163 HD
HETATM   12  O   UNL     1       3.810  28.990  53.804  1.00  0.00    -0.272 OA
BRANCH  10  13
HETATM   13  C   UNL     1       5.096  26.430  51.544  1.00  0.00     0.120 C 
HETATM   14  C   UNL     1       4.972  24.966  51.953  1.00  0.00     0.038 C 
BRANCH  13  15
HETATM   15  C   UNL     1       4.865  26.762  50.088  1.00  0.00     0.005 A 
HETATM   16  S   UNL     1       5.296  28.271  49.390  1.00  0.00    -0.104 SA
HETATM   17  C   UNL     1       4.672  27.835  47.864  1.00  0.00     0.050 A 
HETATM   18  C   UNL     1       4.126  26.574  47.873  1.00  0.00     0.008 A 
HETATM   19  C   UNL     1       4.238  25.955  49.151  1.00  0.00     0.017 A 
ENDBRANCH  13  15
ENDBRANCH  10  13
ENDBRANCH   8   9
ENDBRANCH   1   8
BRANCH   5  20
HETATM   20  N   UNL     1       7.175  24.702  56.839  1.00  0.00    -0.338 N 
HETATM   21  C   UNL     1       8.372  24.068  56.840  1.00  0.00     0.316 C 
HETATM   22  N   UNL     1       8.444  22.878  56.210  1.00  0.00    -0.339 N 
HETATM   23  O   UNL     1       9.386  24.529  57.351  1.00  0.00    -0.247 OA
HETATM   24  H   UNL     1       9.360  22.453  56.308  1.00  0.00     0.164 HD
HETATM   25  H   UNL     1       6.392  24.167  56.491  1.00  0.00     0.164 HD
BRANCH  22  26
HETATM   26  C   UNL     1       7.439  22.118  55.467  1.00  0.00     0.086 C 
HETATM   27  C   UNL     1       7.474  22.503  53.980  1.00  0.00     0.025 C 
HETATM   28  C   UNL     1       8.705  21.960  53.252  1.00  0.00     0.002 C 
HETATM   29  C   UNL     1       8.857  20.456  53.448  1.00  0.00     0.000 C 
HETATM   30  C   UNL     1       8.864  20.076  54.926  1.00  0.00     0.002 C 
HETATM   31  C   UNL     1       7.629  20.606  55.651  1.00  0.00     0.025 C 
ENDBRANCH  22  26
ENDBRANCH   5  20
TORSDOF 6
ENDMDL
MODEL 5
REMARK VINA RESULT:      -8.6      1.924      2.454
REMARK  6 active torsions:
REMARK  status: ('A' for Active; 'I' for Inactive)
REMARK    1  A    between atoms: C_2  and  N_3 
REMARK    2  A    between atoms: C_2  and  C_24 
REMARK       I    between atoms: N_3  and  C_4 
REMARK    3  A    between atoms: C_4  and  C_5 
REMARK    4  A    between atoms: C_5  and  N_6 
REMARK    5  A    between atoms: C_10  and  N_11 
REMARK       I    between atoms: N_11  and  C_12 
REMARK       I    between atoms: C_12  and  N_13 
REMARK    6  A    between atoms: N_13  and  C_14 
ROOT
HETATM    1  N   UNL     1       6.704  29.073  55.928  1.00  0.00    -0.063 N 
HETATM    2  H   UNL     1       6.533  30.024  55.563  1.00  0.00     0.280 HD
HETATM    3  C   UNL     1       8.041  28.584  55.452  1.00  0.00     0.237 C 
HETATM    4  C   UNL     1       8.016  28.189  53.990  1.00  0.00     0.053 C 
HETATM    5  C   UNL     1       6.899  27.212  53.643  1.00  0.00     0.089 C 
HETATM    6  C   UNL     1       5.548  27.746  54.110  1.00  0.00     0.053 C 
HETATM    7  C   UNL     1       5.504  28.238  55.547  1.00  0.00     0.237 C 
ENDROOT
BRANCH   1   8
HETATM    8  C   UNL     1       6.754  29.245  57.465  1.00  0.00     0.337 C 
BRANCH   8   9
HETATM    9  C   UNL     1       6.222  30.609  57.888  1.00  0.00     0.244 C 
HETATM   10  N   UNL     1       6.866  31.374  58.804  1.00  0.00    -0.351 N 
HETATM   11  H   UNL     1       6.390  32.254  58.981  1.00  0.00     0.163 HD
HETATM   12  O   UNL     1       5.174  31.023  57.380  1.00  0.00    -0.272 OA
BRANCH  10  13
HETATM   13  C   UNL     1       8.001  31.087  59.688  1.00  0.00     0.120 C 
HETATM   14  C   UNL     1       9.341  31.407  59.033  1.00  0.00     0.038 C 
BRANCH  13  15
HETATM   15  C   UNL     1       7.751  31.659  61.063  1.00  0.00     0.005 A 
HETATM   16  S   UNL     1       6.238  32.316  61.546  1.00  0.00    -0.104 SA
HETATM   17  C   UNL     1       6.826  32.746  63.088  1.00  0.00     0.050 A 
HETATM   18  C   UNL     1       8.152  32.418  63.243  1.00  0.00     0.008 A 
HETATM   19  C   UNL     1       8.684  31.792  62.080  1.00  0.00     0.017 A 
ENDBRANCH  13  15
ENDBRANCH  10  13
ENDBRANCH   8   9
ENDBRANCH   1   8
BRANCH   5  20
HETATM   20  N   UNL     1       7.192  25.824  54.000  1.00  0.00    -0.338 N 
HETATM   21  C   UNL     1       6.310  24.818  54.213  1.00  0.00     0.316 C 
HETATM   22  N   UNL     1       6.805  23.637  54.634  1.00  0.00    -0.339 N 
HETATM   23  O   UNL     1       5.098  24.935  54.073  1.00  0.00    -0.247 OA
HETATM   24  H   UNL     1       6.083  22.931  54.714  1.00  0.00     0.164 HD
HETATM   25  H   UNL     1       8.169  25.569  54.034  1.00  0.00     0.164 HD
BRANCH  22  26
HETATM   26  C   UNL     1       8.173  23.222  54.948  1.00  0.00     0.086 C 
HETATM   27  C   UNL     1       8.174  22.252  56.139  1.00  0.00     0.025 C 
HETATM   28  C   UNL     1       7.628  20.869  55.783  1.00  0.00     0.002 C 
HETATM   29  C   UNL     1       8.343  20.276  54.574  1.00  0.00     0.000 C 
HETATM   30  C   UNL     1       8.307  21.221  53.377  1.00  0.00     0.002 C 
HETATM   31  C   UNL     1       8.864  22.599  53.728  1.00  0.00     0.025 C 
ENDBRANCH  22  26
ENDBRANCH   5  20
TORSDOF 6
ENDMDL
MODEL 6
REMARK VINA RESULT:      -8.3      5.039      8.189
REMARK  6 active torsions:
REMARK  status: ('A' for Active; 'I' for Inactive)
REMARK    1  A    between atoms: C_2  and  N_3 
REMARK    2  A    between atoms: C_2  and  C_24 
REMARK       I    between atoms: N_3  and  C_4 
REMARK    3  A    between atoms: C_4  and  C_5 
REMARK    4  A    between atoms: C_5  and  N_6 
REMARK    5  A    between atoms: C_10  and  N_11 
REMARK       I    between atoms: N_11  and  C_12 
REMARK       I    between atoms: C_12  and  N_13 
REMARK    6  A    between atoms: N_13  and  C_14 
ROOT
HETATM    1  N   UNL     1       5.395  27.974  54.635  1.00  0.00    -0.063 N 
HETATM    2  H   UNL     1       5.405  28.985  54.845  1.00  0.00     0.280 HD
HETATM    3  C   UNL     1       4.984  27.210  55.859  1.00  0.00     0.237 C 
HETATM    4  C   UNL     1       6.091  27.145  56.891  1.00  0.00     0.053 C 
HETATM    5  C   UNL     1       7.417  26.645  56.330  1.00  0.00     0.089 C 
HETATM    6  C   UNL     1       7.827  27.457  55.105  1.00  0.00     0.053 C 
HETATM    7  C   UNL     1       6.748  27.637  54.051  1.00  0.00     0.237 C 
ENDROOT
BRANCH   1   8
HETATM    8  C   UNL     1       4.303  27.808  53.553  1.00  0.00     0.337 C 
BRANCH   8   9
HETATM    9  C   UNL     1       4.580  26.599  52.666  1.00  0.00     0.244 C 
HETATM   10  N   UNL     1       4.651  26.706  51.315  1.00  0.00    -0.351 N 
HETATM   11  H   UNL     1       4.842  25.816  50.864  1.00  0.00     0.163 HD
HETATM   12  O   UNL     1       4.742  25.495  53.198  1.00  0.00    -0.272 OA
BRANCH  10  13
HETATM   13  C   UNL     1       4.337  27.814  50.409  1.00  0.00     0.120 C 
HETATM   14  C   UNL     1       5.535  28.728  50.173  1.00  0.00     0.038 C 
BRANCH  13  15
HETATM   15  C   UNL     1       3.609  27.301  49.188  1.00  0.00     0.005 A 
HETATM   16  S   UNL     1       2.120  27.958  48.638  1.00  0.00    -0.104 SA
HETATM   17  C   UNL     1       2.004  26.835  47.360  1.00  0.00     0.050 A 
HETATM   18  C   UNL     1       3.062  25.958  47.348  1.00  0.00     0.008 A 
HETATM   19  C   UNL     1       3.986  26.226  48.398  1.00  0.00     0.017 A 
ENDBRANCH  13  15
ENDBRANCH  10  13
ENDBRANCH   8   9
ENDBRANCH   1   8
BRANCH   5  20
HETATM   20  N   UNL     1       7.487  25.191  56.182  1.00  0.00    -0.338 N 
HETATM   21  C   UNL     1       8.475  24.361  56.597  1.00  0.00     0.316 C 
HETATM   22  N   UNL     1       8.375  23.059  56.260  1.00  0.00    -0.339 N 
HETATM   23  O   UNL     1       9.457  24.735  57.230  1.00  0.00    -0.247 OA
HETATM   24  H   UNL     1       9.126  22.507  56.658  1.00  0.00     0.164 HD
HETATM   25  H   UNL     1       6.678  24.744  55.775  1.00  0.00     0.164 HD
BRANCH  22  26
HETATM   26  C   UNL     1       7.373  22.342  55.471  1.00  0.00     0.086 C 
HETATM   27  C   UNL     1       7.499  22.716  53.987  1.00  0.00     0.025 C 
HETATM   28  C   UNL     1       8.738  22.113  53.322  1.00  0.00     0.002 C 
HETATM   29  C   UNL     1       8.811  20.605  53.531  1.00  0.00     0.000 C 
HETATM   30  C   UNL     1       8.727  20.234  55.009  1.00  0.00     0.002 C 
HETATM   31  C   UNL     1       7.483  20.825  55.670  1.00  0.00     0.025 C 
ENDBRANCH  22  26
ENDBRANCH   5  20
TORSDOF 6
ENDMDL
MODEL 7
REMARK VINA RESULT:      -8.2      2.808      9.097
REMARK  6 active torsions:
REMARK  status: ('A' for Active; 'I' for Inactive)
REMARK    1  A    between atoms: C_2  and  N_3 
REMARK    2  A    between atoms: C_2  and  C_24 
REMARK       I    between atoms: N_3  and  C_4 
REMARK    3  A    between atoms: C_4  and  C_5 
REMARK    4  A    between atoms: C_5  and  N_6 
REMARK    5  A    between atoms: C_10  and  N_11 
REMARK       I    between atoms: N_11  and  C_12 
REMARK       I    between atoms: C_12  and  N_13 
REMARK    6  A    between atoms: N_13  and  C_14 
ROOT
HETATM    1  N   UNL     1       7.372  27.338  56.827  1.00  0.00    -0.063 N 
HETATM    2  H   UNL     1       7.440  27.080  55.829  1.00  0.00     0.280 HD
HETATM    3  C   UNL     1       6.258  28.325  57.017  1.00  0.00     0.237 C 
HETATM    4  C   UNL     1       6.629  29.707  56.523  1.00  0.00     0.053 C 
HETATM    5  C   UNL     1       7.945  30.224  57.090  1.00  0.00     0.089 C 
HETATM    6  C   UNL     1       9.068  29.216  56.858  1.00  0.00     0.053 C 
HETATM    7  C   UNL     1       8.751  27.784  57.256  1.00  0.00     0.237 C 
ENDROOT
BRANCH   1   8
HETATM    8  C   UNL     1       7.002  26.021  57.549  1.00  0.00     0.337 C 
BRANCH   8   9
HETATM    9  C   UNL     1       5.801  25.348  56.894  1.00  0.00     0.244 C 
HETATM   10  N   UNL     1       5.866  24.838  55.638  1.00  0.00    -0.351 N 
HETATM   11  H   UNL     1       4.989  24.422  55.341  1.00  0.00     0.163 HD
HETATM   12  O   UNL     1       4.743  25.268  57.528  1.00  0.00    -0.272 OA
BRANCH  10  13
HETATM   13  C   UNL     1       6.897  24.935  54.600  1.00  0.00     0.120 C 
HETATM   14  C   UNL     1       7.653  23.624  54.409  1.00  0.00     0.038 C 
BRANCH  13  15
HETATM   15  C   UNL     1       6.333  25.593  53.362  1.00  0.00     0.005 A 
HETATM   16  S   UNL     1       5.080  26.768  53.413  1.00  0.00    -0.104 SA
HETATM   17  C   UNL     1       5.030  26.905  51.714  1.00  0.00     0.050 A 
HETATM   18  C   UNL     1       5.932  26.067  51.103  1.00  0.00     0.008 A 
HETATM   19  C   UNL     1       6.682  25.313  52.051  1.00  0.00     0.017 A 
ENDBRANCH  13  15
ENDBRANCH  10  13
ENDBRANCH   8   9
ENDBRANCH   1   8
BRANCH   5  20
HETATM   20  N   UNL     1       7.838  30.753  58.451  1.00  0.00    -0.338 N 
HETATM   21  C   UNL     1       8.699  31.583  59.088  1.00  0.00     0.316 C 
HETATM   22  N   UNL     1       8.448  31.860  60.384  1.00  0.00    -0.339 N 
HETATM   23  O   UNL     1       9.697  32.063  58.563  1.00  0.00    -0.247 OA
HETATM   24  H   UNL     1       9.109  32.529  60.762  1.00  0.00     0.164 HD
HETATM   25  H   UNL     1       6.993  30.521  58.954  1.00  0.00     0.164 HD
BRANCH  22  26
HETATM   26  C   UNL     1       7.392  31.394  61.283  1.00  0.00     0.086 C 
HETATM   27  C   UNL     1       7.937  31.248  62.712  1.00  0.00     0.025 C 
HETATM   28  C   UNL     1       8.192  32.593  63.394  1.00  0.00     0.002 C 
HETATM   29  C   UNL     1       6.959  33.489  63.350  1.00  0.00     0.000 C 
HETATM   30  C   UNL     1       6.441  33.668  61.926  1.00  0.00     0.002 C 
HETATM   31  C   UNL     1       6.173  32.325  61.248  1.00  0.00     0.025 C 
ENDBRANCH  22  26
ENDBRANCH   5  20
TORSDOF 6
ENDMDL
MODEL 8
REMARK VINA RESULT:      -7.9      5.539      8.925
REMARK  6 active torsions:
REMARK  status: ('A' for Active; 'I' for Inactive)
REMARK    1  A    between atoms: C_2  and  N_3 
REMARK    2  A    between atoms: C_2  and  C_24 
REMARK       I    between atoms: N_3  and  C_4 
REMARK    3  A    between atoms: C_4  and  C_5 
REMARK    4  A    between atoms: C_5  and  N_6 
REMARK    5  A    between atoms: C_10  and  N_11 
REMARK       I    between atoms: N_11  and  C_12 
REMARK       I    between atoms: C_12  and  N_13 
REMARK    6  A    between atoms: N_13  and  C_14 
ROOT
HETATM    1  N   UNL     1       6.192  25.466  54.283  1.00  0.00    -0.063 N 
HETATM    2  H   UNL     1       6.470  24.508  54.550  1.00  0.00     0.280 HD
HETATM    3  C   UNL     1       4.868  25.429  53.578  1.00  0.00     0.237 C 
HETATM    4  C   UNL     1       4.989  24.902  52.164  1.00  0.00     0.053 C 
HETATM    5  C   UNL     1       6.050  25.617  51.337  1.00  0.00     0.089 C 
HETATM    6  C   UNL     1       7.394  25.616  52.062  1.00  0.00     0.053 C 
HETATM    7  C   UNL     1       7.350  26.058  53.515  1.00  0.00     0.237 C 
ENDROOT
BRANCH   1   8
HETATM    8  C   UNL     1       6.020  26.213  55.627  1.00  0.00     0.337 C 
BRANCH   8   9
HETATM    9  C   UNL     1       5.827  25.239  56.783  1.00  0.00     0.244 C 
HETATM   10  N   UNL     1       6.818  24.405  57.187  1.00  0.00    -0.351 N 
HETATM   11  H   UNL     1       6.539  23.818  57.967  1.00  0.00     0.163 HD
HETATM   12  O   UNL     1       4.736  25.212  57.363  1.00  0.00    -0.272 OA
BRANCH  10  13
HETATM   13  C   UNL     1       8.124  24.088  56.601  1.00  0.00     0.120 C 
HETATM   14  C   UNL     1       9.281  24.513  57.498  1.00  0.00     0.038 C 
BRANCH  13  15
HETATM   15  C   UNL     1       8.135  22.668  56.085  1.00  0.00     0.005 A 
HETATM   16  S   UNL     1       7.852  22.265  54.439  1.00  0.00    -0.104 SA
HETATM   17  C   UNL     1       7.978  20.591  54.744  1.00  0.00     0.050 A 
HETATM   18  C   UNL     1       8.214  20.327  56.071  1.00  0.00     0.008 A 
HETATM   19  C   UNL     1       8.305  21.520  56.843  1.00  0.00     0.017 A 
ENDBRANCH  13  15
ENDBRANCH  10  13
ENDBRANCH   8   9
ENDBRANCH   1   8
BRANCH   5  20
HETATM   20  N   UNL     1       5.616  26.910  50.805  1.00  0.00    -0.338 N 
HETATM   21  C   UNL     1       4.881  27.143  49.691  1.00  0.00     0.316 C 
HETATM   22  N   UNL     1       4.686  28.430  49.335  1.00  0.00    -0.339 N 
HETATM   23  O   UNL     1       4.417  26.257  48.983  1.00  0.00    -0.247 OA
HETATM   24  H   UNL     1       4.082  28.510  48.525  1.00  0.00     0.164 HD
HETATM   25  H   UNL     1       5.839  27.720  51.364  1.00  0.00     0.164 HD
BRANCH  22  26
HETATM   26  C   UNL     1       5.161  29.678  49.932  1.00  0.00     0.086 C 
HETATM   27  C   UNL     1       5.463  30.710  48.836  1.00  0.00     0.025 C 
HETATM   28  C   UNL     1       4.201  31.275  48.183  1.00  0.00     0.002 C 
HETATM   29  C   UNL     1       3.229  31.825  49.221  1.00  0.00     0.000 C 
HETATM   30  C   UNL     1       2.894  30.787  50.288  1.00  0.00     0.002 C 
HETATM   31  C   UNL     1       4.155  30.231  50.950  1.00  0.00     0.025 C 
ENDBRANCH  22  26
ENDBRANCH   5  20
TORSDOF 6
ENDMDL
MODEL 9
REMARK VINA RESULT:      -7.6      5.590      8.459
REMARK  6 active torsions:
REMARK  status: ('A' for Active; 'I' for Inactive)
REMARK    1  A    between atoms: C_2  and  N_3 
REMARK    2  A    between atoms: C_2  and  C_24 
REMARK       I    between atoms: N_3  and  C_4 
REMARK    3  A    between atoms: C_4  and  C_5 
REMARK    4  A    between atoms: C_5  and  N_6 
REMARK    5  A    between atoms: C_10  and  N_11 
REMARK       I    between atoms: N_11  and  C_12 
REMARK       I    between atoms: C_12  and  N_13 
REMARK    6  A    between atoms: N_13  and  C_14 
ROOT
HETATM    1  N   UNL     1       5.606  28.208  52.922  1.00  0.00    -0.063 N 
HETATM    2  H   UNL     1       5.355  29.210  52.950  1.00  0.00     0.280 HD
HETATM    3  C   UNL     1       4.646  27.425  53.768  1.00  0.00     0.237 C 
HETATM    4  C   UNL     1       4.906  27.610  55.248  1.00  0.00     0.053 C 
HETATM    5  C   UNL     1       6.353  27.352  55.649  1.00  0.00     0.089 C 
HETATM    6  C   UNL     1       7.308  28.182  54.795  1.00  0.00     0.053 C 
HETATM    7  C   UNL     1       7.068  28.115  53.296  1.00  0.00     0.237 C 
ENDROOT
BRANCH   1   8
HETATM    8  C   UNL     1       5.419  27.797  51.443  1.00  0.00     0.337 C 
BRANCH   8   9
HETATM    9  C   UNL     1       5.170  29.013  50.557  1.00  0.00     0.244 C 
HETATM   10  N   UNL     1       3.928  29.329  50.110  1.00  0.00    -0.351 N 
HETATM   11  H   UNL     1       3.924  30.164  49.533  1.00  0.00     0.163 HD
HETATM   12  O   UNL     1       6.129  29.725  50.240  1.00  0.00    -0.272 OA
BRANCH  10  13
HETATM   13  C   UNL     1       2.658  28.600  50.169  1.00  0.00     0.120 C 
HETATM   14  C   UNL     1       1.494  29.495  50.581  1.00  0.00     0.038 C 
BRANCH  13  15
HETATM   15  C   UNL     1       2.478  27.762  48.925  1.00  0.00     0.005 A 
HETATM   16  S   UNL     1       3.589  26.541  48.446  1.00  0.00    -0.104 SA
HETATM   17  C   UNL     1       2.712  26.187  47.027  1.00  0.00     0.050 A 
HETATM   18  C   UNL     1       1.601  26.985  46.896  1.00  0.00     0.008 A 
HETATM   19  C   UNL     1       1.465  27.890  47.987  1.00  0.00     0.017 A 
ENDBRANCH  13  15
ENDBRANCH  10  13
ENDBRANCH   8   9
ENDBRANCH   1   8
BRANCH   5  20
HETATM   20  N   UNL     1       6.688  25.934  55.780  1.00  0.00    -0.338 N 
HETATM   21  C   UNL     1       7.745  25.388  56.429  1.00  0.00     0.316 C 
HETATM   22  N   UNL     1       7.910  24.052  56.333  1.00  0.00    -0.339 N 
HETATM   23  O   UNL     1       8.564  26.040  57.066  1.00  0.00    -0.247 OA
HETATM   24  H   UNL     1       8.691  23.727  56.892  1.00  0.00     0.164 HD
HETATM   25  H   UNL     1       6.022  25.280  55.394  1.00  0.00     0.164 HD
BRANCH  22  26
HETATM   26  C   UNL     1       7.149  23.037  55.605  1.00  0.00     0.086 C 
HETATM   27  C   UNL     1       7.112  23.374  54.106  1.00  0.00     0.025 C 
HETATM   28  C   UNL     1       8.455  23.145  53.410  1.00  0.00     0.002 C 
HETATM   29  C   UNL     1       8.986  21.738  53.659  1.00  0.00     0.000 C 
HETATM   30  C   UNL     1       9.062  21.417  55.149  1.00  0.00     0.002 C 
HETATM   31  C   UNL     1       7.717  21.632  55.842  1.00  0.00     0.025 C 
ENDBRANCH  22  26
ENDBRANCH   5  20
TORSDOF 6
ENDMDL
MODEL 10
REMARK VINA RESULT:      -7.5      4.648      6.585
REMARK  6 active torsions:
REMARK  status: ('A' for Active; 'I' for Inactive)
REMARK    1  A    between atoms: C_2  and  N_3 
REMARK    2  A    between atoms: C_2  and  C_24 
REMARK       I    between atoms: N_3  and  C_4 
REMARK    3  A    between atoms: C_4  and  C_5 
REMARK    4  A    between atoms: C_5  and  N_6 
REMARK    5  A    between atoms: C_10  and  N_11 
REMARK       I    between atoms: N_11  and  C_12 
REMARK       I    between atoms: C_12  and  N_13 
REMARK    6  A    between atoms: N_13  and  C_14 
ROOT
HETATM    1  N   UNL     1       6.399  26.272  54.680  1.00  0.00    -0.063 N 
HETATM    2  H   UNL     1       6.891  25.674  55.364  1.00  0.00     0.280 HD
HETATM    3  C   UNL     1       5.310  25.483  54.014  1.00  0.00     0.237 C 
HETATM    4  C   UNL     1       5.856  24.500  52.999  1.00  0.00     0.053 C 
HETATM    5  C   UNL     1       6.798  25.135  51.983  1.00  0.00     0.089 C 
HETATM    6  C   UNL     1       7.913  25.906  52.686  1.00  0.00     0.053 C 
HETATM    7  C   UNL     1       7.457  26.861  53.776  1.00  0.00     0.237 C 
ENDROOT
BRANCH   1   8
HETATM    8  C   UNL     1       5.755  27.393  55.529  1.00  0.00     0.337 C 
BRANCH   8   9
HETATM    9  C   UNL     1       6.136  27.263  57.000  1.00  0.00     0.244 C 
HETATM   10  N   UNL     1       6.566  28.328  57.722  1.00  0.00    -0.351 N 
HETATM   11  H   UNL     1       6.780  28.085  58.684  1.00  0.00     0.163 HD
HETATM   12  O   UNL     1       6.049  26.156  57.542  1.00  0.00    -0.272 OA
BRANCH  10  13
HETATM   13  C   UNL     1       6.932  29.691  57.324  1.00  0.00     0.120 C 
HETATM   14  C   UNL     1       6.177  30.750  58.120  1.00  0.00     0.038 C 
BRANCH  13  15
HETATM   15  C   UNL     1       8.435  29.827  57.245  1.00  0.00     0.005 A 
HETATM   16  S   UNL     1       9.355  30.742  58.371  1.00  0.00    -0.104 SA
HETATM   17  C   UNL     1      10.818  30.426  57.555  1.00  0.00     0.050 A 
HETATM   18  C   UNL     1      10.626  29.655  56.434  1.00  0.00     0.008 A 
HETATM   19  C   UNL     1       9.256  29.309  56.256  1.00  0.00     0.017 A 
ENDBRANCH  13  15
ENDBRANCH  10  13
ENDBRANCH   8   9
ENDBRANCH   1   8
BRANCH   5  20
HETATM   20  N   UNL     1       6.113  25.848  50.905  1.00  0.00    -0.338 N 
HETATM   21  C   UNL     1       5.360  26.971  51.000  1.00  0.00     0.316 C 
HETATM   22  N   UNL     1       4.737  27.397  49.882  1.00  0.00    -0.339 N 
HETATM   23  O   UNL     1       5.193  27.592  52.043  1.00  0.00    -0.247 OA
HETATM   24  H   UNL     1       4.243  28.269  50.034  1.00  0.00     0.164 HD
HETATM   25  H   UNL     1       6.268  25.499  49.970  1.00  0.00     0.164 HD
BRANCH  22  26
HETATM   26  C   UNL     1       4.694  26.839  48.530  1.00  0.00     0.086 C 
HETATM   27  C   UNL     1       3.389  26.056  48.320  1.00  0.00     0.025 C 
HETATM   28  C   UNL     1       2.163  26.963  48.195  1.00  0.00     0.002 C 
HETATM   29  C   UNL     1       2.359  28.029  47.124  1.00  0.00     0.000 C 
HETATM   30  C   UNL     1       3.634  28.835  47.355  1.00  0.00     0.002 C 
HETATM   31  C   UNL     1       4.861  27.932  47.466  1.00  0.00     0.025 C 
ENDBRANCH  22  26
ENDBRANCH   5  20
TORSDOF 6
ENDMDL
