MODEL 1
REMARK VINA RESULT:      -8.1      0.000      0.000
REMARK  4 active torsions:
REMARK  status: ('A' for Active; 'I' for Inactive)
REMARK    1  A    between atoms: O_2  and  C_3 
REMARK    2  A    between atoms: C_4  and  O_5 
REMARK    3  A    between atoms: C_8  and  C_9 
REMARK    4  A    between atoms: C_9  and  N_10 
ROOT
HETATM    1  N   UNL     1       7.340  28.941  55.021  1.00  0.00    -0.066 N 
HETATM    2  H   UNL     1       7.760  29.879  54.937  1.00  0.00     0.280 HD
HETATM    3  C   UNL     1       8.015  28.115  53.940  1.00  0.00     0.246 C 
HETATM    4  C   UNL     1       7.175  26.906  53.475  1.00  0.00     0.062 C 
HETATM    5  C   UNL     1       5.801  27.386  53.024  1.00  0.00     0.020 C 
HETATM    6  C   UNL     1       5.102  27.980  54.238  1.00  0.00     0.031 C 
HETATM    7  C   UNL     1       4.884  26.890  55.287  1.00  0.00     0.138 C 
HETATM    8  N   UNL     1       5.984  25.943  55.467  1.00  0.00    -0.317 N 
HETATM    9  C   UNL     1       7.040  25.851  54.557  1.00  0.00     0.020 A 
HETATM   10  C   UNL     1       7.930  24.849  54.668  1.00  0.00     0.026 A 
HETATM   11  C   UNL     1       5.835  25.042  56.534  1.00  0.00     0.247 A 
HETATM   12  O   UNL     1       4.959  25.139  57.389  1.00  0.00    -0.268 OA
HETATM   13  C   UNL     1       6.833  23.952  56.622  1.00  0.00     0.074 A 
HETATM   14  C   UNL     1       7.817  23.873  55.720  1.00  0.00     0.007 A 
HETATM   15  C   UNL     1       5.869  29.189  54.777  1.00  0.00     0.241 C 
ENDROOT
BRANCH   1  16
HETATM   16  C   UNL     1       7.768  28.555  56.429  1.00  0.00     0.274 C 
BRANCH  16  17
HETATM   17  C   UNL     1       7.991  29.694  57.390  1.00  0.00    -0.012 A 
HETATM   18  C   UNL     1       9.253  30.263  57.630  1.00  0.00     0.054 A 
HETATM   19  C   UNL     1       9.378  31.327  58.530  1.00  0.00     0.117 A 
HETATM   20 BR   UNL     1      10.806  29.612  56.734  1.00  0.00    -0.047 Br
HETATM   21  C   UNL     1       8.270  31.825  59.229  1.00  0.00     0.102 A 
HETATM   22  C   UNL     1       7.020  31.258  59.005  1.00  0.00     0.040 A 
HETATM   23  C   UNL     1       6.882  30.206  58.093  1.00  0.00     0.013 A 
BRANCH  19  24
HETATM   24  O   UNL     1      10.602  31.907  58.744  1.00  0.00    -0.357 OA
HETATM   25  H   UNL     1      10.507  32.845  58.479  1.00  0.00     0.218 HD
ENDBRANCH  19  24
BRANCH  21  26
HETATM   26  O   UNL     1       8.542  32.861  60.085  1.00  0.00    -0.353 OA
HETATM   27  C   UNL     1       7.967  32.787  61.386  1.00  0.00     0.210 C 
ENDBRANCH  21  26
ENDBRANCH  16  17
ENDBRANCH   1  16
TORSDOF 4
ENDMDL
MODEL 2
REMARK VINA RESULT:      -7.8      2.345      3.807
REMARK  4 active torsions:
REMARK  status: ('A' for Active; 'I' for Inactive)
REMARK    1  A    between atoms: O_2  and  C_3 
REMARK    2  A    between atoms: C_4  and  O_5 
REMARK    3  A    between atoms: C_8  and  C_9 
REMARK    4  A    between atoms: C_9  and  N_10 
ROOT
HETATM    1  N   UNL     1       7.614  26.124  57.101  1.00  0.00    -0.066 N 
HETATM    2  H   UNL     1       7.748  26.524  58.043  1.00  0.00     0.280 HD
HETATM    3  C   UNL     1       6.190  25.595  57.104  1.00  0.00     0.246 C 
HETATM    4  C   UNL     1       5.952  24.466  56.079  1.00  0.00     0.062 C 
HETATM    5  C   UNL     1       6.957  23.345  56.316  1.00  0.00     0.020 C 
HETATM    6  C   UNL     1       8.344  23.911  56.049  1.00  0.00     0.031 C 
HETATM    7  C   UNL     1       8.455  24.322  54.581  1.00  0.00     0.138 C 
HETATM    8  N   UNL     1       7.278  24.971  54.005  1.00  0.00    -0.317 N 
HETATM    9  C   UNL     1       6.037  24.962  54.648  1.00  0.00     0.020 A 
HETATM   10  C   UNL     1       4.948  25.414  54.001  1.00  0.00     0.026 A 
HETATM   11  C   UNL     1       7.444  25.479  52.707  1.00  0.00     0.247 A 
HETATM   12  O   UNL     1       8.533  25.565  52.144  1.00  0.00    -0.268 OA
HETATM   13  C   UNL     1       6.222  25.966  52.027  1.00  0.00     0.074 A 
HETATM   14  C   UNL     1       5.044  25.919  52.656  1.00  0.00     0.007 A 
HETATM   15  C   UNL     1       8.671  25.047  57.019  1.00  0.00     0.241 C 
ENDROOT
BRANCH   1  16
HETATM   16  C   UNL     1       7.794  27.360  56.232  1.00  0.00     0.274 C 
BRANCH  16  17
HETATM   17  C   UNL     1       8.160  28.631  56.955  1.00  0.00    -0.012 A 
HETATM   18  C   UNL     1       7.207  29.536  57.450  1.00  0.00     0.054 A 
HETATM   19  C   UNL     1       7.626  30.691  58.120  1.00  0.00     0.117 A 
HETATM   20 BR   UNL     1       5.341  29.208  57.233  1.00  0.00    -0.047 Br
HETATM   21  C   UNL     1       8.986  30.987  58.284  1.00  0.00     0.102 A 
HETATM   22  C   UNL     1       9.934  30.101  57.786  1.00  0.00     0.040 A 
HETATM   23  C   UNL     1       9.525  28.934  57.129  1.00  0.00     0.013 A 
BRANCH  19  24
HETATM   24  O   UNL     1       6.700  31.562  58.635  1.00  0.00    -0.357 OA
HETATM   25  H   UNL     1       5.885  31.434  58.107  1.00  0.00     0.218 HD
ENDBRANCH  19  24
BRANCH  21  26
HETATM   26  O   UNL     1       9.249  32.155  58.950  1.00  0.00    -0.353 OA
HETATM   27  C   UNL     1       9.607  32.045  60.325  1.00  0.00     0.210 C 
ENDBRANCH  21  26
ENDBRANCH  16  17
ENDBRANCH   1  16
TORSDOF 4
ENDMDL
MODEL 3
REMARK VINA RESULT:      -7.6      2.907      7.388
REMARK  4 active torsions:
REMARK  status: ('A' for Active; 'I' for Inactive)
REMARK    1  A    between atoms: O_2  and  C_3 
REMARK    2  A    between atoms: C_4  and  O_5 
REMARK    3  A    between atoms: C_8  and  C_9 
REMARK    4  A    between atoms: C_9  and  N_10 
ROOT
HETATM    1  N   UNL     1       5.763  26.062  55.402  1.00  0.00    -0.066 N 
HETATM    2  H   UNL     1       5.276  25.157  55.317  1.00  0.00     0.280 HD
HETATM    3  C   UNL     1       5.169  26.707  56.642  1.00  0.00     0.246 C 
HETATM    4  C   UNL     1       5.280  28.247  56.647  1.00  0.00     0.062 C 
HETATM    5  C   UNL     1       4.647  28.806  55.379  1.00  0.00     0.020 C 
HETATM    6  C   UNL     1       5.463  28.300  54.199  1.00  0.00     0.031 C 
HETATM    7  C   UNL     1       6.884  28.856  54.284  1.00  0.00     0.138 C 
HETATM    8  N   UNL     1       7.478  28.897  55.619  1.00  0.00    -0.317 N 
HETATM    9  C   UNL     1       6.715  28.719  56.776  1.00  0.00     0.020 A 
HETATM   10  C   UNL     1       7.270  28.943  57.981  1.00  0.00     0.026 A 
HETATM   11  C   UNL     1       8.832  29.266  55.665  1.00  0.00     0.247 A 
HETATM   12  O   UNL     1       9.545  29.362  54.670  1.00  0.00    -0.268 OA
HETATM   13  C   UNL     1       9.406  29.506  57.009  1.00  0.00     0.074 A 
HETATM   14  C   UNL     1       8.645  29.354  58.097  1.00  0.00     0.007 A 
HETATM   15  C   UNL     1       5.418  26.773  54.113  1.00  0.00     0.241 C 
ENDROOT
BRANCH   1  16
HETATM   16  C   UNL     1       7.201  25.603  55.592  1.00  0.00     0.274 C 
BRANCH  16  17
HETATM   17  C   UNL     1       7.500  24.179  55.200  1.00  0.00    -0.012 A 
HETATM   18  C   UNL     1       8.117  23.256  56.061  1.00  0.00     0.054 A 
HETATM   19  C   UNL     1       8.352  21.947  55.626  1.00  0.00     0.117 A 
HETATM   20 BR   UNL     1       8.633  23.760  57.827  1.00  0.00    -0.047 Br
HETATM   21  C   UNL     1       8.011  21.536  54.330  1.00  0.00     0.102 A 
HETATM   22  C   UNL     1       7.410  22.449  53.469  1.00  0.00     0.040 A 
HETATM   23  C   UNL     1       7.156  23.755  53.901  1.00  0.00     0.013 A 
BRANCH  19  24
HETATM   24  O   UNL     1       8.925  21.033  56.473  1.00  0.00    -0.357 OA
HETATM   25  H   UNL     1       8.523  20.169  56.250  1.00  0.00     0.218 HD
ENDBRANCH  19  24
BRANCH  21  26
HETATM   26  O   UNL     1       8.308  20.231  54.039  1.00  0.00    -0.353 OA
HETATM   27  C   UNL     1       8.777  19.957  52.721  1.00  0.00     0.210 C 
ENDBRANCH  21  26
ENDBRANCH  16  17
ENDBRANCH   1  16
TORSDOF 4
ENDMDL
MODEL 4
REMARK VINA RESULT:      -7.5      5.063      9.818
REMARK  4 active torsions:
REMARK  status: ('A' for Active; 'I' for Inactive)
REMARK    1  A    between atoms: O_2  and  C_3 
REMARK    2  A    between atoms: C_4  and  O_5 
REMARK    3  A    between atoms: C_8  and  C_9 
REMARK    4  A    between atoms: C_9  and  N_10 
ROOT
HETATM    1  N   UNL     1       4.423  33.047  61.821  1.00  0.00    -0.066 N 
HETATM    2  H   UNL     1       4.547  32.024  61.817  1.00  0.00     0.280 HD
HETATM    3  C   UNL     1       4.355  33.425  63.291  1.00  0.00     0.246 C 
HETATM    4  C   UNL     1       3.604  34.748  63.552  1.00  0.00     0.062 C 
HETATM    5  C   UNL     1       2.211  34.670  62.938  1.00  0.00     0.020 C 
HETATM    6  C   UNL     1       2.382  34.539  61.432  1.00  0.00     0.031 C 
HETATM    7  C   UNL     1       3.054  35.796  60.882  1.00  0.00     0.138 C 
HETATM    8  N   UNL     1       4.135  36.353  61.694  1.00  0.00    -0.317 N 
HETATM    9  C   UNL     1       4.355  35.951  63.014  1.00  0.00     0.020 A 
HETATM   10  C   UNL     1       5.242  36.616  63.775  1.00  0.00     0.026 A 
HETATM   11  C   UNL     1       4.844  37.414  61.108  1.00  0.00     0.247 A 
HETATM   12  O   UNL     1       4.723  37.745  59.931  1.00  0.00    -0.268 OA
HETATM   13  C   UNL     1       5.810  38.123  61.978  1.00  0.00     0.074 A 
HETATM   14  C   UNL     1       5.979  37.733  63.245  1.00  0.00     0.007 A 
HETATM   15  C   UNL     1       3.126  33.252  61.073  1.00  0.00     0.241 C 
ENDROOT
BRANCH   1  16
HETATM   16  C   UNL     1       5.709  33.498  61.143  1.00  0.00     0.274 C 
BRANCH  16  17
HETATM   17  C   UNL     1       6.534  32.414  60.500  1.00  0.00    -0.012 A 
HETATM   18  C   UNL     1       7.559  31.726  61.171  1.00  0.00     0.054 A 
HETATM   19  C   UNL     1       8.275  30.723  60.508  1.00  0.00     0.117 A 
HETATM   20 BR   UNL     1       7.985  32.133  62.985  1.00  0.00    -0.047 Br
HETATM   21  C   UNL     1       8.014  30.404  59.169  1.00  0.00     0.102 A 
HETATM   22  C   UNL     1       7.009  31.089  58.496  1.00  0.00     0.040 A 
HETATM   23  C   UNL     1       6.276  32.082  59.155  1.00  0.00     0.013 A 
BRANCH  19  24
HETATM   24  O   UNL     1       9.255  30.026  61.168  1.00  0.00    -0.357 OA
HETATM   25  H   UNL     1       9.819  29.629  60.474  1.00  0.00     0.218 HD
ENDBRANCH  19  24
BRANCH  21  26
HETATM   26  O   UNL     1       8.798  29.410  58.646  1.00  0.00    -0.353 OA
HETATM   27  C   UNL     1       9.555  29.732  57.482  1.00  0.00     0.210 C 
ENDBRANCH  21  26
ENDBRANCH  16  17
ENDBRANCH   1  16
TORSDOF 4
ENDMDL
MODEL 5
REMARK VINA RESULT:      -7.5      1.745      3.385
REMARK  4 active torsions:
REMARK  status: ('A' for Active; 'I' for Inactive)
REMARK    1  A    between atoms: O_2  and  C_3 
REMARK    2  A    between atoms: C_4  and  O_5 
REMARK    3  A    between atoms: C_8  and  C_9 
REMARK    4  A    between atoms: C_9  and  N_10 
ROOT
HETATM    1  N   UNL     1       7.761  27.117  56.838  1.00  0.00    -0.066 N 
HETATM    2  H   UNL     1       8.480  27.000  57.568  1.00  0.00     0.280 HD
HETATM    3  C   UNL     1       6.444  27.156  57.592  1.00  0.00     0.246 C 
HETATM    4  C   UNL     1       5.231  26.734  56.736  1.00  0.00     0.062 C 
HETATM    5  C   UNL     1       5.486  25.354  56.142  1.00  0.00     0.020 C 
HETATM    6  C   UNL     1       6.679  25.471  55.206  1.00  0.00     0.031 C 
HETATM    7  C   UNL     1       6.334  26.409  54.051  1.00  0.00     0.138 C 
HETATM    8  N   UNL     1       5.559  27.599  54.400  1.00  0.00    -0.317 N 
HETATM    9  C   UNL     1       4.927  27.736  55.638  1.00  0.00     0.020 A 
HETATM   10  C   UNL     1       4.083  28.762  55.846  1.00  0.00     0.026 A 
HETATM   11  C   UNL     1       5.378  28.527  53.361  1.00  0.00     0.247 A 
HETATM   12  O   UNL     1       5.974  28.471  52.288  1.00  0.00    -0.268 OA
HETATM   13  C   UNL     1       4.440  29.641  53.627  1.00  0.00     0.074 A 
HETATM   14  C   UNL     1       3.828  29.731  54.812  1.00  0.00     0.007 A 
HETATM   15  C   UNL     1       7.937  25.893  55.969  1.00  0.00     0.241 C 
ENDROOT
BRANCH   1  16
HETATM   16  C   UNL     1       8.159  28.464  56.251  1.00  0.00     0.274 C 
BRANCH  16  17
HETATM   17  C   UNL     1       8.230  29.614  57.222  1.00  0.00    -0.012 A 
HETATM   18  C   UNL     1       9.437  30.219  57.610  1.00  0.00     0.054 A 
HETATM   19  C   UNL     1       9.420  31.291  58.510  1.00  0.00     0.117 A 
HETATM   20 BR   UNL     1      11.105  29.607  56.918  1.00  0.00    -0.047 Br
HETATM   21  C   UNL     1       8.222  31.762  59.062  1.00  0.00     0.102 A 
HETATM   22  C   UNL     1       7.025  31.159  58.690  1.00  0.00     0.040 A 
HETATM   23  C   UNL     1       7.030  30.098  57.779  1.00  0.00     0.013 A 
BRANCH  19  24
HETATM   24  O   UNL     1      10.593  31.907  58.868  1.00  0.00    -0.357 OA
HETATM   25  H   UNL     1      10.657  32.710  58.311  1.00  0.00     0.218 HD
ENDBRANCH  19  24
BRANCH  21  26
HETATM   26  O   UNL     1       8.358  32.809  59.935  1.00  0.00    -0.353 OA
HETATM   27  C   UNL     1       7.610  32.739  61.146  1.00  0.00     0.210 C 
ENDBRANCH  21  26
ENDBRANCH  16  17
ENDBRANCH   1  16
TORSDOF 4
ENDMDL
MODEL 6
REMARK VINA RESULT:      -7.4      5.274      9.826
REMARK  4 active torsions:
REMARK  status: ('A' for Active; 'I' for Inactive)
REMARK    1  A    between atoms: O_2  and  C_3 
REMARK    2  A    between atoms: C_4  and  O_5 
REMARK    3  A    between atoms: C_8  and  C_9 
REMARK    4  A    between atoms: C_9  and  N_10 
ROOT
HETATM    1  N   UNL     1       6.708  32.917  63.237  1.00  0.00    -0.066 N 
HETATM    2  H   UNL     1       7.386  32.160  63.412  1.00  0.00     0.280 HD
HETATM    3  C   UNL     1       6.959  33.926  64.344  1.00  0.00     0.246 C 
HETATM    4  C   UNL     1       5.736  34.816  64.655  1.00  0.00     0.062 C 
HETATM    5  C   UNL     1       4.535  33.934  64.974  1.00  0.00     0.020 C 
HETATM    6  C   UNL     1       4.206  33.138  63.720  1.00  0.00     0.031 C 
HETATM    7  C   UNL     1       3.788  34.092  62.603  1.00  0.00     0.138 C 
HETATM    8  N   UNL     1       4.553  35.334  62.500  1.00  0.00    -0.317 N 
HETATM    9  C   UNL     1       5.412  35.763  63.516  1.00  0.00     0.020 A 
HETATM   10  C   UNL     1       5.953  36.992  63.456  1.00  0.00     0.026 A 
HETATM   11  C   UNL     1       4.262  36.131  61.381  1.00  0.00     0.247 A 
HETATM   12  O   UNL     1       3.568  35.754  60.440  1.00  0.00    -0.268 OA
HETATM   13  C   UNL     1       4.875  37.478  61.352  1.00  0.00     0.074 A 
HETATM   14  C   UNL     1       5.670  37.872  62.351  1.00  0.00     0.007 A 
HETATM   15  C   UNL     1       5.369  32.224  63.328  1.00  0.00     0.241 C 
ENDROOT
BRANCH   1  16
HETATM   16  C   UNL     1       7.161  33.403  61.868  1.00  0.00     0.274 C 
BRANCH  16  17
HETATM   17  C   UNL     1       7.613  32.337  60.903  1.00  0.00    -0.012 A 
HETATM   18  C   UNL     1       6.873  31.961  59.770  1.00  0.00     0.054 A 
HETATM   19  C   UNL     1       7.365  30.968  58.915  1.00  0.00     0.117 A 
HETATM   20 BR   UNL     1       5.205  32.794  59.370  1.00  0.00    -0.047 Br
HETATM   21  C   UNL     1       8.574  30.310  59.179  1.00  0.00     0.102 A 
HETATM   22  C   UNL     1       9.305  30.671  60.306  1.00  0.00     0.040 A 
HETATM   23  C   UNL     1       8.830  31.674  61.157  1.00  0.00     0.013 A 
BRANCH  19  24
HETATM   24  O   UNL     1       6.662  30.619  57.790  1.00  0.00    -0.357 OA
HETATM   25  H   UNL     1       5.858  31.177  57.789  1.00  0.00     0.218 HD
ENDBRANCH  19  24
BRANCH  21  26
HETATM   26  O   UNL     1       8.926  29.354  58.263  1.00  0.00    -0.353 OA
HETATM   27  C   UNL     1      10.060  29.634  57.446  1.00  0.00     0.210 C 
ENDBRANCH  21  26
ENDBRANCH  16  17
ENDBRANCH   1  16
TORSDOF 4
ENDMDL
MODEL 7
REMARK VINA RESULT:      -7.3      4.462      9.540
REMARK  4 active torsions:
REMARK  status: ('A' for Active; 'I' for Inactive)
REMARK    1  A    between atoms: O_2  and  C_3 
REMARK    2  A    between atoms: C_4  and  O_5 
REMARK    3  A    between atoms: C_8  and  C_9 
REMARK    4  A    between atoms: C_9  and  N_10 
ROOT
HETATM    1  N   UNL     1       6.847  32.694  62.996  1.00  0.00    -0.066 N 
HETATM    2  H   UNL     1       7.540  31.946  63.154  1.00  0.00     0.280 HD
HETATM    3  C   UNL     1       7.052  33.662  64.148  1.00  0.00     0.246 C 
HETATM    4  C   UNL     1       5.802  34.509  64.469  1.00  0.00     0.062 C 
HETATM    5  C   UNL     1       4.618  33.587  64.728  1.00  0.00     0.020 C 
HETATM    6  C   UNL     1       4.332  32.835  63.437  1.00  0.00     0.031 C 
HETATM    7  C   UNL     1       3.912  33.824  62.351  1.00  0.00     0.138 C 
HETATM    8  N   UNL     1       4.649  35.087  62.312  1.00  0.00    -0.317 N 
HETATM    9  C   UNL     1       5.477  35.494  63.362  1.00  0.00     0.020 A 
HETATM   10  C   UNL     1       5.989  36.737  63.362  1.00  0.00     0.026 A 
HETATM   11  C   UNL     1       4.359  35.920  61.221  1.00  0.00     0.247 A 
HETATM   12  O   UNL     1       3.693  35.566  60.252  1.00  0.00    -0.268 OA
HETATM   13  C   UNL     1       4.940  37.282  61.258  1.00  0.00     0.074 A 
HETATM   14  C   UNL     1       5.706  37.654  62.288  1.00  0.00     0.007 A 
HETATM   15  C   UNL     1       5.524  31.965  63.033  1.00  0.00     0.241 C 
ENDROOT
BRANCH   1  16
HETATM   16  C   UNL     1       7.315  33.245  61.656  1.00  0.00     0.274 C 
BRANCH  16  17
HETATM   17  C   UNL     1       7.122  32.342  60.465  1.00  0.00    -0.012 A 
HETATM   18  C   UNL     1       7.923  31.214  60.217  1.00  0.00     0.054 A 
HETATM   19  C   UNL     1       7.675  30.419  59.093  1.00  0.00     0.117 A 
HETATM   20 BR   UNL     1       9.343  30.743  61.399  1.00  0.00    -0.047 Br
HETATM   21  C   UNL     1       6.658  30.737  58.183  1.00  0.00     0.102 A 
HETATM   22  C   UNL     1       5.870  31.858  58.418  1.00  0.00     0.040 A 
HETATM   23  C   UNL     1       6.099  32.650  59.548  1.00  0.00     0.013 A 
BRANCH  19  24
HETATM   24  O   UNL     1       8.433  29.298  58.862  1.00  0.00    -0.357 OA
HETATM   25  H   UNL     1       8.260  28.696  59.614  1.00  0.00     0.218 HD
ENDBRANCH  19  24
BRANCH  21  26
HETATM   26  O   UNL     1       6.536  29.875  57.124  1.00  0.00    -0.353 OA
HETATM   27  C   UNL     1       5.381  29.041  57.104  1.00  0.00     0.210 C 
ENDBRANCH  21  26
ENDBRANCH  16  17
ENDBRANCH   1  16
TORSDOF 4
ENDMDL
MODEL 8
REMARK VINA RESULT:      -7.3      2.792      4.417
REMARK  4 active torsions:
REMARK  status: ('A' for Active; 'I' for Inactive)
REMARK    1  A    between atoms: O_2  and  C_3 
REMARK    2  A    between atoms: C_4  and  O_5 
REMARK    3  A    between atoms: C_8  and  C_9 
REMARK    4  A    between atoms: C_9  and  N_10 
ROOT
HETATM    1  N   UNL     1       7.165  26.656  54.519  1.00  0.00    -0.066 N 
HETATM    2  H   UNL     1       7.753  26.378  55.320  1.00  0.00     0.280 HD
HETATM    3  C   UNL     1       5.756  26.250  54.913  1.00  0.00     0.246 C 
HETATM    4  C   UNL     1       4.824  26.010  53.706  1.00  0.00     0.062 C 
HETATM    5  C   UNL     1       5.454  24.982  52.774  1.00  0.00     0.020 C 
HETATM    6  C   UNL     1       6.744  25.582  52.236  1.00  0.00     0.031 C 
HETATM    7  C   UNL     1       6.423  26.820  51.399  1.00  0.00     0.138 C 
HETATM    8  N   UNL     1       5.374  27.694  51.923  1.00  0.00    -0.317 N 
HETATM    9  C   UNL     1       4.519  27.292  52.953  1.00  0.00     0.020 A 
HETATM   10  C   UNL     1       3.461  28.056  53.277  1.00  0.00     0.026 A 
HETATM   11  C   UNL     1       5.193  28.901  51.229  1.00  0.00     0.247 A 
HETATM   12  O   UNL     1       5.966  29.313  50.368  1.00  0.00    -0.268 OA
HETATM   13  C   UNL     1       4.016  29.713  51.613  1.00  0.00     0.074 A 
HETATM   14  C   UNL     1       3.200  29.290  52.584  1.00  0.00     0.007 A 
HETATM   15  C   UNL     1       7.735  25.860  53.367  1.00  0.00     0.241 C 
ENDROOT
BRANCH   1  16
HETATM   16  C   UNL     1       7.377  28.163  54.511  1.00  0.00     0.274 C 
BRANCH  16  17
HETATM   17  C   UNL     1       7.718  28.791  55.838  1.00  0.00    -0.012 A 
HETATM   18  C   UNL     1       6.777  29.462  56.636  1.00  0.00     0.054 A 
HETATM   19  C   UNL     1       7.170  30.011  57.862  1.00  0.00     0.117 A 
HETATM   20 BR   UNL     1       4.961  29.627  56.079  1.00  0.00    -0.047 Br
HETATM   21  C   UNL     1       8.498  29.935  58.304  1.00  0.00     0.102 A 
HETATM   22  C   UNL     1       9.436  29.282  57.512  1.00  0.00     0.040 A 
HETATM   23  C   UNL     1       9.049  28.715  56.293  1.00  0.00     0.013 A 
BRANCH  19  24
HETATM   24  O   UNL     1       6.249  30.639  58.662  1.00  0.00    -0.357 OA
HETATM   25  H   UNL     1       6.022  31.475  58.207  1.00  0.00     0.218 HD
ENDBRANCH  19  24
BRANCH  21  26
HETATM   26  O   UNL     1       8.740  30.524  59.517  1.00  0.00    -0.353 OA
HETATM   27  C   UNL     1       9.521  31.716  59.508  1.00  0.00     0.210 C 
ENDBRANCH  21  26
ENDBRANCH  16  17
ENDBRANCH   1  16
TORSDOF 4
ENDMDL
MODEL 9
REMARK VINA RESULT:      -7.3      5.101      7.721
REMARK  4 active torsions:
REMARK  status: ('A' for Active; 'I' for Inactive)
REMARK    1  A    between atoms: O_2  and  C_3 
REMARK    2  A    between atoms: C_4  and  O_5 
REMARK    3  A    between atoms: C_8  and  C_9 
REMARK    4  A    between atoms: C_9  and  N_10 
ROOT
HETATM    1  N   UNL     1       4.567  29.395  51.640  1.00  0.00    -0.066 N 
HETATM    2  H   UNL     1       4.974  29.678  52.545  1.00  0.00     0.280 HD
HETATM    3  C   UNL     1       5.763  29.080  50.759  1.00  0.00     0.246 C 
HETATM    4  C   UNL     1       5.467  29.212  49.249  1.00  0.00     0.062 C 
HETATM    5  C   UNL     1       4.921  30.604  48.960  1.00  0.00     0.020 C 
HETATM    6  C   UNL     1       3.594  30.737  49.692  1.00  0.00     0.031 C 
HETATM    7  C   UNL     1       2.595  29.728  49.129  1.00  0.00     0.138 C 
HETATM    8  N   UNL     1       3.128  28.402  48.817  1.00  0.00    -0.317 N 
HETATM    9  C   UNL     1       4.501  28.150  48.759  1.00  0.00     0.020 A 
HETATM   10  C   UNL     1       4.942  26.967  48.295  1.00  0.00     0.026 A 
HETATM   11  C   UNL     1       2.174  27.442  48.445  1.00  0.00     0.247 A 
HETATM   12  O   UNL     1       0.962  27.609  48.551  1.00  0.00    -0.268 OA
HETATM   13  C   UNL     1       2.699  26.153  47.938  1.00  0.00     0.074 A 
HETATM   14  C   UNL     1       4.018  25.950  47.867  1.00  0.00     0.007 A 
HETATM   15  C   UNL     1       3.787  30.613  51.205  1.00  0.00     0.241 C 
ENDROOT
BRANCH   1  16
HETATM   16  C   UNL     1       3.779  28.159  52.049  1.00  0.00     0.274 C 
BRANCH  16  17
HETATM   17  C   UNL     1       4.571  27.053  52.698  1.00  0.00    -0.012 A 
HETATM   18  C   UNL     1       4.962  27.076  54.047  1.00  0.00     0.054 A 
HETATM   19  C   UNL     1       5.688  26.005  54.580  1.00  0.00     0.117 A 
HETATM   20 BR   UNL     1       4.507  28.546  55.173  1.00  0.00    -0.047 Br
HETATM   21  C   UNL     1       6.066  24.913  53.787  1.00  0.00     0.102 A 
HETATM   22  C   UNL     1       5.691  24.890  52.448  1.00  0.00     0.040 A 
HETATM   23  C   UNL     1       4.950  25.948  51.910  1.00  0.00     0.013 A 
BRANCH  19  24
HETATM   24  O   UNL     1       6.045  26.006  55.904  1.00  0.00    -0.357 OA
HETATM   25  H   UNL     1       5.628  26.801  56.296  1.00  0.00     0.218 HD
ENDBRANCH  19  24
BRANCH  21  26
HETATM   26  O   UNL     1       6.782  23.943  54.438  1.00  0.00    -0.353 OA
HETATM   27  C   UNL     1       7.486  23.008  53.625  1.00  0.00     0.210 C 
ENDBRANCH  21  26
ENDBRANCH  16  17
ENDBRANCH   1  16
TORSDOF 4
ENDMDL
MODEL 10
REMARK VINA RESULT:      -7.2      3.509      7.107
REMARK  4 active torsions:
REMARK  status: ('A' for Active; 'I' for Inactive)
REMARK    1  A    between atoms: O_2  and  C_3 
REMARK    2  A    between atoms: C_4  and  O_5 
REMARK    3  A    between atoms: C_8  and  C_9 
REMARK    4  A    between atoms: C_9  and  N_10 
ROOT
HETATM    1  N   UNL     1       6.540  25.800  54.211  1.00  0.00    -0.066 N 
HETATM    2  H   UNL     1       6.584  25.294  53.313  1.00  0.00     0.280 HD
HETATM    3  C   UNL     1       7.868  25.509  54.887  1.00  0.00     0.246 C 
HETATM    4  C   UNL     1       7.818  25.638  56.424  1.00  0.00     0.062 C 
HETATM    5  C   UNL     1       6.713  24.745  56.973  1.00  0.00     0.020 C 
HETATM    6  C   UNL     1       5.390  25.268  56.433  1.00  0.00     0.031 C 
HETATM    7  C   UNL     1       5.143  26.679  56.965  1.00  0.00     0.138 C 
HETATM    8  N   UNL     1       6.310  27.559  57.018  1.00  0.00    -0.317 N 
HETATM    9  C   UNL     1       7.612  27.073  56.872  1.00  0.00     0.020 A 
HETATM   10  C   UNL     1       8.657  27.887  57.106  1.00  0.00     0.026 A 
HETATM   11  C   UNL     1       6.043  28.893  57.363  1.00  0.00     0.247 A 
HETATM   12  O   UNL     1       4.911  29.366  57.430  1.00  0.00    -0.268 OA
HETATM   13  C   UNL     1       7.219  29.758  57.614  1.00  0.00     0.074 A 
HETATM   14  C   UNL     1       8.453  29.258  57.495  1.00  0.00     0.007 A 
HETATM   15  C   UNL     1       5.348  25.184  54.906  1.00  0.00     0.241 C 
ENDROOT
BRANCH   1  16
HETATM   16  C   UNL     1       6.412  27.238  53.729  1.00  0.00     0.274 C 
BRANCH  16  17
HETATM   17  C   UNL     1       5.579  27.451  52.492  1.00  0.00    -0.012 A 
HETATM   18  C   UNL     1       4.602  28.455  52.385  1.00  0.00     0.054 A 
HETATM   19  C   UNL     1       3.875  28.596  51.197  1.00  0.00     0.117 A 
HETATM   20 BR   UNL     1       4.258  29.644  53.836  1.00  0.00    -0.047 Br
HETATM   21  C   UNL     1       4.076  27.733  50.112  1.00  0.00     0.102 A 
HETATM   22  C   UNL     1       5.033  26.730  50.216  1.00  0.00     0.040 A 
HETATM   23  C   UNL     1       5.777  26.591  51.393  1.00  0.00     0.013 A 
BRANCH  19  24
HETATM   24  O   UNL     1       2.944  29.595  51.076  1.00  0.00    -0.357 OA
HETATM   25  H   UNL     1       3.437  30.437  51.160  1.00  0.00     0.218 HD
ENDBRANCH  19  24
BRANCH  21  26
HETATM   26  O   UNL     1       3.288  27.982  49.019  1.00  0.00    -0.353 OA
HETATM   27  C   UNL     1       2.849  26.851  48.272  1.00  0.00     0.210 C 
ENDBRANCH  21  26
ENDBRANCH  16  17
ENDBRANCH   1  16
TORSDOF 4
ENDMDL
