MODEL 1
REMARK VINA RESULT:     -10.0      0.000      0.000
REMARK  5 active torsions:
REMARK  status: ('A' for Active; 'I' for Inactive)
REMARK    1  A    between atoms: C_4  and  C_5 
REMARK    2  A    between atoms: C_5  and  N_6 
REMARK    3  A    between atoms: C_15  and  C_16 
REMARK    4  A    between atoms: C_16  and  N_17 
REMARK    5  A    between atoms: C_20  and  C_21 
REMARK       I    between atoms: C_21  and  N_22 
ROOT
HETATM    1  N   UNL     1       6.996  25.959  55.677  1.00  0.00    -0.061 N 
HETATM    2  H   UNL     1       7.872  25.519  55.978  1.00  0.00     0.280 HD
HETATM    3  C   UNL     1       7.429  27.232  54.980  1.00  0.00     0.276 C 
HETATM    4  C   UNL     1       6.336  27.990  54.285  1.00  0.00     0.002 A 
HETATM    5  C   UNL     1       5.281  28.526  55.024  1.00  0.00     0.076 A 
HETATM    6  O   UNL     1       5.233  28.389  56.383  1.00  0.00    -0.349 OA
HETATM    7  C   UNL     1       4.951  27.039  56.771  1.00  0.00     0.203 C 
HETATM    8  C   UNL     1       6.238  26.229  56.970  1.00  0.00     0.262 C 
HETATM    9  C   UNL     1       6.366  28.209  52.895  1.00  0.00     0.020 A 
HETATM   10  C   UNL     1       5.358  28.953  52.249  1.00  0.00    -0.032 A 
HETATM   11  C   UNL     1       4.312  29.476  53.027  1.00  0.00     0.011 A 
HETATM   12  C   UNL     1       4.287  29.281  54.409  1.00  0.00     0.038 A 
ENDROOT
BRANCH  10  13
HETATM   13  C   UNL     1       5.379  29.126  50.747  1.00  0.00     0.273 C 
BRANCH  13  14
HETATM   14  N   UNL     1       4.525  28.159  49.962  1.00  0.00    -0.066 N 
HETATM   15  H   UNL     1       3.600  28.131  50.435  1.00  0.00     0.280 HD
HETATM   16  C   UNL     1       4.223  28.611  48.546  1.00  0.00     0.249 C 
HETATM   17  C   UNL     1       3.219  27.661  47.886  1.00  0.00     0.103 C 
HETATM   18  C   UNL     1       3.725  26.216  47.930  1.00  0.00     0.017 C 
HETATM   19  C   UNL     1       4.121  25.787  49.343  1.00  0.00     0.029 C 
HETATM   20  C   UNL     1       5.089  26.761  50.001  1.00  0.00     0.235 C 
BRANCH  17  21
HETATM   21  C   UNL     1       1.881  27.782  48.594  1.00  0.00     0.221 C 
HETATM   22  N   UNL     1       0.895  26.954  48.168  1.00  0.00    -0.370 N 
HETATM   23  H   UNL     1       0.977  26.319  47.383  1.00  0.00     0.159 HD
HETATM   24  H   UNL     1      -0.009  26.991  48.628  1.00  0.00     0.159 HD
HETATM   25  O   UNL     1       1.734  28.535  49.554  1.00  0.00    -0.273 OA
ENDBRANCH  17  21
ENDBRANCH  13  14
ENDBRANCH  10  13
BRANCH   1  26
HETATM   26  C   UNL     1       6.319  24.924  54.795  1.00  0.00     0.274 C 
BRANCH  26  27
HETATM   27  C   UNL     1       7.152  23.704  54.467  1.00  0.00    -0.026 A 
HETATM   28  C   UNL     1       7.248  22.653  55.403  1.00  0.00     0.016 A 
HETATM   29  C   UNL     1       8.044  21.527  55.159  1.00  0.00    -0.061 A 
HETATM   30  C   UNL     1       8.116  20.405  56.156  1.00  0.00     0.048 C 
HETATM   31  C   UNL     1       8.711  21.421  53.939  1.00  0.00     0.007 A 
HETATM   32  C   UNL     1       8.586  22.424  52.979  1.00  0.00     0.008 A 
HETATM   33  C   UNL     1       7.801  23.562  53.219  1.00  0.00    -0.054 A 
HETATM   34  C   UNL     1       7.664  24.574  52.111  1.00  0.00     0.049 C 
ENDBRANCH  26  27
ENDBRANCH   1  26
TORSDOF 5
ENDMDL
MODEL 2
REMARK VINA RESULT:      -9.8      4.104      8.065
REMARK  5 active torsions:
REMARK  status: ('A' for Active; 'I' for Inactive)
REMARK    1  A    between atoms: C_4  and  C_5 
REMARK    2  A    between atoms: C_5  and  N_6 
REMARK    3  A    between atoms: C_15  and  C_16 
REMARK    4  A    between atoms: C_16  and  N_17 
REMARK    5  A    between atoms: C_20  and  C_21 
REMARK       I    between atoms: C_21  and  N_22 
ROOT
HETATM    1  N   UNL     1       5.712  25.168  55.393  1.00  0.00    -0.061 N 
HETATM    2  H   UNL     1       5.399  24.231  55.667  1.00  0.00     0.280 HD
HETATM    3  C   UNL     1       5.465  26.026  56.616  1.00  0.00     0.276 C 
HETATM    4  C   UNL     1       6.001  27.426  56.541  1.00  0.00     0.002 A 
HETATM    5  C   UNL     1       5.506  28.311  55.583  1.00  0.00     0.076 A 
HETATM    6  O   UNL     1       4.520  27.931  54.717  1.00  0.00    -0.349 OA
HETATM    7  C   UNL     1       4.999  26.992  53.746  1.00  0.00     0.203 C 
HETATM    8  C   UNL     1       4.814  25.545  54.223  1.00  0.00     0.262 C 
HETATM    9  C   UNL     1       6.977  27.886  57.446  1.00  0.00     0.020 A 
HETATM   10  C   UNL     1       7.452  29.212  57.397  1.00  0.00    -0.032 A 
HETATM   11  C   UNL     1       6.930  30.073  56.419  1.00  0.00     0.011 A 
HETATM   12  C   UNL     1       5.948  29.630  55.531  1.00  0.00     0.038 A 
ENDROOT
BRANCH  10  13
HETATM   13  C   UNL     1       8.542  29.668  58.341  1.00  0.00     0.273 C 
BRANCH  13  14
HETATM   14  N   UNL     1       8.090  30.516  59.505  1.00  0.00    -0.066 N 
HETATM   15  H   UNL     1       7.642  29.871  60.185  1.00  0.00     0.280 HD
HETATM   16  C   UNL     1       9.225  31.162  60.276  1.00  0.00     0.249 C 
HETATM   17  C   UNL     1       8.690  31.859  61.531  1.00  0.00     0.103 C 
HETATM   18  C   UNL     1       7.596  32.868  61.170  1.00  0.00     0.017 C 
HETATM   19  C   UNL     1       6.495  32.243  60.312  1.00  0.00     0.029 C 
HETATM   20  C   UNL     1       7.045  31.522  59.089  1.00  0.00     0.235 C 
BRANCH  17  21
HETATM   21  C   UNL     1       8.156  30.810  62.491  1.00  0.00     0.221 C 
HETATM   22  N   UNL     1       8.951  29.733  62.712  1.00  0.00    -0.370 N 
HETATM   23  H   UNL     1       9.831  29.562  62.240  1.00  0.00     0.159 HD
HETATM   24  H   UNL     1       8.638  29.019  63.362  1.00  0.00     0.159 HD
HETATM   25  O   UNL     1       7.096  30.976  63.091  1.00  0.00    -0.273 OA
ENDBRANCH  17  21
ENDBRANCH  13  14
ENDBRANCH  10  13
BRANCH   1  26
HETATM   26  C   UNL     1       7.168  24.994  54.995  1.00  0.00     0.274 C 
BRANCH  26  27
HETATM   27  C   UNL     1       7.557  23.605  54.540  1.00  0.00    -0.026 A 
HETATM   28  C   UNL     1       7.579  22.547  55.473  1.00  0.00     0.016 A 
HETATM   29  C   UNL     1       7.977  21.256  55.104  1.00  0.00    -0.061 A 
HETATM   30  C   UNL     1       7.973  20.134  56.104  1.00  0.00     0.048 C 
HETATM   31  C   UNL     1       8.304  21.003  53.773  1.00  0.00     0.007 A 
HETATM   32  C   UNL     1       8.236  22.022  52.824  1.00  0.00     0.008 A 
HETATM   33  C   UNL     1       7.851  23.322  53.187  1.00  0.00    -0.054 A 
HETATM   34  C   UNL     1       7.741  24.358  52.097  1.00  0.00     0.049 C 
ENDBRANCH  26  27
ENDBRANCH   1  26
TORSDOF 5
ENDMDL
MODEL 3
REMARK VINA RESULT:      -9.8      1.463      2.014
REMARK  5 active torsions:
REMARK  status: ('A' for Active; 'I' for Inactive)
REMARK    1  A    between atoms: C_4  and  C_5 
REMARK    2  A    between atoms: C_5  and  N_6 
REMARK    3  A    between atoms: C_15  and  C_16 
REMARK    4  A    between atoms: C_16  and  N_17 
REMARK    5  A    between atoms: C_20  and  C_21 
REMARK       I    between atoms: C_21  and  N_22 
ROOT
HETATM    1  N   UNL     1       7.687  26.395  55.243  1.00  0.00    -0.061 N 
HETATM    2  H   UNL     1       8.575  25.962  54.968  1.00  0.00     0.280 HD
HETATM    3  C   UNL     1       7.550  27.596  54.331  1.00  0.00     0.276 C 
HETATM    4  C   UNL     1       6.236  28.318  54.411  1.00  0.00     0.002 A 
HETATM    5  C   UNL     1       5.851  28.936  55.600  1.00  0.00     0.076 A 
HETATM    6  O   UNL     1       6.663  28.913  56.700  1.00  0.00    -0.349 OA
HETATM    7  C   UNL     1       6.729  27.606  57.283  1.00  0.00     0.203 C 
HETATM    8  C   UNL     1       7.888  26.787  56.701  1.00  0.00     0.262 C 
HETATM    9  C   UNL     1       5.388  28.420  53.291  1.00  0.00     0.020 A 
HETATM   10  C   UNL     1       4.173  29.131  53.357  1.00  0.00    -0.032 A 
HETATM   11  C   UNL     1       3.820  29.739  54.572  1.00  0.00     0.011 A 
HETATM   12  C   UNL     1       4.665  29.659  55.680  1.00  0.00     0.038 A 
ENDROOT
BRANCH  10  13
HETATM   13  C   UNL     1       3.250  29.179  52.159  1.00  0.00     0.273 C 
BRANCH  13  14
HETATM   14  N   UNL     1       3.914  29.031  50.812  1.00  0.00    -0.066 N 
HETATM   15  H   UNL     1       4.627  28.282  50.915  1.00  0.00     0.280 HD
HETATM   16  C   UNL     1       2.988  28.536  49.718  1.00  0.00     0.249 C 
HETATM   17  C   UNL     1       3.779  28.254  48.436  1.00  0.00     0.103 C 
HETATM   18  C   UNL     1       4.570  29.491  48.001  1.00  0.00     0.017 C 
HETATM   19  C   UNL     1       5.435  30.050  49.131  1.00  0.00     0.029 C 
HETATM   20  C   UNL     1       4.644  30.289  50.410  1.00  0.00     0.235 C 
BRANCH  17  21
HETATM   21  C   UNL     1       4.710  27.079  48.676  1.00  0.00     0.221 C 
HETATM   22  N   UNL     1       5.538  26.747  47.654  1.00  0.00    -0.370 N 
HETATM   23  H   UNL     1       5.529  27.186  46.741  1.00  0.00     0.159 HD
HETATM   24  H   UNL     1       6.189  25.978  47.781  1.00  0.00     0.159 HD
HETATM   25  O   UNL     1       4.760  26.518  49.768  1.00  0.00    -0.273 OA
ENDBRANCH  17  21
ENDBRANCH  13  14
ENDBRANCH  10  13
BRANCH   1  26
HETATM   26  C   UNL     1       6.645  25.305  55.058  1.00  0.00     0.274 C 
BRANCH  26  27
HETATM   27  C   UNL     1       7.177  23.970  54.586  1.00  0.00    -0.026 A 
HETATM   28  C   UNL     1       7.301  22.905  55.504  1.00  0.00     0.016 A 
HETATM   29  C   UNL     1       7.830  21.667  55.119  1.00  0.00    -0.061 A 
HETATM   30  C   UNL     1       7.933  20.535  56.103  1.00  0.00     0.048 C 
HETATM   31  C   UNL     1       8.190  21.469  53.787  1.00  0.00     0.007 A 
HETATM   32  C   UNL     1       8.026  22.490  52.853  1.00  0.00     0.008 A 
HETATM   33  C   UNL     1       7.508  23.739  53.231  1.00  0.00    -0.054 A 
HETATM   34  C   UNL     1       7.301  24.774  52.155  1.00  0.00     0.049 C 
ENDBRANCH  26  27
ENDBRANCH   1  26
TORSDOF 5
ENDMDL
MODEL 4
REMARK VINA RESULT:      -9.5      2.994      6.764
REMARK  5 active torsions:
REMARK  status: ('A' for Active; 'I' for Inactive)
REMARK    1  A    between atoms: C_4  and  C_5 
REMARK    2  A    between atoms: C_5  and  N_6 
REMARK    3  A    between atoms: C_15  and  C_16 
REMARK    4  A    between atoms: C_16  and  N_17 
REMARK    5  A    between atoms: C_20  and  C_21 
REMARK       I    between atoms: C_21  and  N_22 
ROOT
HETATM    1  N   UNL     1       5.524  25.068  52.526  1.00  0.00    -0.061 N 
HETATM    2  H   UNL     1       5.308  24.065  52.503  1.00  0.00     0.280 HD
HETATM    3  C   UNL     1       4.627  25.626  53.611  1.00  0.00     0.276 C 
HETATM    4  C   UNL     1       4.870  27.063  53.971  1.00  0.00     0.002 A 
HETATM    5  C   UNL     1       4.667  28.064  53.020  1.00  0.00     0.076 A 
HETATM    6  O   UNL     1       4.229  27.760  51.762  1.00  0.00    -0.349 OA
HETATM    7  C   UNL     1       5.241  27.097  50.994  1.00  0.00     0.203 C 
HETATM    8  C   UNL     1       5.150  25.573  51.139  1.00  0.00     0.262 C 
HETATM    9  C   UNL     1       5.267  27.436  55.269  1.00  0.00     0.020 A 
HETATM   10  C   UNL     1       5.458  28.788  55.616  1.00  0.00    -0.032 A 
HETATM   11  C   UNL     1       5.244  29.767  54.632  1.00  0.00     0.011 A 
HETATM   12  C   UNL     1       4.831  29.406  53.348  1.00  0.00     0.038 A 
ENDROOT
BRANCH  10  13
HETATM   13  C   UNL     1       5.941  29.161  57.000  1.00  0.00     0.273 C 
BRANCH  13  14
HETATM   14  N   UNL     1       7.386  29.587  57.100  1.00  0.00    -0.066 N 
HETATM   15  H   UNL     1       7.390  30.625  57.081  1.00  0.00     0.280 HD
HETATM   16  C   UNL     1       8.048  29.221  58.414  1.00  0.00     0.249 C 
HETATM   17  C   UNL     1       9.449  29.836  58.494  1.00  0.00     0.103 C 
HETATM   18  C   UNL     1      10.298  29.418  57.290  1.00  0.00     0.017 C 
HETATM   19  C   UNL     1       9.593  29.699  55.963  1.00  0.00     0.029 C 
HETATM   20  C   UNL     1       8.187  29.115  55.911  1.00  0.00     0.235 C 
BRANCH  17  21
HETATM   21  C   UNL     1       9.324  31.347  58.564  1.00  0.00     0.221 C 
HETATM   22  N   UNL     1       8.199  31.834  59.144  1.00  0.00    -0.370 N 
HETATM   23  H   UNL     1       7.427  31.264  59.470  1.00  0.00     0.159 HD
HETATM   24  H   UNL     1       8.086  32.840  59.227  1.00  0.00     0.159 HD
HETATM   25  O   UNL     1      10.236  32.080  58.186  1.00  0.00    -0.273 OA
ENDBRANCH  17  21
ENDBRANCH  13  14
ENDBRANCH  10  13
BRANCH   1  26
HETATM   26  C   UNL     1       7.016  25.141  52.804  1.00  0.00     0.274 C 
BRANCH  26  27
HETATM   27  C   UNL     1       7.593  23.975  53.575  1.00  0.00    -0.026 A 
HETATM   28  C   UNL     1       7.801  22.741  52.922  1.00  0.00     0.016 A 
HETATM   29  C   UNL     1       8.290  21.624  53.610  1.00  0.00    -0.061 A 
HETATM   30  C   UNL     1       8.530  20.324  52.895  1.00  0.00     0.048 C 
HETATM   31  C   UNL     1       8.629  21.752  54.956  1.00  0.00     0.007 A 
HETATM   32  C   UNL     1       8.482  22.977  55.606  1.00  0.00     0.008 A 
HETATM   33  C   UNL     1       7.980  24.099  54.929  1.00  0.00    -0.054 A 
HETATM   34  C   UNL     1       7.906  25.404  55.680  1.00  0.00     0.049 C 
ENDBRANCH  26  27
ENDBRANCH   1  26
TORSDOF 5
ENDMDL
MODEL 5
REMARK VINA RESULT:      -9.1      7.072     10.680
REMARK  5 active torsions:
REMARK  status: ('A' for Active; 'I' for Inactive)
REMARK    1  A    between atoms: C_4  and  C_5 
REMARK    2  A    between atoms: C_5  and  N_6 
REMARK    3  A    between atoms: C_15  and  C_16 
REMARK    4  A    between atoms: C_16  and  N_17 
REMARK    5  A    between atoms: C_20  and  C_21 
REMARK       I    between atoms: C_21  and  N_22 
ROOT
HETATM    1  N   UNL     1       8.119  29.514  57.116  1.00  0.00    -0.061 N 
HETATM    2  H   UNL     1       7.559  29.315  56.280  1.00  0.00     0.280 HD
HETATM    3  C   UNL     1       7.509  30.773  57.694  1.00  0.00     0.276 C 
HETATM    4  C   UNL     1       8.042  31.191  59.034  1.00  0.00     0.002 A 
HETATM    5  C   UNL     1       9.383  31.549  59.170  1.00  0.00     0.076 A 
HETATM    6  O   UNL     1      10.225  31.545  58.093  1.00  0.00    -0.349 OA
HETATM    7  C   UNL     1      10.521  30.213  57.656  1.00  0.00     0.203 C 
HETATM    8  C   UNL     1       9.530  29.737  56.586  1.00  0.00     0.262 C 
HETATM    9  C   UNL     1       7.204  31.267  60.163  1.00  0.00     0.020 A 
HETATM   10  C   UNL     1       7.698  31.696  61.412  1.00  0.00    -0.032 A 
HETATM   11  C   UNL     1       9.053  32.047  61.509  1.00  0.00     0.011 A 
HETATM   12  C   UNL     1       9.885  31.994  60.389  1.00  0.00     0.038 A 
ENDROOT
BRANCH  10  13
HETATM   13  C   UNL     1       6.794  31.715  62.625  1.00  0.00     0.273 C 
BRANCH  13  14
HETATM   14  N   UNL     1       6.100  33.025  62.907  1.00  0.00    -0.066 N 
HETATM   15  H   UNL     1       5.127  32.791  63.184  1.00  0.00     0.280 HD
HETATM   16  C   UNL     1       6.669  33.783  64.091  1.00  0.00     0.249 C 
HETATM   17  C   UNL     1       5.803  35.007  64.407  1.00  0.00     0.103 C 
HETATM   18  C   UNL     1       5.653  35.902  63.173  1.00  0.00     0.017 C 
HETATM   19  C   UNL     1       5.170  35.122  61.950  1.00  0.00     0.029 C 
HETATM   20  C   UNL     1       6.016  33.887  61.671  1.00  0.00     0.235 C 
BRANCH  17  21
HETATM   21  C   UNL     1       4.444  34.540  64.899  1.00  0.00     0.221 C 
HETATM   22  N   UNL     1       3.523  35.507  65.136  1.00  0.00    -0.370 N 
HETATM   23  H   UNL     1       3.702  36.502  65.066  1.00  0.00     0.159 HD
HETATM   24  H   UNL     1       2.596  35.234  65.448  1.00  0.00     0.159 HD
HETATM   25  O   UNL     1       4.178  33.344  64.996  1.00  0.00    -0.273 OA
ENDBRANCH  17  21
ENDBRANCH  13  14
ENDBRANCH  10  13
BRANCH   1  26
HETATM   26  C   UNL     1       7.997  28.268  57.977  1.00  0.00     0.274 C 
BRANCH  26  27
HETATM   27  C   UNL     1       7.477  27.037  57.269  1.00  0.00    -0.026 A 
HETATM   28  C   UNL     1       8.317  25.913  57.117  1.00  0.00     0.016 A 
HETATM   29  C   UNL     1       7.891  24.770  56.429  1.00  0.00    -0.061 A 
HETATM   30  C   UNL     1       8.789  23.572  56.297  1.00  0.00     0.048 C 
HETATM   31  C   UNL     1       6.589  24.724  55.933  1.00  0.00     0.007 A 
HETATM   32  C   UNL     1       5.726  25.802  56.119  1.00  0.00     0.008 A 
HETATM   33  C   UNL     1       6.147  26.958  56.796  1.00  0.00    -0.054 A 
HETATM   34  C   UNL     1       5.140  28.058  57.013  1.00  0.00     0.049 C 
ENDBRANCH  26  27
ENDBRANCH   1  26
TORSDOF 5
ENDMDL
MODEL 6
REMARK VINA RESULT:      -9.0      3.166      7.664
REMARK  5 active torsions:
REMARK  status: ('A' for Active; 'I' for Inactive)
REMARK    1  A    between atoms: C_4  and  C_5 
REMARK    2  A    between atoms: C_5  and  N_6 
REMARK    3  A    between atoms: C_15  and  C_16 
REMARK    4  A    between atoms: C_16  and  N_17 
REMARK    5  A    between atoms: C_20  and  C_21 
REMARK       I    between atoms: C_21  and  N_22 
ROOT
HETATM    1  N   UNL     1       6.262  29.005  54.358  1.00  0.00    -0.061 N 
HETATM    2  H   UNL     1       6.754  29.904  54.403  1.00  0.00     0.280 HD
HETATM    3  C   UNL     1       6.860  28.301  53.158  1.00  0.00     0.276 C 
HETATM    4  C   UNL     1       6.431  26.876  52.967  1.00  0.00     0.002 A 
HETATM    5  C   UNL     1       5.091  26.579  52.715  1.00  0.00     0.076 A 
HETATM    6  O   UNL     1       4.157  27.571  52.619  1.00  0.00    -0.349 OA
HETATM    7  C   UNL     1       3.888  28.173  53.892  1.00  0.00     0.203 C 
HETATM    8  C   UNL     1       4.800  29.378  54.149  1.00  0.00     0.262 C 
HETATM    9  C   UNL     1       7.362  25.820  53.000  1.00  0.00     0.020 A 
HETATM   10  C   UNL     1       6.963  24.486  52.784  1.00  0.00    -0.032 A 
HETATM   11  C   UNL     1       5.606  24.227  52.534  1.00  0.00     0.011 A 
HETATM   12  C   UNL     1       4.680  25.270  52.479  1.00  0.00     0.038 A 
ENDROOT
BRANCH  10  13
HETATM   13  C   UNL     1       7.970  23.361  52.881  1.00  0.00     0.273 C 
BRANCH  13  14
HETATM   14  N   UNL     1       8.321  22.913  54.280  1.00  0.00    -0.066 N 
HETATM   15  H   UNL     1       9.004  23.603  54.648  1.00  0.00     0.280 HD
HETATM   16  C   UNL     1       7.159  22.960  55.253  1.00  0.00     0.249 C 
HETATM   17  C   UNL     1       7.642  22.655  56.675  1.00  0.00     0.103 C 
HETATM   18  C   UNL     1       8.376  21.312  56.725  1.00  0.00     0.017 C 
HETATM   19  C   UNL     1       9.489  21.224  55.680  1.00  0.00     0.029 C 
HETATM   20  C   UNL     1       9.003  21.567  54.277  1.00  0.00     0.235 C 
BRANCH  17  21
HETATM   21  C   UNL     1       8.548  23.780  57.143  1.00  0.00     0.221 C 
HETATM   22  N   UNL     1       8.953  23.730  58.437  1.00  0.00    -0.370 N 
HETATM   23  H   UNL     1       8.644  23.037  59.110  1.00  0.00     0.159 HD
HETATM   24  H   UNL     1       9.575  24.453  58.784  1.00  0.00     0.159 HD
HETATM   25  O   UNL     1       8.953  24.640  56.364  1.00  0.00    -0.273 OA
ENDBRANCH  17  21
ENDBRANCH  13  14
ENDBRANCH  10  13
BRANCH   1  26
HETATM   26  C   UNL     1       6.522  28.349  55.703  1.00  0.00     0.274 C 
BRANCH  26  27
HETATM   27  C   UNL     1       7.425  29.120  56.640  1.00  0.00    -0.026 A 
HETATM   28  C   UNL     1       8.824  29.073  56.457  1.00  0.00     0.016 A 
HETATM   29  C   UNL     1       9.697  29.735  57.328  1.00  0.00    -0.061 A 
HETATM   30  C   UNL     1      11.183  29.696  57.105  1.00  0.00     0.048 C 
HETATM   31  C   UNL     1       9.168  30.501  58.365  1.00  0.00     0.007 A 
HETATM   32  C   UNL     1       7.788  30.605  58.531  1.00  0.00     0.008 A 
HETATM   33  C   UNL     1       6.904  29.934  57.671  1.00  0.00    -0.054 A 
HETATM   34  C   UNL     1       5.425  30.142  57.874  1.00  0.00     0.049 C 
ENDBRANCH  26  27
ENDBRANCH   1  26
TORSDOF 5
ENDMDL
MODEL 7
REMARK VINA RESULT:      -9.0      3.183      5.617
REMARK  5 active torsions:
REMARK  status: ('A' for Active; 'I' for Inactive)
REMARK    1  A    between atoms: C_4  and  C_5 
REMARK    2  A    between atoms: C_5  and  N_6 
REMARK    3  A    between atoms: C_15  and  C_16 
REMARK    4  A    between atoms: C_16  and  N_17 
REMARK    5  A    between atoms: C_20  and  C_21 
REMARK       I    between atoms: C_21  and  N_22 
ROOT
HETATM    1  N   UNL     1       6.990  27.491  57.574  1.00  0.00    -0.061 N 
HETATM    2  H   UNL     1       6.957  27.849  58.535  1.00  0.00     0.280 HD
HETATM    3  C   UNL     1       5.540  27.426  57.141  1.00  0.00     0.276 C 
HETATM    4  C   UNL     1       5.313  27.092  55.695  1.00  0.00     0.002 A 
HETATM    5  C   UNL     1       5.718  25.855  55.194  1.00  0.00     0.076 A 
HETATM    6  O   UNL     1       6.305  24.925  56.006  1.00  0.00    -0.349 OA
HETATM    7  C   UNL     1       7.629  25.315  56.390  1.00  0.00     0.203 C 
HETATM    8  C   UNL     1       7.625  26.113  57.700  1.00  0.00     0.262 C 
HETATM    9  C   UNL     1       4.663  27.992  54.829  1.00  0.00     0.020 A 
HETATM   10  C   UNL     1       4.417  27.661  53.482  1.00  0.00    -0.032 A 
HETATM   11  C   UNL     1       4.840  26.407  53.014  1.00  0.00     0.011 A 
HETATM   12  C   UNL     1       5.467  25.502  53.872  1.00  0.00     0.038 A 
ENDROOT
BRANCH  10  13
HETATM   13  C   UNL     1       3.769  28.665  52.554  1.00  0.00     0.273 C 
BRANCH  13  14
HETATM   14  N   UNL     1       4.325  28.719  51.152  1.00  0.00    -0.066 N 
HETATM   15  H   UNL     1       4.926  27.879  51.040  1.00  0.00     0.280 HD
HETATM   16  C   UNL     1       3.275  28.592  50.066  1.00  0.00     0.249 C 
HETATM   17  C   UNL     1       3.940  28.485  48.690  1.00  0.00     0.103 C 
HETATM   18  C   UNL     1       4.876  29.672  48.444  1.00  0.00     0.017 C 
HETATM   19  C   UNL     1       5.877  29.863  49.584  1.00  0.00     0.029 C 
HETATM   20  C   UNL     1       5.205  29.928  50.949  1.00  0.00     0.235 C 
BRANCH  17  21
HETATM   21  C   UNL     1       4.703  27.175  48.607  1.00  0.00     0.221 C 
HETATM   22  N   UNL     1       5.511  27.014  47.530  1.00  0.00    -0.370 N 
HETATM   23  H   UNL     1       5.587  27.673  46.764  1.00  0.00     0.159 HD
HETATM   24  H   UNL     1       6.053  26.159  47.447  1.00  0.00     0.159 HD
HETATM   25  O   UNL     1       4.646  26.346  49.513  1.00  0.00    -0.273 OA
ENDBRANCH  17  21
ENDBRANCH  13  14
ENDBRANCH  10  13
BRANCH   1  26
HETATM   26  C   UNL     1       7.859  28.480  56.817  1.00  0.00     0.274 C 
BRANCH  26  27
HETATM   27  C   UNL     1       8.403  29.629  57.636  1.00  0.00    -0.026 A 
HETATM   28  C   UNL     1       7.601  30.210  58.642  1.00  0.00     0.016 A 
HETATM   29  C   UNL     1       8.048  31.304  59.392  1.00  0.00    -0.061 A 
HETATM   30  C   UNL     1       7.192  31.896  60.477  1.00  0.00     0.048 C 
HETATM   31  C   UNL     1       9.336  31.793  59.176  1.00  0.00     0.007 A 
HETATM   32  C   UNL     1      10.164  31.199  58.225  1.00  0.00     0.008 A 
HETATM   33  C   UNL     1       9.720  30.110  57.458  1.00  0.00    -0.054 A 
HETATM   34  C   UNL     1      10.692  29.482  56.493  1.00  0.00     0.049 C 
ENDBRANCH  26  27
ENDBRANCH   1  26
TORSDOF 5
ENDMDL
MODEL 8
REMARK VINA RESULT:      -8.9      2.781      5.679
REMARK  5 active torsions:
REMARK  status: ('A' for Active; 'I' for Inactive)
REMARK    1  A    between atoms: C_4  and  C_5 
REMARK    2  A    between atoms: C_5  and  N_6 
REMARK    3  A    between atoms: C_15  and  C_16 
REMARK    4  A    between atoms: C_16  and  N_17 
REMARK    5  A    between atoms: C_20  and  C_21 
REMARK       I    between atoms: C_21  and  N_22 
ROOT
HETATM    1  N   UNL     1       6.551  26.625  57.202  1.00  0.00    -0.061 N 
HETATM    2  H   UNL     1       6.044  27.072  57.974  1.00  0.00     0.280 HD
HETATM    3  C   UNL     1       5.544  25.682  56.579  1.00  0.00     0.276 C 
HETATM    4  C   UNL     1       5.984  25.020  55.305  1.00  0.00     0.002 A 
HETATM    5  C   UNL     1       7.078  24.154  55.312  1.00  0.00     0.076 A 
HETATM    6  O   UNL     1       7.751  23.880  56.469  1.00  0.00    -0.349 OA
HETATM    7  C   UNL     1       8.513  25.007  56.920  1.00  0.00     0.203 C 
HETATM    8  C   UNL     1       7.701  25.889  57.877  1.00  0.00     0.262 C 
HETATM    9  C   UNL     1       5.291  25.223  54.096  1.00  0.00     0.020 A 
HETATM   10  C   UNL     1       5.683  24.572  52.910  1.00  0.00    -0.032 A 
HETATM   11  C   UNL     1       6.789  23.708  52.957  1.00  0.00     0.011 A 
HETATM   12  C   UNL     1       7.468  23.485  54.156  1.00  0.00     0.038 A 
ENDROOT
BRANCH  10  13
HETATM   13  C   UNL     1       4.960  24.850  51.611  1.00  0.00     0.273 C 
BRANCH  13  14
HETATM   14  N   UNL     1       4.779  26.307  51.259  1.00  0.00    -0.066 N 
HETATM   15  H   UNL     1       3.892  26.610  51.705  1.00  0.00     0.280 HD
HETATM   16  C   UNL     1       5.839  27.220  51.844  1.00  0.00     0.249 C 
HETATM   17  C   UNL     1       5.484  28.687  51.581  1.00  0.00     0.103 C 
HETATM   18  C   UNL     1       5.276  28.938  50.085  1.00  0.00     0.017 C 
HETATM   19  C   UNL     1       4.277  27.957  49.469  1.00  0.00     0.029 C 
HETATM   20  C   UNL     1       4.621  26.504  49.771  1.00  0.00     0.235 C 
BRANCH  17  21
HETATM   21  C   UNL     1       4.232  29.042  52.364  1.00  0.00     0.221 C 
HETATM   22  N   UNL     1       3.717  30.279  52.150  1.00  0.00    -0.370 N 
HETATM   23  H   UNL     1       4.143  30.985  51.561  1.00  0.00     0.159 HD
HETATM   24  H   UNL     1       2.870  30.549  52.640  1.00  0.00     0.159 HD
HETATM   25  O   UNL     1       3.677  28.218  53.088  1.00  0.00    -0.273 OA
ENDBRANCH  17  21
ENDBRANCH  13  14
ENDBRANCH  10  13
BRANCH   1  26
HETATM   26  C   UNL     1       7.014  27.772  56.320  1.00  0.00     0.274 C 
BRANCH  26  27
HETATM   27  C   UNL     1       7.781  28.867  57.026  1.00  0.00    -0.026 A 
HETATM   28  C   UNL     1       9.185  28.931  56.896  1.00  0.00     0.016 A 
HETATM   29  C   UNL     1       9.938  29.900  57.568  1.00  0.00    -0.061 A 
HETATM   30  C   UNL     1      11.430  29.970  57.400  1.00  0.00     0.048 C 
HETATM   31  C   UNL     1       9.278  30.857  58.338  1.00  0.00     0.007 A 
HETATM   32  C   UNL     1       7.888  30.845  58.437  1.00  0.00     0.008 A 
HETATM   33  C   UNL     1       7.124  29.869  57.777  1.00  0.00    -0.054 A 
HETATM   34  C   UNL     1       5.623  29.956  57.880  1.00  0.00     0.049 C 
ENDBRANCH  26  27
ENDBRANCH   1  26
TORSDOF 5
ENDMDL
MODEL 9
REMARK VINA RESULT:      -8.9      3.936      8.275
REMARK  5 active torsions:
REMARK  status: ('A' for Active; 'I' for Inactive)
REMARK    1  A    between atoms: C_4  and  C_5 
REMARK    2  A    between atoms: C_5  and  N_6 
REMARK    3  A    between atoms: C_15  and  C_16 
REMARK    4  A    between atoms: C_16  and  N_17 
REMARK    5  A    between atoms: C_20  and  C_21 
REMARK       I    between atoms: C_21  and  N_22 
ROOT
HETATM    1  N   UNL     1       6.119  29.932  55.752  1.00  0.00    -0.061 N 
HETATM    2  H   UNL     1       6.582  30.847  55.773  1.00  0.00     0.280 HD
HETATM    3  C   UNL     1       7.116  29.016  55.074  1.00  0.00     0.276 C 
HETATM    4  C   UNL     1       6.751  27.559  55.067  1.00  0.00     0.002 A 
HETATM    5  C   UNL     1       5.608  27.130  54.394  1.00  0.00     0.076 A 
HETATM    6  O   UNL     1       4.816  28.014  53.718  1.00  0.00    -0.349 OA
HETATM    7  C   UNL     1       4.090  28.868  54.612  1.00  0.00     0.203 C 
HETATM    8  C   UNL     1       4.867  30.156  54.915  1.00  0.00     0.262 C 
HETATM    9  C   UNL     1       7.563  26.599  55.700  1.00  0.00     0.020 A 
HETATM   10  C   UNL     1       7.240  25.228  55.662  1.00  0.00    -0.032 A 
HETATM   11  C   UNL     1       6.081  24.834  54.975  1.00  0.00     0.011 A 
HETATM   12  C   UNL     1       5.282  25.778  54.328  1.00  0.00     0.038 A 
ENDROOT
BRANCH  10  13
HETATM   13  C   UNL     1       8.095  24.220  56.398  1.00  0.00     0.273 C 
BRANCH  13  14
HETATM   14  N   UNL     1       8.161  22.842  55.784  1.00  0.00    -0.066 N 
HETATM   15  H   UNL     1       7.367  22.777  55.118  1.00  0.00     0.280 HD
HETATM   16  C   UNL     1       9.397  22.602  54.939  1.00  0.00     0.249 C 
HETATM   17  C   UNL     1       9.299  21.251  54.223  1.00  0.00     0.103 C 
HETATM   18  C   UNL     1       9.063  20.118  55.226  1.00  0.00     0.017 C 
HETATM   19  C   UNL     1       7.873  20.400  56.145  1.00  0.00     0.029 C 
HETATM   20  C   UNL     1       7.965  21.762  56.820  1.00  0.00     0.235 C 
BRANCH  17  21
HETATM   21  C   UNL     1       8.173  21.309  53.205  1.00  0.00     0.221 C 
HETATM   22  N   UNL     1       7.909  20.162  52.531  1.00  0.00    -0.370 N 
HETATM   23  H   UNL     1       8.445  19.307  52.620  1.00  0.00     0.159 HD
HETATM   24  H   UNL     1       7.152  20.155  51.855  1.00  0.00     0.159 HD
HETATM   25  O   UNL     1       7.492  22.323  53.065  1.00  0.00    -0.273 OA
ENDBRANCH  17  21
ENDBRANCH  13  14
ENDBRANCH  10  13
BRANCH   1  26
HETATM   26  C   UNL     1       5.815  29.613  57.205  1.00  0.00     0.274 C 
BRANCH  26  27
HETATM   27  C   UNL     1       6.239  30.665  58.205  1.00  0.00    -0.026 A 
HETATM   28  C   UNL     1       7.600  30.779  58.563  1.00  0.00     0.016 A 
HETATM   29  C   UNL     1       8.028  31.708  59.518  1.00  0.00    -0.061 A 
HETATM   30  C   UNL     1       9.484  31.835  59.870  1.00  0.00     0.048 C 
HETATM   31  C   UNL     1       7.096  32.575  60.086  1.00  0.00     0.007 A 
HETATM   32  C   UNL     1       5.756  32.515  59.707  1.00  0.00     0.008 A 
HETATM   33  C   UNL     1       5.314  31.579  58.759  1.00  0.00    -0.054 A 
HETATM   34  C   UNL     1       3.862  31.613  58.354  1.00  0.00     0.049 C 
ENDBRANCH  26  27
ENDBRANCH   1  26
TORSDOF 5
ENDMDL
MODEL 10
REMARK VINA RESULT:      -8.4      4.724      8.419
REMARK  5 active torsions:
REMARK  status: ('A' for Active; 'I' for Inactive)
REMARK    1  A    between atoms: C_4  and  C_5 
REMARK    2  A    between atoms: C_5  and  N_6 
REMARK    3  A    between atoms: C_15  and  C_16 
REMARK    4  A    between atoms: C_16  and  N_17 
REMARK    5  A    between atoms: C_20  and  C_21 
REMARK       I    between atoms: C_21  and  N_22 
ROOT
HETATM    1  N   UNL     1       5.021  27.081  54.784  1.00  0.00    -0.061 N 
HETATM    2  H   UNL     1       4.769  26.090  54.866  1.00  0.00     0.280 HD
HETATM    3  C   UNL     1       4.380  27.739  55.988  1.00  0.00     0.276 C 
HETATM    4  C   UNL     1       4.741  29.180  56.202  1.00  0.00     0.002 A 
HETATM    5  C   UNL     1       4.388  30.137  55.251  1.00  0.00     0.076 A 
HETATM    6  O   UNL     1       3.696  29.787  54.126  1.00  0.00    -0.349 OA
HETATM    7  C   UNL     1       4.508  29.036  53.215  1.00  0.00     0.203 C 
HETATM    8  C   UNL     1       4.394  27.527  53.470  1.00  0.00     0.262 C 
HETATM    9  C   UNL     1       5.404  29.603  57.371  1.00  0.00     0.020 A 
HETATM   10  C   UNL     1       5.709  30.962  57.588  1.00  0.00    -0.032 A 
HETATM   11  C   UNL     1       5.337  31.895  56.607  1.00  0.00     0.011 A 
HETATM   12  C   UNL     1       4.661  31.486  55.455  1.00  0.00     0.038 A 
ENDROOT
BRANCH  10  13
HETATM   13  C   UNL     1       6.473  31.386  58.823  1.00  0.00     0.273 C 
BRANCH  13  14
HETATM   14  N   UNL     1       5.637  31.922  59.960  1.00  0.00    -0.066 N 
HETATM   15  H   UNL     1       5.648  31.197  60.703  1.00  0.00     0.280 HD
HETATM   16  C   UNL     1       6.214  33.160  60.619  1.00  0.00     0.249 C 
HETATM   17  C   UNL     1       5.397  33.533  61.861  1.00  0.00     0.103 C 
HETATM   18  C   UNL     1       3.917  33.709  61.508  1.00  0.00     0.017 C 
HETATM   19  C   UNL     1       3.356  32.501  60.758  1.00  0.00     0.029 C 
HETATM   20  C   UNL     1       4.199  32.118  59.549  1.00  0.00     0.235 C 
BRANCH  17  21
HETATM   21  C   UNL     1       5.572  32.452  62.913  1.00  0.00     0.221 C 
HETATM   22  N   UNL     1       4.905  32.631  64.080  1.00  0.00    -0.370 N 
HETATM   23  H   UNL     1       4.359  33.454  64.310  1.00  0.00     0.159 HD
HETATM   24  H   UNL     1       4.981  31.922  64.802  1.00  0.00     0.159 HD
HETATM   25  O   UNL     1       6.221  31.434  62.679  1.00  0.00    -0.273 OA
ENDBRANCH  17  21
ENDBRANCH  13  14
ENDBRANCH  10  13
BRANCH   1  26
HETATM   26  C   UNL     1       6.540  27.099  54.755  1.00  0.00     0.274 C 
BRANCH  26  27
HETATM   27  C   UNL     1       7.212  25.778  55.060  1.00  0.00    -0.026 A 
HETATM   28  C   UNL     1       7.332  24.805  54.045  1.00  0.00     0.016 A 
HETATM   29  C   UNL     1       7.906  23.554  54.296  1.00  0.00    -0.061 A 
HETATM   30  C   UNL     1       8.048  22.537  53.198  1.00  0.00     0.048 C 
HETATM   31  C   UNL     1       8.419  23.287  55.565  1.00  0.00     0.007 A 
HETATM   32  C   UNL     1       8.359  24.254  56.567  1.00  0.00     0.008 A 
HETATM   33  C   UNL     1       7.774  25.507  56.328  1.00  0.00    -0.054 A 
HETATM   34  C   UNL     1       7.801  26.524  57.441  1.00  0.00     0.049 C 
ENDBRANCH  26  27
ENDBRANCH   1  26
TORSDOF 5
ENDMDL
