MODEL 1
REMARK VINA RESULT:     -10.3      0.000      0.000
REMARK  5 active torsions:
REMARK  status: ('A' for Active; 'I' for Inactive)
REMARK    1  A    between atoms: C_2  and  C_3 
REMARK    2  A    between atoms: N_12  and  N_13 
REMARK       I    between atoms: N_13  and  C_14 
REMARK    3  A    between atoms: C_14  and  C_15 
REMARK    4  A    between atoms: C_15  and  N_16 
REMARK       I    between atoms: N_16  and  C_17 
REMARK    5  A    between atoms: C_17  and  C_18 
ROOT
HETATM    1  N   UNL     1       7.556  28.955  56.081  1.00  0.00    -0.255 N 
HETATM    2  C   UNL     1       8.498  28.617  57.033  1.00  0.00     0.254 C 
HETATM    3  O   UNL     1       8.795  27.463  57.334  1.00  0.00    -0.270 OA
HETATM    4  H   UNL     1       7.131  29.885  56.125  1.00  0.00     0.191 HD
ENDROOT
BRANCH   1   5
HETATM    5  N   UNL     1       6.779  27.940  55.553  1.00  0.00    -0.167 N 
HETATM    6  C   UNL     1       5.758  27.334  56.232  1.00  0.00     0.345 A 
HETATM    7  N   UNL     1       5.275  26.313  55.438  1.00  0.00    -0.319 N 
HETATM    8  O   UNL     1       5.321  27.603  57.340  1.00  0.00    -0.245 OA
HETATM    9  C   UNL     1       6.080  26.114  54.243  1.00  0.00     0.141 A 
HETATM   10  H   UNL     1       4.627  25.636  55.820  1.00  0.00     0.166 HD
HETATM   11  C   UNL     1       5.246  26.380  52.982  1.00  0.00     0.055 C 
HETATM   12  C   UNL     1       7.082  27.289  54.382  1.00  0.00     0.279 A 
HETATM   13  O   UNL     1       7.963  27.580  53.581  1.00  0.00    -0.268 OA
BRANCH   9  14
HETATM   14  C   UNL     1       6.701  24.721  54.274  1.00  0.00    -0.021 A 
HETATM   15  C   UNL     1       7.059  24.078  53.071  1.00  0.00     0.010 A 
HETATM   16  C   UNL     1       7.612  22.796  53.069  1.00  0.00     0.001 A 
HETATM   17  C   UNL     1       7.810  22.121  54.268  1.00  0.00     0.000 A 
HETATM   18  C   UNL     1       7.448  22.726  55.467  1.00  0.00     0.001 A 
HETATM   19  C   UNL     1       6.893  24.010  55.471  1.00  0.00     0.010 A 
ENDBRANCH   9  14
ENDBRANCH   1   5
BRANCH   2  20
HETATM   20  C   UNL     1       9.173  29.831  57.674  1.00  0.00     0.227 C 
BRANCH  20  21
HETATM   21  N   UNL     1       8.459  30.324  58.842  1.00  0.00    -0.348 N 
HETATM   22  C   UNL     1       8.782  31.535  59.415  1.00  0.00     0.252 C 
HETATM   23  O   UNL     1       9.576  32.309  58.887  1.00  0.00    -0.268 OA
HETATM   24  H   UNL     1       7.896  29.656  59.351  1.00  0.00     0.163 HD
BRANCH  22  25
HETATM   25  C   UNL     1       8.149  31.868  60.722  1.00  0.00     0.033 A 
HETATM   26  C   UNL     1       6.767  32.095  60.740  1.00  0.00     0.036 A 
HETATM   27  C   UNL     1       6.134  32.428  61.937  1.00  0.00     0.012 A 
HETATM   28 BR   UNL     1       4.270  32.744  61.957  1.00  0.00    -0.051 Br
HETATM   29  C   UNL     1       6.864  32.531  63.120  1.00  0.00     0.019 A 
HETATM   30  C   UNL     1       8.238  32.287  63.109  1.00  0.00     0.002 A 
HETATM   31  C   UNL     1       8.881  31.951  61.914  1.00  0.00     0.017 A 
ENDBRANCH  22  25
ENDBRANCH  20  21
ENDBRANCH   2  20
TORSDOF 5
ENDMDL
MODEL 2
REMARK VINA RESULT:      -9.8      1.758      2.115
REMARK  5 active torsions:
REMARK  status: ('A' for Active; 'I' for Inactive)
REMARK    1  A    between atoms: C_2  and  C_3 
REMARK    2  A    between atoms: N_12  and  N_13 
REMARK       I    between atoms: N_13  and  C_14 
REMARK    3  A    between atoms: C_14  and  C_15 
REMARK    4  A    between atoms: C_15  and  N_16 
REMARK       I    between atoms: N_16  and  C_17 
REMARK    5  A    between atoms: C_17  and  C_18 
ROOT
HETATM    1  N   UNL     1       6.395  28.288  56.162  1.00  0.00    -0.255 N 
HETATM    2  C   UNL     1       5.562  29.371  55.952  1.00  0.00     0.254 C 
HETATM    3  O   UNL     1       4.461  29.303  55.411  1.00  0.00    -0.270 OA
HETATM    4  H   UNL     1       7.395  28.462  56.299  1.00  0.00     0.191 HD
ENDROOT
BRANCH   1   5
HETATM    5  N   UNL     1       6.047  27.084  55.578  1.00  0.00    -0.167 N 
HETATM    6  C   UNL     1       5.296  26.127  56.203  1.00  0.00     0.345 A 
HETATM    7  N   UNL     1       5.232  25.031  55.365  1.00  0.00    -0.319 N 
HETATM    8  O   UNL     1       4.764  26.179  57.300  1.00  0.00    -0.245 OA
HETATM    9  C   UNL     1       6.085  25.179  54.195  1.00  0.00     0.141 A 
HETATM   10  H   UNL     1       4.862  24.153  55.704  1.00  0.00     0.166 HD
HETATM   11  C   UNL     1       5.243  25.176  52.912  1.00  0.00     0.055 C 
HETATM   12  C   UNL     1       6.593  26.629  54.403  1.00  0.00     0.279 A 
HETATM   13  O   UNL     1       7.331  27.247  53.644  1.00  0.00    -0.268 OA
BRANCH   9  14
HETATM   14  C   UNL     1       7.164  24.101  54.212  1.00  0.00    -0.021 A 
HETATM   15  C   UNL     1       7.307  23.225  53.118  1.00  0.00     0.010 A 
HETATM   16  C   UNL     1       8.273  22.217  53.115  1.00  0.00     0.001 A 
HETATM   17  C   UNL     1       9.113  22.055  54.211  1.00  0.00     0.000 A 
HETATM   18  C   UNL     1       8.980  22.895  55.312  1.00  0.00     0.001 A 
HETATM   19  C   UNL     1       8.012  23.904  55.317  1.00  0.00     0.010 A 
ENDBRANCH   9  14
ENDBRANCH   1   5
BRANCH   2  20
HETATM   20  C   UNL     1       6.132  30.685  56.490  1.00  0.00     0.227 C 
BRANCH  20  21
HETATM   21  N   UNL     1       6.700  30.552  57.823  1.00  0.00    -0.348 N 
HETATM   22  C   UNL     1       6.727  31.618  58.695  1.00  0.00     0.252 C 
HETATM   23  O   UNL     1       6.149  32.673  58.445  1.00  0.00    -0.268 OA
HETATM   24  H   UNL     1       7.277  29.740  57.996  1.00  0.00     0.163 HD
BRANCH  22  25
HETATM   25  C   UNL     1       7.507  31.457  59.953  1.00  0.00     0.033 A 
HETATM   26  C   UNL     1       7.118  32.215  61.066  1.00  0.00     0.036 A 
HETATM   27  C   UNL     1       7.830  32.111  62.260  1.00  0.00     0.012 A 
HETATM   28 BR   UNL     1       7.309  33.142  63.757  1.00  0.00    -0.051 Br
HETATM   29  C   UNL     1       8.925  31.255  62.360  1.00  0.00     0.019 A 
HETATM   30  C   UNL     1       9.304  30.485  61.260  1.00  0.00     0.002 A 
HETATM   31  C   UNL     1       8.595  30.580  60.059  1.00  0.00     0.017 A 
ENDBRANCH  22  25
ENDBRANCH  20  21
ENDBRANCH   2  20
TORSDOF 5
ENDMDL
MODEL 3
REMARK VINA RESULT:      -9.5      1.295      2.026
REMARK  5 active torsions:
REMARK  status: ('A' for Active; 'I' for Inactive)
REMARK    1  A    between atoms: C_2  and  C_3 
REMARK    2  A    between atoms: N_12  and  N_13 
REMARK       I    between atoms: N_13  and  C_14 
REMARK    3  A    between atoms: C_14  and  C_15 
REMARK    4  A    between atoms: C_15  and  N_16 
REMARK       I    between atoms: N_16  and  C_17 
REMARK    5  A    between atoms: C_17  and  C_18 
ROOT
HETATM    1  N   UNL     1       7.012  28.357  56.301  1.00  0.00    -0.255 N 
HETATM    2  C   UNL     1       7.901  28.030  57.307  1.00  0.00     0.254 C 
HETATM    3  O   UNL     1       8.305  26.891  57.531  1.00  0.00    -0.270 OA
HETATM    4  H   UNL     1       6.478  29.227  56.387  1.00  0.00     0.191 HD
ENDROOT
BRANCH   1   5
HETATM    5  N   UNL     1       6.409  27.322  55.610  1.00  0.00    -0.167 N 
HETATM    6  C   UNL     1       5.370  26.584  56.104  1.00  0.00     0.345 A 
HETATM    7  N   UNL     1       5.092  25.586  55.190  1.00  0.00    -0.319 N 
HETATM    8  O   UNL     1       4.767  26.734  57.155  1.00  0.00    -0.245 OA
HETATM    9  C   UNL     1       6.063  25.544  54.107  1.00  0.00     0.141 A 
HETATM   10  H   UNL     1       4.467  24.831  55.437  1.00  0.00     0.166 HD
HETATM   11  C   UNL     1       5.381  25.830  52.763  1.00  0.00     0.055 C 
HETATM   12  C   UNL     1       6.923  26.786  54.455  1.00  0.00     0.279 A 
HETATM   13  O   UNL     1       7.871  27.208  53.802  1.00  0.00    -0.268 OA
BRANCH   9  14
HETATM   14  C   UNL     1       6.803  24.210  54.138  1.00  0.00    -0.021 A 
HETATM   15  C   UNL     1       7.125  23.608  55.371  1.00  0.00     0.010 A 
HETATM   16  C   UNL     1       7.818  22.397  55.429  1.00  0.00     0.001 A 
HETATM   17  C   UNL     1       8.215  21.765  54.256  1.00  0.00     0.000 A 
HETATM   18  C   UNL     1       7.925  22.348  53.027  1.00  0.00     0.001 A 
HETATM   19  C   UNL     1       7.232  23.561  52.967  1.00  0.00     0.010 A 
ENDBRANCH   9  14
ENDBRANCH   1   5
BRANCH   2  20
HETATM   20  C   UNL     1       8.368  29.240  58.118  1.00  0.00     0.227 C 
BRANCH  20  21
HETATM   21  N   UNL     1       7.268  30.079  58.569  1.00  0.00    -0.348 N 
HETATM   22  C   UNL     1       7.484  31.377  58.978  1.00  0.00     0.252 C 
HETATM   23  O   UNL     1       8.576  31.924  58.843  1.00  0.00    -0.268 OA
HETATM   24  H   UNL     1       6.401  29.613  58.796  1.00  0.00     0.163 HD
BRANCH  22  25
HETATM   25  C   UNL     1       6.346  32.094  59.616  1.00  0.00     0.033 A 
HETATM   26  C   UNL     1       6.602  32.815  60.790  1.00  0.00     0.036 A 
HETATM   27  C   UNL     1       5.564  33.487  61.434  1.00  0.00     0.012 A 
HETATM   28 BR   UNL     1       5.911  34.450  63.023  1.00  0.00    -0.051 Br
HETATM   29  C   UNL     1       4.271  33.454  60.915  1.00  0.00     0.019 A 
HETATM   30  C   UNL     1       4.014  32.754  59.736  1.00  0.00     0.002 A 
HETATM   31  C   UNL     1       5.050  32.078  59.083  1.00  0.00     0.017 A 
ENDBRANCH  22  25
ENDBRANCH  20  21
ENDBRANCH   2  20
TORSDOF 5
ENDMDL
MODEL 4
REMARK VINA RESULT:      -9.2      1.802      2.033
REMARK  5 active torsions:
REMARK  status: ('A' for Active; 'I' for Inactive)
REMARK    1  A    between atoms: C_2  and  C_3 
REMARK    2  A    between atoms: N_12  and  N_13 
REMARK       I    between atoms: N_13  and  C_14 
REMARK    3  A    between atoms: C_14  and  C_15 
REMARK    4  A    between atoms: C_15  and  N_16 
REMARK       I    between atoms: N_16  and  C_17 
REMARK    5  A    between atoms: C_17  and  C_18 
ROOT
HETATM    1  N   UNL     1       6.220  29.833  55.699  1.00  0.00    -0.255 N 
HETATM    2  C   UNL     1       6.439  29.893  57.062  1.00  0.00     0.254 C 
HETATM    3  O   UNL     1       6.690  28.917  57.766  1.00  0.00    -0.270 OA
HETATM    4  H   UNL     1       5.701  30.597  55.255  1.00  0.00     0.191 HD
ENDROOT
BRANCH   1   5
HETATM    5  N   UNL     1       6.108  28.584  55.116  1.00  0.00    -0.167 N 
HETATM    6  C   UNL     1       5.002  27.789  55.232  1.00  0.00     0.345 A 
HETATM    7  N   UNL     1       5.282  26.588  54.609  1.00  0.00    -0.319 N 
HETATM    8  O   UNL     1       3.941  28.043  55.780  1.00  0.00    -0.245 OA
HETATM    9  C   UNL     1       6.670  26.498  54.182  1.00  0.00     0.141 A 
HETATM   10  H   UNL     1       4.658  25.801  54.722  1.00  0.00     0.166 HD
HETATM   11  C   UNL     1       6.755  26.366  52.656  1.00  0.00     0.055 C 
HETATM   12  C   UNL     1       7.167  27.921  54.545  1.00  0.00     0.279 A 
HETATM   13  O   UNL     1       8.292  28.363  54.339  1.00  0.00    -0.268 OA
BRANCH   9  14
HETATM   14  C   UNL     1       7.358  25.358  54.926  1.00  0.00    -0.021 A 
HETATM   15  C   UNL     1       7.667  24.158  54.255  1.00  0.00     0.010 A 
HETATM   16  C   UNL     1       8.279  23.091  54.916  1.00  0.00     0.001 A 
HETATM   17  C   UNL     1       8.587  23.195  56.268  1.00  0.00     0.000 A 
HETATM   18  C   UNL     1       8.276  24.362  56.958  1.00  0.00     0.001 A 
HETATM   19  C   UNL     1       7.662  25.431  56.297  1.00  0.00     0.010 A 
ENDBRANCH   9  14
ENDBRANCH   1   5
BRANCH   2  20
HETATM   20  C   UNL     1       6.368  31.313  57.624  1.00  0.00     0.227 C 
BRANCH  20  21
HETATM   21  N   UNL     1       6.725  31.383  59.033  1.00  0.00    -0.348 N 
HETATM   22  C   UNL     1       6.052  32.217  59.898  1.00  0.00     0.252 C 
HETATM   23  O   UNL     1       5.038  32.821  59.556  1.00  0.00    -0.268 OA
HETATM   24  H   UNL     1       7.618  30.990  59.298  1.00  0.00     0.163 HD
BRANCH  22  25
HETATM   25  C   UNL     1       6.611  32.382  61.269  1.00  0.00     0.033 A 
HETATM   26  C   UNL     1       5.745  32.815  62.281  1.00  0.00     0.036 A 
HETATM   27  C   UNL     1       6.228  33.001  63.576  1.00  0.00     0.012 A 
HETATM   28 BR   UNL     1       5.059  33.595  64.938  1.00  0.00    -0.051 Br
HETATM   29  C   UNL     1       7.567  32.756  63.874  1.00  0.00     0.019 A 
HETATM   30  C   UNL     1       8.429  32.307  62.873  1.00  0.00     0.002 A 
HETATM   31  C   UNL     1       7.953  32.115  61.572  1.00  0.00     0.017 A 
ENDBRANCH  22  25
ENDBRANCH  20  21
ENDBRANCH   2  20
TORSDOF 5
ENDMDL
MODEL 5
REMARK VINA RESULT:      -9.2      2.737      4.095
REMARK  5 active torsions:
REMARK  status: ('A' for Active; 'I' for Inactive)
REMARK    1  A    between atoms: C_2  and  C_3 
REMARK    2  A    between atoms: N_12  and  N_13 
REMARK       I    between atoms: N_13  and  C_14 
REMARK    3  A    between atoms: C_14  and  C_15 
REMARK    4  A    between atoms: C_15  and  N_16 
REMARK       I    between atoms: N_16  and  C_17 
REMARK    5  A    between atoms: C_17  and  C_18 
ROOT
HETATM    1  N   UNL     1       5.119  30.373  58.055  1.00  0.00    -0.255 N 
HETATM    2  C   UNL     1       5.289  31.682  58.463  1.00  0.00     0.254 C 
HETATM    3  O   UNL     1       6.093  32.464  57.962  1.00  0.00    -0.270 OA
HETATM    4  H   UNL     1       4.698  29.709  58.712  1.00  0.00     0.191 HD
ENDROOT
BRANCH   1   5
HETATM    5  N   UNL     1       6.022  29.858  57.143  1.00  0.00    -0.167 N 
HETATM    6  C   UNL     1       5.780  29.775  55.800  1.00  0.00     0.345 A 
HETATM    7  N   UNL     1       6.852  29.125  55.220  1.00  0.00    -0.319 N 
HETATM    8  O   UNL     1       4.809  30.178  55.179  1.00  0.00    -0.245 OA
HETATM    9  C   UNL     1       7.789  28.616  56.210  1.00  0.00     0.141 A 
HETATM   10  H   UNL     1       6.799  28.816  54.259  1.00  0.00     0.166 HD
HETATM   11  C   UNL     1       9.161  29.284  56.045  1.00  0.00     0.055 C 
HETATM   12  C   UNL     1       7.160  29.182  57.508  1.00  0.00     0.279 A 
HETATM   13  O   UNL     1       7.613  29.055  58.640  1.00  0.00    -0.268 OA
BRANCH   9  14
HETATM   14  C   UNL     1       7.844  27.094  56.122  1.00  0.00    -0.021 A 
HETATM   15  C   UNL     1       8.407  26.343  57.175  1.00  0.00     0.010 A 
HETATM   16  C   UNL     1       8.487  24.951  57.112  1.00  0.00     0.001 A 
HETATM   17  C   UNL     1       8.017  24.276  55.991  1.00  0.00     0.000 A 
HETATM   18  C   UNL     1       7.475  24.994  54.931  1.00  0.00     0.001 A 
HETATM   19  C   UNL     1       7.395  26.389  54.991  1.00  0.00     0.010 A 
ENDBRANCH   9  14
ENDBRANCH   1   5
BRANCH   2  20
HETATM   20  C   UNL     1       4.348  32.088  59.599  1.00  0.00     0.227 C 
BRANCH  20  21
HETATM   21  N   UNL     1       5.014  32.148  60.891  1.00  0.00    -0.348 N 
HETATM   22  C   UNL     1       4.733  33.153  61.791  1.00  0.00     0.252 C 
HETATM   23  O   UNL     1       3.814  33.949  61.606  1.00  0.00    -0.268 OA
HETATM   24  H   UNL     1       5.843  31.582  61.006  1.00  0.00     0.163 HD
BRANCH  22  25
HETATM   25  C   UNL     1       5.602  33.260  62.996  1.00  0.00     0.033 A 
HETATM   26  C   UNL     1       5.001  33.632  64.205  1.00  0.00     0.036 A 
HETATM   27  C   UNL     1       5.778  33.763  65.355  1.00  0.00     0.012 A 
HETATM   28 BR   UNL     1       4.966  34.275  66.984  1.00  0.00    -0.051 Br
HETATM   29  C   UNL     1       7.150  33.521  65.315  1.00  0.00     0.019 A 
HETATM   30  C   UNL     1       7.749  33.133  64.116  1.00  0.00     0.002 A 
HETATM   31  C   UNL     1       6.978  32.997  62.958  1.00  0.00     0.017 A 
ENDBRANCH  22  25
ENDBRANCH  20  21
ENDBRANCH   2  20
TORSDOF 5
ENDMDL
MODEL 6
REMARK VINA RESULT:      -9.1      1.751      2.196
REMARK  5 active torsions:
REMARK  status: ('A' for Active; 'I' for Inactive)
REMARK    1  A    between atoms: C_2  and  C_3 
REMARK    2  A    between atoms: N_12  and  N_13 
REMARK       I    between atoms: N_13  and  C_14 
REMARK    3  A    between atoms: C_14  and  C_15 
REMARK    4  A    between atoms: C_15  and  N_16 
REMARK       I    between atoms: N_16  and  C_17 
REMARK    5  A    between atoms: C_17  and  C_18 
ROOT
HETATM    1  N   UNL     1       7.237  28.290  57.614  1.00  0.00    -0.255 N 
HETATM    2  C   UNL     1       7.156  29.644  57.878  1.00  0.00     0.254 C 
HETATM    3  O   UNL     1       6.455  30.431  57.245  1.00  0.00    -0.270 OA
HETATM    4  H   UNL     1       8.063  27.779  57.941  1.00  0.00     0.191 HD
ENDROOT
BRANCH   1   5
HETATM    5  N   UNL     1       6.628  27.817  56.467  1.00  0.00    -0.167 N 
HETATM    6  C   UNL     1       5.430  27.158  56.460  1.00  0.00     0.345 A 
HETATM    7  N   UNL     1       5.181  26.753  55.164  1.00  0.00    -0.319 N 
HETATM    8  O   UNL     1       4.684  26.935  57.400  1.00  0.00    -0.245 OA
HETATM    9  C   UNL     1       6.307  27.011  54.279  1.00  0.00     0.141 A 
HETATM   10  H   UNL     1       4.427  26.108  54.969  1.00  0.00     0.166 HD
HETATM   11  C   UNL     1       5.908  27.998  53.174  1.00  0.00     0.055 C 
HETATM   12  C   UNL     1       7.254  27.767  55.246  1.00  0.00     0.279 A 
HETATM   13  O   UNL     1       8.347  28.241  54.955  1.00  0.00    -0.268 OA
BRANCH   9  14
HETATM   14  C   UNL     1       6.845  25.688  53.742  1.00  0.00    -0.021 A 
HETATM   15  C   UNL     1       7.400  25.623  52.448  1.00  0.00     0.010 A 
HETATM   16  C   UNL     1       7.883  24.421  51.924  1.00  0.00     0.001 A 
HETATM   17  C   UNL     1       7.812  23.255  52.677  1.00  0.00     0.000 A 
HETATM   18  C   UNL     1       7.252  23.289  53.950  1.00  0.00     0.001 A 
HETATM   19  C   UNL     1       6.767  24.491  54.476  1.00  0.00     0.010 A 
ENDBRANCH   9  14
ENDBRANCH   1   5
BRANCH   2  20
HETATM   20  C   UNL     1       8.010  30.081  59.068  1.00  0.00     0.227 C 
BRANCH  20  21
HETATM   21  N   UNL     1       7.434  31.200  59.798  1.00  0.00    -0.348 N 
HETATM   22  C   UNL     1       7.749  31.426  61.121  1.00  0.00     0.252 C 
HETATM   23  O   UNL     1       8.630  30.789  61.693  1.00  0.00    -0.268 OA
HETATM   24  H   UNL     1       6.631  31.652  59.384  1.00  0.00     0.163 HD
BRANCH  22  25
HETATM   25  C   UNL     1       6.962  32.460  61.848  1.00  0.00     0.033 A 
HETATM   26  C   UNL     1       7.255  32.674  63.201  1.00  0.00     0.036 A 
HETATM   27  C   UNL     1       6.532  33.619  63.927  1.00  0.00     0.012 A 
HETATM   28 BR   UNL     1       6.922  33.898  65.756  1.00  0.00    -0.051 Br
HETATM   29  C   UNL     1       5.522  34.361  63.316  1.00  0.00     0.019 A 
HETATM   30  C   UNL     1       5.240  34.164  61.964  1.00  0.00     0.002 A 
HETATM   31  C   UNL     1       5.961  33.220  61.227  1.00  0.00     0.017 A 
ENDBRANCH  22  25
ENDBRANCH  20  21
ENDBRANCH   2  20
TORSDOF 5
ENDMDL
MODEL 7
REMARK VINA RESULT:      -8.8      1.724      2.340
REMARK  5 active torsions:
REMARK  status: ('A' for Active; 'I' for Inactive)
REMARK    1  A    between atoms: C_2  and  C_3 
REMARK    2  A    between atoms: N_12  and  N_13 
REMARK       I    between atoms: N_13  and  C_14 
REMARK    3  A    between atoms: C_14  and  C_15 
REMARK    4  A    between atoms: C_15  and  N_16 
REMARK       I    between atoms: N_16  and  C_17 
REMARK    5  A    between atoms: C_17  and  C_18 
ROOT
HETATM    1  N   UNL     1       7.981  28.242  58.106  1.00  0.00    -0.255 N 
HETATM    2  C   UNL     1       8.779  29.015  57.285  1.00  0.00     0.254 C 
HETATM    3  O   UNL     1       8.875  28.862  56.069  1.00  0.00    -0.270 OA
HETATM    4  H   UNL     1       8.204  28.204  59.105  1.00  0.00     0.191 HD
ENDROOT
BRANCH   1   5
HETATM    5  N   UNL     1       7.385  27.122  57.558  1.00  0.00    -0.167 N 
HETATM    6  C   UNL     1       7.944  25.874  57.584  1.00  0.00     0.345 A 
HETATM    7  N   UNL     1       7.121  25.030  56.865  1.00  0.00    -0.319 N 
HETATM    8  O   UNL     1       8.981  25.521  58.124  1.00  0.00    -0.245 OA
HETATM    9  C   UNL     1       6.042  25.745  56.201  1.00  0.00     0.141 A 
HETATM   10  H   UNL     1       7.434  24.100  56.624  1.00  0.00     0.166 HD
HETATM   11  C   UNL     1       4.680  25.279  56.732  1.00  0.00     0.055 C 
HETATM   12  C   UNL     1       6.278  27.177  56.747  1.00  0.00     0.279 A 
HETATM   13  O   UNL     1       5.588  28.161  56.504  1.00  0.00    -0.268 OA
BRANCH   9  14
HETATM   14  C   UNL     1       6.185  25.592  54.690  1.00  0.00    -0.021 A 
HETATM   15  C   UNL     1       5.073  25.222  53.907  1.00  0.00     0.010 A 
HETATM   16  C   UNL     1       5.181  25.056  52.524  1.00  0.00     0.001 A 
HETATM   17  C   UNL     1       6.405  25.246  51.893  1.00  0.00     0.000 A 
HETATM   18  C   UNL     1       7.522  25.594  52.646  1.00  0.00     0.001 A 
HETATM   19  C   UNL     1       7.416  25.759  54.031  1.00  0.00     0.010 A 
ENDBRANCH   9  14
ENDBRANCH   1   5
BRANCH   2  20
HETATM   20  C   UNL     1       9.526  30.120  58.033  1.00  0.00     0.227 C 
BRANCH  20  21
HETATM   21  N   UNL     1       8.933  30.431  59.325  1.00  0.00    -0.348 N 
HETATM   22  C   UNL     1       8.013  31.447  59.460  1.00  0.00     0.252 C 
HETATM   23  O   UNL     1       7.548  32.033  58.485  1.00  0.00    -0.268 OA
HETATM   24  H   UNL     1       9.386  30.045  60.141  1.00  0.00     0.163 HD
BRANCH  22  25
HETATM   25  C   UNL     1       7.613  31.833  60.842  1.00  0.00     0.033 A 
HETATM   26  C   UNL     1       6.298  32.273  61.044  1.00  0.00     0.036 A 
HETATM   27  C   UNL     1       5.884  32.662  62.317  1.00  0.00     0.012 A 
HETATM   28 BR   UNL     1       4.112  33.266  62.585  1.00  0.00    -0.051 Br
HETATM   29  C   UNL     1       6.766  32.612  63.395  1.00  0.00     0.019 A 
HETATM   30  C   UNL     1       8.071  32.157  63.202  1.00  0.00     0.002 A 
HETATM   31  C   UNL     1       8.494  31.762  61.929  1.00  0.00     0.017 A 
ENDBRANCH  22  25
ENDBRANCH  20  21
ENDBRANCH   2  20
TORSDOF 5
ENDMDL
MODEL 8
REMARK VINA RESULT:      -8.8      6.147      8.696
REMARK  5 active torsions:
REMARK  status: ('A' for Active; 'I' for Inactive)
REMARK    1  A    between atoms: C_2  and  C_3 
REMARK    2  A    between atoms: N_12  and  N_13 
REMARK       I    between atoms: N_13  and  C_14 
REMARK    3  A    between atoms: C_14  and  C_15 
REMARK    4  A    between atoms: C_15  and  N_16 
REMARK       I    between atoms: N_16  and  C_17 
REMARK    5  A    between atoms: C_17  and  C_18 
ROOT
HETATM    1  N   UNL     1       4.465  27.253  53.226  1.00  0.00    -0.255 N 
HETATM    2  C   UNL     1       5.688  27.025  53.826  1.00  0.00     0.254 C 
HETATM    3  O   UNL     1       6.765  27.403  53.370  1.00  0.00    -0.270 OA
HETATM    4  H   UNL     1       3.681  26.642  53.470  1.00  0.00     0.191 HD
ENDROOT
BRANCH   1   5
HETATM    5  N   UNL     1       4.462  27.790  51.951  1.00  0.00    -0.167 N 
HETATM    6  C   UNL     1       3.963  29.027  51.650  1.00  0.00     0.345 A 
HETATM    7  N   UNL     1       4.036  29.187  50.280  1.00  0.00    -0.319 N 
HETATM    8  O   UNL     1       3.516  29.869  52.413  1.00  0.00    -0.245 OA
HETATM    9  C   UNL     1       4.460  27.971  49.604  1.00  0.00     0.141 A 
HETATM   10  H   UNL     1       3.570  29.965  49.834  1.00  0.00     0.166 HD
HETATM   11  C   UNL     1       5.792  28.197  48.876  1.00  0.00     0.055 C 
HETATM   12  C   UNL     1       4.757  27.062  50.825  1.00  0.00     0.279 A 
HETATM   13  O   UNL     1       5.190  25.916  50.778  1.00  0.00    -0.268 OA
BRANCH   9  14
HETATM   14  C   UNL     1       3.344  27.484  48.686  1.00  0.00    -0.021 A 
HETATM   15  C   UNL     1       3.585  26.438  47.772  1.00  0.00     0.010 A 
HETATM   16  C   UNL     1       2.587  25.985  46.906  1.00  0.00     0.001 A 
HETATM   17  C   UNL     1       1.328  26.575  46.926  1.00  0.00     0.000 A 
HETATM   18  C   UNL     1       1.071  27.621  47.805  1.00  0.00     0.001 A 
HETATM   19  C   UNL     1       2.069  28.076  48.672  1.00  0.00     0.010 A 
ENDBRANCH   9  14
ENDBRANCH   1   5
BRANCH   2  20
HETATM   20  C   UNL     1       5.580  26.269  55.152  1.00  0.00     0.227 C 
BRANCH  20  21
HETATM   21  N   UNL     1       6.121  24.921  55.080  1.00  0.00    -0.348 N 
HETATM   22  C   UNL     1       6.814  24.375  56.138  1.00  0.00     0.252 C 
HETATM   23  O   UNL     1       6.879  24.938  57.228  1.00  0.00    -0.268 OA
HETATM   24  H   UNL     1       6.179  24.499  54.164  1.00  0.00     0.163 HD
BRANCH  22  25
HETATM   25  C   UNL     1       7.509  23.078  55.909  1.00  0.00     0.033 A 
HETATM   26  C   UNL     1       7.516  22.560  54.607  1.00  0.00     0.036 A 
HETATM   27  C   UNL     1       8.138  21.340  54.348  1.00  0.00     0.012 A 
HETATM   28 BR   UNL     1       8.137  20.638  52.593  1.00  0.00    -0.051 Br
HETATM   29  C   UNL     1       8.761  20.630  55.374  1.00  0.00     0.019 A 
HETATM   30  C   UNL     1       8.772  21.151  56.668  1.00  0.00     0.002 A 
HETATM   31  C   UNL     1       8.153  22.375  56.937  1.00  0.00     0.017 A 
ENDBRANCH  22  25
ENDBRANCH  20  21
ENDBRANCH   2  20
TORSDOF 5
ENDMDL
MODEL 9
REMARK VINA RESULT:      -8.7      6.179      8.898
REMARK  5 active torsions:
REMARK  status: ('A' for Active; 'I' for Inactive)
REMARK    1  A    between atoms: C_2  and  C_3 
REMARK    2  A    between atoms: N_12  and  N_13 
REMARK       I    between atoms: N_13  and  C_14 
REMARK    3  A    between atoms: C_14  and  C_15 
REMARK    4  A    between atoms: C_15  and  N_16 
REMARK       I    between atoms: N_16  and  C_17 
REMARK    5  A    between atoms: C_17  and  C_18 
ROOT
HETATM    1  N   UNL     1       5.879  28.680  52.309  1.00  0.00    -0.255 N 
HETATM    2  C   UNL     1       6.052  27.370  52.711  1.00  0.00     0.254 C 
HETATM    3  O   UNL     1       5.419  26.418  52.259  1.00  0.00    -0.270 OA
HETATM    4  H   UNL     1       6.180  29.427  52.942  1.00  0.00     0.191 HD
ENDROOT
BRANCH   1   5
HETATM    5  N   UNL     1       4.814  28.965  51.474  1.00  0.00    -0.167 N 
HETATM    6  C   UNL     1       3.508  28.947  51.876  1.00  0.00     0.345 A 
HETATM    7  N   UNL     1       2.723  29.183  50.765  1.00  0.00    -0.319 N 
HETATM    8  O   UNL     1       3.063  28.756  52.998  1.00  0.00    -0.245 OA
HETATM    9  C   UNL     1       3.502  29.217  49.536  1.00  0.00     0.141 A 
HETATM   10  H   UNL     1       1.722  29.049  50.813  1.00  0.00     0.166 HD
HETATM   11  C   UNL     1       3.407  30.599  48.878  1.00  0.00     0.055 C 
HETATM   12  C   UNL     1       4.935  29.083  50.111  1.00  0.00     0.279 A 
HETATM   13  O   UNL     1       5.974  29.098  49.460  1.00  0.00    -0.268 OA
BRANCH   9  14
HETATM   14  C   UNL     1       3.058  28.080  48.621  1.00  0.00    -0.021 A 
HETATM   15  C   UNL     1       1.940  28.244  47.778  1.00  0.00     0.010 A 
HETATM   16  C   UNL     1       1.501  27.214  46.944  1.00  0.00     0.001 A 
HETATM   17  C   UNL     1       2.162  25.991  46.942  1.00  0.00     0.000 A 
HETATM   18  C   UNL     1       3.256  25.796  47.778  1.00  0.00     0.001 A 
HETATM   19  C   UNL     1       3.697  26.827  48.615  1.00  0.00     0.010 A 
ENDBRANCH   9  14
ENDBRANCH   1   5
BRANCH   2  20
HETATM   20  C   UNL     1       7.144  27.200  53.768  1.00  0.00     0.227 C 
BRANCH  20  21
HETATM   21  N   UNL     1       7.365  25.810  54.135  1.00  0.00    -0.348 N 
HETATM   22  C   UNL     1       7.968  24.930  53.263  1.00  0.00     0.252 C 
HETATM   23  O   UNL     1       8.471  25.308  52.208  1.00  0.00    -0.268 OA
HETATM   24  H   UNL     1       6.857  25.462  54.937  1.00  0.00     0.163 HD
BRANCH  22  25
HETATM   25  C   UNL     1       7.968  23.487  53.634  1.00  0.00     0.033 A 
HETATM   26  C   UNL     1       8.090  23.160  54.990  1.00  0.00     0.036 A 
HETATM   27  C   UNL     1       8.114  21.822  55.382  1.00  0.00     0.012 A 
HETATM   28 BR   UNL     1       8.290  21.383  57.213  1.00  0.00    -0.051 Br
HETATM   29  C   UNL     1       8.011  20.804  54.436  1.00  0.00     0.019 A 
HETATM   30  C   UNL     1       7.870  21.126  53.085  1.00  0.00     0.002 A 
HETATM   31  C   UNL     1       7.843  22.465  52.683  1.00  0.00     0.017 A 
ENDBRANCH  22  25
ENDBRANCH  20  21
ENDBRANCH   2  20
TORSDOF 5
ENDMDL
MODEL 10
REMARK VINA RESULT:      -8.6      2.415      3.628
REMARK  5 active torsions:
REMARK  status: ('A' for Active; 'I' for Inactive)
REMARK    1  A    between atoms: C_2  and  C_3 
REMARK    2  A    between atoms: N_12  and  N_13 
REMARK       I    between atoms: N_13  and  C_14 
REMARK    3  A    between atoms: C_14  and  C_15 
REMARK    4  A    between atoms: C_15  and  N_16 
REMARK       I    between atoms: N_16  and  C_17 
REMARK    5  A    between atoms: C_17  and  C_18 
ROOT
HETATM    1  N   UNL     1       6.235  30.102  55.716  1.00  0.00    -0.255 N 
HETATM    2  C   UNL     1       6.273  30.028  57.095  1.00  0.00     0.254 C 
HETATM    3  O   UNL     1       6.559  29.013  57.726  1.00  0.00    -0.270 OA
HETATM    4  H   UNL     1       5.680  30.846  55.283  1.00  0.00     0.191 HD
ENDROOT
BRANCH   1   5
HETATM    5  N   UNL     1       6.360  28.925  55.002  1.00  0.00    -0.167 N 
HETATM    6  C   UNL     1       7.551  28.445  54.531  1.00  0.00     0.345 A 
HETATM    7  N   UNL     1       7.284  27.311  53.790  1.00  0.00    -0.319 N 
HETATM    8  O   UNL     1       8.671  28.902  54.701  1.00  0.00    -0.245 OA
HETATM    9  C   UNL     1       5.856  27.086  53.621  1.00  0.00     0.141 A 
HETATM   10  H   UNL     1       8.007  26.895  53.219  1.00  0.00     0.166 HD
HETATM   11  C   UNL     1       5.441  25.760  54.272  1.00  0.00     0.055 C 
HETATM   12  C   UNL     1       5.288  28.226  54.505  1.00  0.00     0.279 A 
HETATM   13  O   UNL     1       4.100  28.440  54.724  1.00  0.00    -0.268 OA
BRANCH   9  14
HETATM   14  C   UNL     1       5.499  27.170  52.140  1.00  0.00    -0.021 A 
HETATM   15  C   UNL     1       5.175  26.001  51.422  1.00  0.00     0.010 A 
HETATM   16  C   UNL     1       4.864  26.047  50.062  1.00  0.00     0.001 A 
HETATM   17  C   UNL     1       4.879  27.261  49.385  1.00  0.00     0.000 A 
HETATM   18  C   UNL     1       5.213  28.426  50.066  1.00  0.00     0.001 A 
HETATM   19  C   UNL     1       5.527  28.382  51.428  1.00  0.00     0.010 A 
ENDBRANCH   9  14
ENDBRANCH   1   5
BRANCH   2  20
HETATM   20  C   UNL     1       5.948  31.356  57.781  1.00  0.00     0.227 C 
BRANCH  20  21
HETATM   21  N   UNL     1       6.429  31.416  59.153  1.00  0.00    -0.348 N 
HETATM   22  C   UNL     1       5.870  32.284  60.066  1.00  0.00     0.252 C 
HETATM   23  O   UNL     1       4.858  32.931  59.807  1.00  0.00    -0.268 OA
HETATM   24  H   UNL     1       7.323  30.986  59.344  1.00  0.00     0.163 HD
BRANCH  22  25
HETATM   25  C   UNL     1       6.552  32.431  61.381  1.00  0.00     0.033 A 
HETATM   26  C   UNL     1       5.809  32.951  62.450  1.00  0.00     0.036 A 
HETATM   27  C   UNL     1       6.411  33.124  63.695  1.00  0.00     0.012 A 
HETATM   28 BR   UNL     1       5.409  33.834  65.132  1.00  0.00    -0.051 Br
HETATM   29  C   UNL     1       7.748  32.778  63.890  1.00  0.00     0.019 A 
HETATM   30  C   UNL     1       8.486  32.243  62.834  1.00  0.00     0.002 A 
HETATM   31  C   UNL     1       7.890  32.064  61.582  1.00  0.00     0.017 A 
ENDBRANCH  22  25
ENDBRANCH  20  21
ENDBRANCH   2  20
TORSDOF 5
ENDMDL
