MODEL 1
REMARK VINA RESULT:     -10.0      0.000      0.000
REMARK  6 active torsions:
REMARK  status: ('A' for Active; 'I' for Inactive)
REMARK    1  A    between atoms: O_2  and  C_3 
REMARK    2  A    between atoms: C_6  and  C_7 
REMARK    3  A    between atoms: C_12  and  C_13 
REMARK       I    between atoms: C_13  and  N_14 
REMARK    4  A    between atoms: N_14  and  C_15 
REMARK    5  A    between atoms: C_15  and  C_16 
REMARK    6  A    between atoms: C_24  and  C_25 
ROOT
HETATM    1  C   UNL     1       6.204  26.033  55.119  1.00  0.00     0.118 C 
HETATM    2  N   UNL     1       6.849  26.267  56.409  1.00  0.00    -0.366 N 
HETATM    3  C   UNL     1       7.207  27.496  56.828  1.00  0.00     0.123 A 
HETATM    4  N   UNL     1       6.867  28.615  56.123  1.00  0.00    -0.240 N 
HETATM    5  N   UNL     1       7.391  29.753  56.608  1.00  0.00    -0.165 NA
HETATM    6  C   UNL     1       8.040  29.346  57.725  1.00  0.00     0.148 A 
HETATM    7  C   UNL     1       7.930  27.938  57.903  1.00  0.00     0.088 A 
HETATM    8  C   UNL     1       6.106  28.575  54.890  1.00  0.00     0.221 C 
HETATM    9  C   UNL     1       6.380  27.242  54.176  1.00  0.00     0.066 C 
HETATM   10  H   UNL     1       7.067  25.433  56.954  1.00  0.00     0.161 HD
ENDROOT
BRANCH   6  11
HETATM   11  C   UNL     1       8.767  30.280  58.595  1.00  0.00     0.272 C 
HETATM   12  N   UNL     1       8.527  30.075  59.932  1.00  0.00    -0.351 N 
HETATM   13  H   UNL     1       7.842  29.359  60.161  1.00  0.00     0.163 HD
HETATM   14  O   UNL     1       9.512  31.152  58.159  1.00  0.00    -0.266 OA
BRANCH  12  15
HETATM   15  C   UNL     1       9.111  30.886  60.967  1.00  0.00     0.161 C 
BRANCH  15  16
HETATM   16  C   UNL     1       8.088  31.767  61.640  1.00  0.00    -0.041 A 
HETATM   17  C   UNL     1       8.232  32.148  62.983  1.00  0.00     0.009 A 
HETATM   18  C   UNL     1       7.302  32.995  63.587  1.00  0.00     0.001 A 
HETATM   19  C   UNL     1       6.227  33.487  62.850  1.00  0.00     0.000 A 
HETATM   20  C   UNL     1       6.082  33.133  61.510  1.00  0.00     0.001 A 
HETATM   21  C   UNL     1       7.009  32.280  60.906  1.00  0.00     0.009 A 
ENDBRANCH  15  16
ENDBRANCH  12  15
ENDBRANCH   6  11
BRANCH   8  22
HETATM   22  C   UNL     1       4.639  28.794  55.177  1.00  0.00     0.409 C 
HETATM   23  F   UNL     1       4.298  30.101  55.168  1.00  0.00    -0.169 F 
HETATM   24  F   UNL     1       3.890  28.195  54.213  1.00  0.00    -0.169 F 
HETATM   25  F   UNL     1       4.236  28.271  56.354  1.00  0.00    -0.169 F 
ENDBRANCH   8  22
BRANCH   1  26
HETATM   26  C   UNL     1       6.789  24.776  54.496  1.00  0.00    -0.035 A 
HETATM   27  C   UNL     1       7.063  24.721  53.122  1.00  0.00     0.012 A 
HETATM   28  C   UNL     1       7.611  23.567  52.546  1.00  0.00     0.037 A 
HETATM   29  C   UNL     1       7.896  22.453  53.336  1.00  0.00     0.068 A 
HETATM   30  C   UNL     1       7.617  22.497  54.702  1.00  0.00     0.037 A 
HETATM   31  C   UNL     1       7.071  23.645  55.279  1.00  0.00     0.012 A 
BRANCH  29  32
HETATM   32  O   UNL     1       8.432  21.272  52.904  1.00  0.00    -0.356 OA
HETATM   33  C   UNL     1       8.735  20.301  53.897  1.00  0.00     0.210 C 
ENDBRANCH  29  32
ENDBRANCH   1  26
TORSDOF 6
ENDMDL
MODEL 2
REMARK VINA RESULT:      -9.8      2.139      2.856
REMARK  6 active torsions:
REMARK  status: ('A' for Active; 'I' for Inactive)
REMARK    1  A    between atoms: O_2  and  C_3 
REMARK    2  A    between atoms: C_6  and  C_7 
REMARK    3  A    between atoms: C_12  and  C_13 
REMARK       I    between atoms: C_13  and  N_14 
REMARK    4  A    between atoms: N_14  and  C_15 
REMARK    5  A    between atoms: C_15  and  C_16 
REMARK    6  A    between atoms: C_24  and  C_25 
ROOT
HETATM    1  C   UNL     1       6.075  25.577  53.808  1.00  0.00     0.118 C 
HETATM    2  N   UNL     1       5.369  25.961  55.029  1.00  0.00    -0.366 N 
HETATM    3  C   UNL     1       5.323  27.233  55.469  1.00  0.00     0.123 A 
HETATM    4  N   UNL     1       5.826  28.262  54.726  1.00  0.00    -0.240 N 
HETATM    5  N   UNL     1       5.808  29.453  55.348  1.00  0.00    -0.165 NA
HETATM    6  C   UNL     1       5.192  29.181  56.523  1.00  0.00     0.148 A 
HETATM    7  C   UNL     1       4.859  27.801  56.625  1.00  0.00     0.088 A 
HETATM    8  C   UNL     1       6.439  28.076  53.425  1.00  0.00     0.221 C 
HETATM    9  C   UNL     1       7.065  26.674  53.363  1.00  0.00     0.066 C 
HETATM   10  H   UNL     1       4.959  25.197  55.564  1.00  0.00     0.161 HD
ENDROOT
BRANCH   6  11
HETATM   11  C   UNL     1       4.943  30.214  57.537  1.00  0.00     0.272 C 
HETATM   12  N   UNL     1       6.086  30.850  57.957  1.00  0.00    -0.351 N 
HETATM   13  H   UNL     1       6.961  30.501  57.574  1.00  0.00     0.163 HD
HETATM   14  O   UNL     1       3.821  30.474  57.959  1.00  0.00    -0.266 OA
BRANCH  12  15
HETATM   15  C   UNL     1       6.087  31.880  58.961  1.00  0.00     0.161 C 
BRANCH  15  16
HETATM   16  C   UNL     1       7.334  31.841  59.809  1.00  0.00    -0.041 A 
HETATM   17  C   UNL     1       8.608  31.791  59.221  1.00  0.00     0.009 A 
HETATM   18  C   UNL     1       9.758  31.794  60.010  1.00  0.00     0.001 A 
HETATM   19  C   UNL     1       9.650  31.868  61.397  1.00  0.00     0.000 A 
HETATM   20  C   UNL     1       8.392  31.939  61.994  1.00  0.00     0.001 A 
HETATM   21  C   UNL     1       7.240  31.929  61.205  1.00  0.00     0.009 A 
ENDBRANCH  15  16
ENDBRANCH  12  15
ENDBRANCH   6  11
BRANCH   8  22
HETATM   22  C   UNL     1       5.421  28.311  52.334  1.00  0.00     0.409 C 
HETATM   23  F   UNL     1       4.155  28.091  52.750  1.00  0.00    -0.169 F 
HETATM   24  F   UNL     1       5.473  29.609  51.931  1.00  0.00    -0.169 F 
HETATM   25  F   UNL     1       5.628  27.560  51.232  1.00  0.00    -0.169 F 
ENDBRANCH   8  22
BRANCH   1  26
HETATM   26  C   UNL     1       6.801  24.264  54.051  1.00  0.00    -0.035 A 
HETATM   27  C   UNL     1       7.314  23.522  52.978  1.00  0.00     0.012 A 
HETATM   28  C   UNL     1       7.992  22.316  53.199  1.00  0.00     0.037 A 
HETATM   29  C   UNL     1       8.170  21.837  54.497  1.00  0.00     0.068 A 
HETATM   30  C   UNL     1       7.654  22.564  55.568  1.00  0.00     0.037 A 
HETATM   31  C   UNL     1       6.978  23.766  55.352  1.00  0.00     0.012 A 
BRANCH  29  32
HETATM   32  O   UNL     1       8.813  20.682  54.850  1.00  0.00    -0.356 OA
HETATM   33  C   UNL     1       8.805  20.339  56.229  1.00  0.00     0.210 C 
ENDBRANCH  29  32
ENDBRANCH   1  26
TORSDOF 6
ENDMDL
MODEL 3
REMARK VINA RESULT:      -9.5      2.126      9.002
REMARK  6 active torsions:
REMARK  status: ('A' for Active; 'I' for Inactive)
REMARK    1  A    between atoms: O_2  and  C_3 
REMARK    2  A    between atoms: C_6  and  C_7 
REMARK    3  A    between atoms: C_12  and  C_13 
REMARK       I    between atoms: C_13  and  N_14 
REMARK    4  A    between atoms: N_14  and  C_15 
REMARK    5  A    between atoms: C_15  and  C_16 
REMARK    6  A    between atoms: C_24  and  C_25 
ROOT
HETATM    1  C   UNL     1       6.010  30.560  56.732  1.00  0.00     0.118 C 
HETATM    2  N   UNL     1       6.910  29.715  55.949  1.00  0.00    -0.366 N 
HETATM    3  C   UNL     1       6.471  28.684  55.203  1.00  0.00     0.123 A 
HETATM    4  N   UNL     1       5.137  28.448  55.030  1.00  0.00    -0.240 N 
HETATM    5  N   UNL     1       4.858  27.321  54.355  1.00  0.00    -0.165 NA
HETATM    6  C   UNL     1       6.083  26.851  54.015  1.00  0.00     0.148 A 
HETATM    7  C   UNL     1       7.117  27.692  54.516  1.00  0.00     0.088 A 
HETATM    8  C   UNL     1       4.102  29.273  55.623  1.00  0.00     0.221 C 
HETATM    9  C   UNL     1       4.636  29.885  56.928  1.00  0.00     0.066 C 
HETATM   10  H   UNL     1       7.905  29.917  56.047  1.00  0.00     0.161 HD
ENDROOT
BRANCH   6  11
HETATM   11  C   UNL     1       6.263  25.614  53.243  1.00  0.00     0.272 C 
HETATM   12  N   UNL     1       7.553  25.142  53.266  1.00  0.00    -0.351 N 
HETATM   13  H   UNL     1       8.234  25.720  53.750  1.00  0.00     0.163 HD
HETATM   14  O   UNL     1       5.344  25.067  52.641  1.00  0.00    -0.266 OA
BRANCH  12  15
HETATM   15  C   UNL     1       7.968  23.959  52.561  1.00  0.00     0.161 C 
BRANCH  15  16
HETATM   16  C   UNL     1       8.018  22.752  53.463  1.00  0.00    -0.041 A 
HETATM   17  C   UNL     1       8.009  22.891  54.860  1.00  0.00     0.009 A 
HETATM   18  C   UNL     1       8.017  21.768  55.687  1.00  0.00     0.001 A 
HETATM   19  C   UNL     1       8.014  20.492  55.129  1.00  0.00     0.000 A 
HETATM   20  C   UNL     1       8.002  20.338  53.744  1.00  0.00     0.001 A 
HETATM   21  C   UNL     1       8.001  21.461  52.915  1.00  0.00     0.009 A 
ENDBRANCH  15  16
ENDBRANCH  12  15
ENDBRANCH   6  11
BRANCH   8  22
HETATM   22  C   UNL     1       3.640  30.317  54.635  1.00  0.00     0.409 C 
HETATM   23  F   UNL     1       3.105  29.774  53.519  1.00  0.00    -0.169 F 
HETATM   24  F   UNL     1       2.664  31.079  55.197  1.00  0.00    -0.169 F 
HETATM   25  F   UNL     1       4.616  31.167  54.252  1.00  0.00    -0.169 F 
ENDBRANCH   8  22
BRANCH   1  26
HETATM   26  C   UNL     1       6.658  30.860  58.073  1.00  0.00    -0.035 A 
HETATM   27  C   UNL     1       6.185  31.908  58.876  1.00  0.00     0.012 A 
HETATM   28  C   UNL     1       6.773  32.181  60.118  1.00  0.00     0.037 A 
HETATM   29  C   UNL     1       7.841  31.410  60.576  1.00  0.00     0.068 A 
HETATM   30  C   UNL     1       8.323  30.372  59.779  1.00  0.00     0.037 A 
HETATM   31  C   UNL     1       7.739  30.097  58.542  1.00  0.00     0.012 A 
BRANCH  29  32
HETATM   32  O   UNL     1       8.500  31.567  61.764  1.00  0.00    -0.356 OA
HETATM   33  C   UNL     1       9.129  30.414  62.308  1.00  0.00     0.210 C 
ENDBRANCH  29  32
ENDBRANCH   1  26
TORSDOF 6
ENDMDL
MODEL 4
REMARK VINA RESULT:      -9.0      2.426      9.428
REMARK  6 active torsions:
REMARK  status: ('A' for Active; 'I' for Inactive)
REMARK    1  A    between atoms: O_2  and  C_3 
REMARK    2  A    between atoms: C_6  and  C_7 
REMARK    3  A    between atoms: C_12  and  C_13 
REMARK       I    between atoms: C_13  and  N_14 
REMARK    4  A    between atoms: N_14  and  C_15 
REMARK    5  A    between atoms: C_15  and  C_16 
REMARK    6  A    between atoms: C_24  and  C_25 
ROOT
HETATM    1  C   UNL     1       6.362  31.691  58.766  1.00  0.00     0.118 C 
HETATM    2  N   UNL     1       6.992  30.430  58.383  1.00  0.00    -0.366 N 
HETATM    3  C   UNL     1       6.335  29.465  57.712  1.00  0.00     0.123 A 
HETATM    4  N   UNL     1       5.072  29.665  57.233  1.00  0.00    -0.240 N 
HETATM    5  N   UNL     1       4.509  28.574  56.687  1.00  0.00    -0.165 NA
HETATM    6  C   UNL     1       5.496  27.648  56.754  1.00  0.00     0.148 A 
HETATM    7  C   UNL     1       6.661  28.178  57.376  1.00  0.00     0.088 A 
HETATM    8  C   UNL     1       4.347  30.909  57.403  1.00  0.00     0.221 C 
HETATM    9  C   UNL     1       4.823  31.594  58.694  1.00  0.00     0.066 C 
HETATM   10  H   UNL     1       7.950  30.297  58.707  1.00  0.00     0.161 HD
ENDROOT
BRANCH   6  11
HETATM   11  C   UNL     1       5.323  26.279  56.252  1.00  0.00     0.272 C 
HETATM   12  N   UNL     1       5.835  26.094  54.991  1.00  0.00    -0.351 N 
HETATM   13  H   UNL     1       6.210  26.920  54.533  1.00  0.00     0.163 HD
HETATM   14  O   UNL     1       4.774  25.396  56.904  1.00  0.00    -0.266 OA
BRANCH  12  15
HETATM   15  C   UNL     1       5.758  24.840  54.289  1.00  0.00     0.161 C 
BRANCH  15  16
HETATM   16  C   UNL     1       6.994  24.001  54.493  1.00  0.00    -0.041 A 
HETATM   17  C   UNL     1       7.415  23.084  53.518  1.00  0.00     0.009 A 
HETATM   18  C   UNL     1       8.581  22.339  53.697  1.00  0.00     0.001 A 
HETATM   19  C   UNL     1       9.351  22.515  54.845  1.00  0.00     0.000 A 
HETATM   20  C   UNL     1       8.956  23.437  55.812  1.00  0.00     0.001 A 
HETATM   21  C   UNL     1       7.785  24.179  55.637  1.00  0.00     0.009 A 
ENDBRANCH  15  16
ENDBRANCH  12  15
ENDBRANCH   6  11
BRANCH   8  22
HETATM   22  C   UNL     1       4.520  31.782  56.182  1.00  0.00     0.409 C 
HETATM   23  F   UNL     1       5.613  31.451  55.459  1.00  0.00    -0.169 F 
HETATM   24  F   UNL     1       3.452  31.627  55.354  1.00  0.00    -0.169 F 
HETATM   25  F   UNL     1       4.597  33.099  56.465  1.00  0.00    -0.169 F 
ENDBRANCH   8  22
BRANCH   1  26
HETATM   26  C   UNL     1       6.812  32.063  60.168  1.00  0.00    -0.035 A 
HETATM   27  C   UNL     1       6.093  32.999  60.925  1.00  0.00     0.012 A 
HETATM   28  C   UNL     1       6.501  33.336  62.223  1.00  0.00     0.037 A 
HETATM   29  C   UNL     1       7.630  32.740  62.783  1.00  0.00     0.068 A 
HETATM   30  C   UNL     1       8.356  31.816  62.033  1.00  0.00     0.037 A 
HETATM   31  C   UNL     1       7.953  31.477  60.740  1.00  0.00     0.012 A 
BRANCH  29  32
HETATM   32  O   UNL     1       8.132  32.976  64.033  1.00  0.00    -0.356 OA
HETATM   33  C   UNL     1       7.279  33.645  64.953  1.00  0.00     0.210 C 
ENDBRANCH  29  32
ENDBRANCH   1  26
TORSDOF 6
ENDMDL
MODEL 5
REMARK VINA RESULT:      -9.0      2.248      9.360
REMARK  6 active torsions:
REMARK  status: ('A' for Active; 'I' for Inactive)
REMARK    1  A    between atoms: O_2  and  C_3 
REMARK    2  A    between atoms: C_6  and  C_7 
REMARK    3  A    between atoms: C_12  and  C_13 
REMARK       I    between atoms: C_13  and  N_14 
REMARK    4  A    between atoms: N_14  and  C_15 
REMARK    5  A    between atoms: C_15  and  C_16 
REMARK    6  A    between atoms: C_24  and  C_25 
ROOT
HETATM    1  C   UNL     1       5.904  30.345  57.313  1.00  0.00     0.118 C 
HETATM    2  N   UNL     1       7.171  29.628  57.440  1.00  0.00    -0.366 N 
HETATM    3  C   UNL     1       7.283  28.306  57.209  1.00  0.00     0.123 A 
HETATM    4  N   UNL     1       6.239  27.580  56.711  1.00  0.00    -0.240 N 
HETATM    5  N   UNL     1       6.469  26.258  56.642  1.00  0.00    -0.165 NA
HETATM    6  C   UNL     1       7.756  26.145  57.048  1.00  0.00     0.148 A 
HETATM    7  C   UNL     1       8.303  27.412  57.395  1.00  0.00     0.088 A 
HETATM    8  C   UNL     1       4.948  28.160  56.395  1.00  0.00     0.221 C 
HETATM    9  C   UNL     1       4.706  29.371  57.310  1.00  0.00     0.066 C 
HETATM   10  H   UNL     1       7.961  30.180  57.775  1.00  0.00     0.161 HD
ENDROOT
BRANCH   6  11
HETATM   11  C   UNL     1       8.445  24.849  57.122  1.00  0.00     0.272 C 
HETATM   12  N   UNL     1       7.623  23.781  56.858  1.00  0.00    -0.351 N 
HETATM   13  H   UNL     1       6.641  23.996  56.707  1.00  0.00     0.163 HD
HETATM   14  O   UNL     1       9.637  24.745  57.393  1.00  0.00    -0.266 OA
BRANCH  12  15
HETATM   15  C   UNL     1       8.075  22.416  56.896  1.00  0.00     0.161 C 
BRANCH  15  16
HETATM   16  C   UNL     1       8.184  21.818  55.516  1.00  0.00    -0.041 A 
HETATM   17  C   UNL     1       8.640  20.503  55.331  1.00  0.00     0.009 A 
HETATM   18  C   UNL     1       8.703  19.944  54.055  1.00  0.00     0.001 A 
HETATM   19  C   UNL     1       8.292  20.685  52.949  1.00  0.00     0.000 A 
HETATM   20  C   UNL     1       7.819  21.985  53.120  1.00  0.00     0.001 A 
HETATM   21  C   UNL     1       7.762  22.548  54.396  1.00  0.00     0.009 A 
ENDBRANCH  15  16
ENDBRANCH  12  15
ENDBRANCH   6  11
BRANCH   8  22
HETATM   22  C   UNL     1       4.884  28.514  54.928  1.00  0.00     0.409 C 
HETATM   23  F   UNL     1       4.231  29.676  54.704  1.00  0.00    -0.169 F 
HETATM   24  F   UNL     1       6.143  28.681  54.442  1.00  0.00    -0.169 F 
HETATM   25  F   UNL     1       4.304  27.563  54.167  1.00  0.00    -0.169 F 
ENDBRANCH   8  22
BRANCH   1  26
HETATM   26  C   UNL     1       5.784  31.342  58.452  1.00  0.00    -0.035 A 
HETATM   27  C   UNL     1       6.890  31.641  59.259  1.00  0.00     0.012 A 
HETATM   28  C   UNL     1       6.785  32.568  60.305  1.00  0.00     0.037 A 
HETATM   29  C   UNL     1       5.573  33.210  60.557  1.00  0.00     0.068 A 
HETATM   30  C   UNL     1       4.465  32.910  59.765  1.00  0.00     0.037 A 
HETATM   31  C   UNL     1       4.567  31.988  58.722  1.00  0.00     0.012 A 
BRANCH  29  32
HETATM   32  O   UNL     1       5.336  34.133  61.538  1.00  0.00    -0.356 OA
HETATM   33  C   UNL     1       5.504  33.700  62.882  1.00  0.00     0.210 C 
ENDBRANCH  29  32
ENDBRANCH   1  26
TORSDOF 6
ENDMDL
MODEL 6
REMARK VINA RESULT:      -9.0      4.236      8.421
REMARK  6 active torsions:
REMARK  status: ('A' for Active; 'I' for Inactive)
REMARK    1  A    between atoms: O_2  and  C_3 
REMARK    2  A    between atoms: C_6  and  C_7 
REMARK    3  A    between atoms: C_12  and  C_13 
REMARK       I    between atoms: C_13  and  N_14 
REMARK    4  A    between atoms: N_14  and  C_15 
REMARK    5  A    between atoms: C_15  and  C_16 
REMARK    6  A    between atoms: C_24  and  C_25 
ROOT
HETATM    1  C   UNL     1       7.213  25.947  55.875  1.00  0.00     0.118 C 
HETATM    2  N   UNL     1       6.994  26.420  54.510  1.00  0.00    -0.366 N 
HETATM    3  C   UNL     1       6.000  27.269  54.187  1.00  0.00     0.123 A 
HETATM    4  N   UNL     1       5.215  27.843  55.145  1.00  0.00    -0.240 N 
HETATM    5  N   UNL     1       4.198  28.575  54.661  1.00  0.00    -0.165 NA
HETATM    6  C   UNL     1       4.390  28.526  53.321  1.00  0.00     0.148 A 
HETATM    7  C   UNL     1       5.522  27.729  52.989  1.00  0.00     0.088 A 
HETATM    8  C   UNL     1       5.383  27.592  56.564  1.00  0.00     0.221 C 
HETATM    9  C   UNL     1       5.968  26.184  56.757  1.00  0.00     0.066 C 
HETATM   10  H   UNL     1       7.607  26.021  53.799  1.00  0.00     0.161 HD
ENDROOT
BRANCH   6  11
HETATM   11  C   UNL     1       3.499  29.210  52.374  1.00  0.00     0.272 C 
HETATM   12  N   UNL     1       3.152  28.433  51.296  1.00  0.00    -0.351 N 
HETATM   13  H   UNL     1       3.589  27.517  51.243  1.00  0.00     0.163 HD
HETATM   14  O   UNL     1       3.111  30.362  52.541  1.00  0.00    -0.266 OA
BRANCH  12  15
HETATM   15  C   UNL     1       2.308  28.903  50.230  1.00  0.00     0.161 C 
BRANCH  15  16
HETATM   16  C   UNL     1       2.350  27.989  49.031  1.00  0.00    -0.041 A 
HETATM   17  C   UNL     1       3.460  27.166  48.787  1.00  0.00     0.009 A 
HETATM   18  C   UNL     1       3.476  26.295  47.697  1.00  0.00     0.001 A 
HETATM   19  C   UNL     1       2.373  26.221  46.849  1.00  0.00     0.000 A 
HETATM   20  C   UNL     1       1.255  27.018  47.091  1.00  0.00     0.001 A 
HETATM   21  C   UNL     1       1.242  27.895  48.177  1.00  0.00     0.009 A 
ENDBRANCH  15  16
ENDBRANCH  12  15
ENDBRANCH   6  11
BRANCH   8  22
HETATM   22  C   UNL     1       6.239  28.671  57.184  1.00  0.00     0.409 C 
HETATM   23  F   UNL     1       7.120  28.180  58.083  1.00  0.00    -0.169 F 
HETATM   24  F   UNL     1       6.977  29.280  56.217  1.00  0.00    -0.169 F 
HETATM   25  F   UNL     1       5.528  29.643  57.791  1.00  0.00    -0.169 F 
ENDBRANCH   8  22
BRANCH   1  26
HETATM   26  C   UNL     1       7.570  24.471  55.835  1.00  0.00    -0.035 A 
HETATM   27  C   UNL     1       8.081  23.829  56.972  1.00  0.00     0.012 A 
HETATM   28  C   UNL     1       8.403  22.465  56.941  1.00  0.00     0.037 A 
HETATM   29  C   UNL     1       8.215  21.724  55.774  1.00  0.00     0.068 A 
HETATM   30  C   UNL     1       7.716  22.359  54.637  1.00  0.00     0.037 A 
HETATM   31  C   UNL     1       7.394  23.716  54.664  1.00  0.00     0.012 A 
BRANCH  29  32
HETATM   32  O   UNL     1       8.483  20.393  55.610  1.00  0.00    -0.356 OA
HETATM   33  C   UNL     1       8.750  19.949  54.287  1.00  0.00     0.210 C 
ENDBRANCH  29  32
ENDBRANCH   1  26
TORSDOF 6
ENDMDL
MODEL 7
REMARK VINA RESULT:      -8.8      3.026      3.955
REMARK  6 active torsions:
REMARK  status: ('A' for Active; 'I' for Inactive)
REMARK    1  A    between atoms: O_2  and  C_3 
REMARK    2  A    between atoms: C_6  and  C_7 
REMARK    3  A    between atoms: C_12  and  C_13 
REMARK       I    between atoms: C_13  and  N_14 
REMARK    4  A    between atoms: N_14  and  C_15 
REMARK    5  A    between atoms: C_15  and  C_16 
REMARK    6  A    between atoms: C_24  and  C_25 
ROOT
HETATM    1  C   UNL     1       6.071  26.841  53.948  1.00  0.00     0.118 C 
HETATM    2  N   UNL     1       7.352  27.484  54.231  1.00  0.00    -0.366 N 
HETATM    3  C   UNL     1       7.644  28.023  55.430  1.00  0.00     0.123 A 
HETATM    4  N   UNL     1       6.804  27.882  56.497  1.00  0.00    -0.240 N 
HETATM    5  N   UNL     1       7.177  28.569  57.589  1.00  0.00    -0.165 NA
HETATM    6  C   UNL     1       8.360  29.119  57.222  1.00  0.00     0.148 A 
HETATM    7  C   UNL     1       8.691  28.782  55.879  1.00  0.00     0.088 A 
HETATM    8  C   UNL     1       5.551  27.154  56.430  1.00  0.00     0.221 C 
HETATM    9  C   UNL     1       5.005  27.228  54.995  1.00  0.00     0.066 C 
HETATM   10  H   UNL     1       7.996  27.554  53.444  1.00  0.00     0.161 HD
ENDROOT
BRANCH   6  11
HETATM   11  C   UNL     1       9.149  29.964  58.128  1.00  0.00     0.272 C 
HETATM   12  N   UNL     1       8.610  30.060  59.387  1.00  0.00    -0.351 N 
HETATM   13  H   UNL     1       7.715  29.599  59.530  1.00  0.00     0.163 HD
HETATM   14  O   UNL     1      10.185  30.522  57.782  1.00  0.00    -0.266 OA
BRANCH  12  15
HETATM   15  C   UNL     1       9.198  30.854  60.434  1.00  0.00     0.161 C 
BRANCH  15  16
HETATM   16  C   UNL     1       8.169  31.687  61.157  1.00  0.00    -0.041 A 
HETATM   17  C   UNL     1       8.362  32.075  62.492  1.00  0.00     0.009 A 
HETATM   18  C   UNL     1       7.424  32.878  63.143  1.00  0.00     0.001 A 
HETATM   19  C   UNL     1       6.292  33.318  62.461  1.00  0.00     0.000 A 
HETATM   20  C   UNL     1       6.098  32.956  61.129  1.00  0.00     0.001 A 
HETATM   21  C   UNL     1       7.032  32.148  60.479  1.00  0.00     0.009 A 
ENDBRANCH  15  16
ENDBRANCH  12  15
ENDBRANCH   6  11
BRANCH   8  22
HETATM   22  C   UNL     1       5.751  25.734  56.906  1.00  0.00     0.409 C 
HETATM   23  F   UNL     1       6.792  25.614  57.759  1.00  0.00    -0.169 F 
HETATM   24  F   UNL     1       4.648  25.321  57.587  1.00  0.00    -0.169 F 
HETATM   25  F   UNL     1       5.935  24.849  55.904  1.00  0.00    -0.169 F 
ENDBRANCH   8  22
BRANCH   1  26
HETATM   26  C   UNL     1       5.619  27.233  52.552  1.00  0.00    -0.035 A 
HETATM   27  C   UNL     1       5.454  28.582  52.207  1.00  0.00     0.012 A 
HETATM   28  C   UNL     1       5.047  28.947  50.916  1.00  0.00     0.037 A 
HETATM   29  C   UNL     1       4.802  27.969  49.952  1.00  0.00     0.068 A 
HETATM   30  C   UNL     1       4.955  26.625  50.291  1.00  0.00     0.037 A 
HETATM   31  C   UNL     1       5.361  26.258  51.575  1.00  0.00     0.012 A 
BRANCH  29  32
HETATM   32  O   UNL     1       4.406  28.188  48.662  1.00  0.00    -0.356 OA
HETATM   33  C   UNL     1       5.167  27.559  47.640  1.00  0.00     0.210 C 
ENDBRANCH  29  32
ENDBRANCH   1  26
TORSDOF 6
ENDMDL
MODEL 8
REMARK VINA RESULT:      -8.8      3.335      4.383
REMARK  6 active torsions:
REMARK  status: ('A' for Active; 'I' for Inactive)
REMARK    1  A    between atoms: O_2  and  C_3 
REMARK    2  A    between atoms: C_6  and  C_7 
REMARK    3  A    between atoms: C_12  and  C_13 
REMARK       I    between atoms: C_13  and  N_14 
REMARK    4  A    between atoms: N_14  and  C_15 
REMARK    5  A    between atoms: C_15  and  C_16 
REMARK    6  A    between atoms: C_24  and  C_25 
ROOT
HETATM    1  C   UNL     1       6.417  27.631  53.885  1.00  0.00     0.118 C 
HETATM    2  N   UNL     1       6.203  29.029  54.251  1.00  0.00    -0.366 N 
HETATM    3  C   UNL     1       5.813  29.405  55.484  1.00  0.00     0.123 A 
HETATM    4  N   UNL     1       5.721  28.504  56.506  1.00  0.00    -0.240 N 
HETATM    5  N   UNL     1       5.210  29.008  57.642  1.00  0.00    -0.165 NA
HETATM    6  C   UNL     1       5.037  30.319  57.351  1.00  0.00     0.148 A 
HETATM    7  C   UNL     1       5.421  30.607  56.010  1.00  0.00     0.088 A 
HETATM    8  C   UNL     1       6.031  27.096  56.353  1.00  0.00     0.221 C 
HETATM    9  C   UNL     1       5.753  26.677  54.900  1.00  0.00     0.066 C 
HETATM   10  H   UNL     1       6.311  29.707  53.497  1.00  0.00     0.161 HD
ENDROOT
BRANCH   6  11
HETATM   11  C   UNL     1       4.498  31.276  58.326  1.00  0.00     0.272 C 
HETATM   12  N   UNL     1       5.417  31.666  59.269  1.00  0.00    -0.351 N 
HETATM   13  H   UNL     1       6.326  31.213  59.225  1.00  0.00     0.163 HD
HETATM   14  O   UNL     1       3.340  31.679  58.291  1.00  0.00    -0.266 OA
BRANCH  12  15
HETATM   15  C   UNL     1       5.106  32.578  60.338  1.00  0.00     0.161 C 
BRANCH  15  16
HETATM   16  C   UNL     1       6.151  32.553  61.424  1.00  0.00    -0.041 A 
HETATM   17  C   UNL     1       7.397  31.940  61.217  1.00  0.00     0.009 A 
HETATM   18  C   UNL     1       8.373  31.954  62.214  1.00  0.00     0.001 A 
HETATM   19  C   UNL     1       8.123  32.599  63.423  1.00  0.00     0.000 A 
HETATM   20  C   UNL     1       6.899  33.230  63.635  1.00  0.00     0.001 A 
HETATM   21  C   UNL     1       5.919  33.210  62.641  1.00  0.00     0.009 A 
ENDBRANCH  15  16
ENDBRANCH  12  15
ENDBRANCH   6  11
BRANCH   8  22
HETATM   22  C   UNL     1       7.456  26.829  56.775  1.00  0.00     0.409 C 
HETATM   23  F   UNL     1       8.242  27.923  56.669  1.00  0.00    -0.169 F 
HETATM   24  F   UNL     1       7.484  26.463  58.085  1.00  0.00    -0.169 F 
HETATM   25  F   UNL     1       8.046  25.830  56.086  1.00  0.00    -0.169 F 
ENDBRANCH   8  22
BRANCH   1  26
HETATM   26  C   UNL     1       5.868  27.397  52.488  1.00  0.00    -0.035 A 
HETATM   27  C   UNL     1       5.619  26.096  52.028  1.00  0.00     0.012 A 
HETATM   28  C   UNL     1       5.103  25.877  50.743  1.00  0.00     0.037 A 
HETATM   29  C   UNL     1       4.826  26.956  49.902  1.00  0.00     0.068 A 
HETATM   30  C   UNL     1       5.081  28.251  50.350  1.00  0.00     0.037 A 
HETATM   31  C   UNL     1       5.594  28.473  51.629  1.00  0.00     0.012 A 
BRANCH  29  32
HETATM   32  O   UNL     1       4.320  26.882  48.634  1.00  0.00    -0.356 OA
HETATM   33  C   UNL     1       3.493  25.765  48.336  1.00  0.00     0.210 C 
ENDBRANCH  29  32
ENDBRANCH   1  26
TORSDOF 6
ENDMDL
MODEL 9
REMARK VINA RESULT:      -8.7      1.606      2.392
REMARK  6 active torsions:
REMARK  status: ('A' for Active; 'I' for Inactive)
REMARK    1  A    between atoms: O_2  and  C_3 
REMARK    2  A    between atoms: C_6  and  C_7 
REMARK    3  A    between atoms: C_12  and  C_13 
REMARK       I    between atoms: C_13  and  N_14 
REMARK    4  A    between atoms: N_14  and  C_15 
REMARK    5  A    between atoms: C_15  and  C_16 
REMARK    6  A    between atoms: C_24  and  C_25 
ROOT
HETATM    1  C   UNL     1       6.155  25.722  54.472  1.00  0.00     0.118 C 
HETATM    2  N   UNL     1       6.270  26.090  55.881  1.00  0.00    -0.366 N 
HETATM    3  C   UNL     1       6.549  27.345  56.283  1.00  0.00     0.123 A 
HETATM    4  N   UNL     1       6.609  28.380  55.393  1.00  0.00    -0.240 N 
HETATM    5  N   UNL     1       7.008  29.546  55.929  1.00  0.00    -0.165 NA
HETATM    6  C   UNL     1       7.136  29.256  57.246  1.00  0.00     0.148 A 
HETATM    7  C   UNL     1       6.839  27.888  57.506  1.00  0.00     0.088 A 
HETATM    8  C   UNL     1       6.383  28.217  53.970  1.00  0.00     0.221 C 
HETATM    9  C   UNL     1       6.789  26.793  53.558  1.00  0.00     0.066 C 
HETATM   10  H   UNL     1       6.185  25.324  56.548  1.00  0.00     0.161 HD
ENDROOT
BRANCH   6  11
HETATM   11  C   UNL     1       7.552  30.260  58.234  1.00  0.00     0.272 C 
HETATM   12  N   UNL     1       6.496  30.880  58.856  1.00  0.00    -0.351 N 
HETATM   13  H   UNL     1       5.569  30.626  58.526  1.00  0.00     0.163 HD
HETATM   14  O   UNL     1       8.729  30.510  58.472  1.00  0.00    -0.266 OA
BRANCH  12  15
HETATM   15  C   UNL     1       6.664  31.914  59.842  1.00  0.00     0.161 C 
BRANCH  15  16
HETATM   16  C   UNL     1       5.594  32.972  59.739  1.00  0.00    -0.041 A 
HETATM   17  C   UNL     1       4.945  33.230  58.521  1.00  0.00     0.009 A 
HETATM   18  C   UNL     1       3.930  34.183  58.443  1.00  0.00     0.001 A 
HETATM   19  C   UNL     1       3.536  34.877  59.585  1.00  0.00     0.000 A 
HETATM   20  C   UNL     1       4.157  34.617  60.805  1.00  0.00     0.001 A 
HETATM   21  C   UNL     1       5.178  33.667  60.884  1.00  0.00     0.009 A 
ENDBRANCH  15  16
ENDBRANCH  12  15
ENDBRANCH   6  11
BRANCH   8  22
HETATM   22  C   UNL     1       4.945  28.535  53.634  1.00  0.00     0.409 C 
HETATM   23  F   UNL     1       4.761  29.837  53.324  1.00  0.00    -0.169 F 
HETATM   24  F   UNL     1       4.563  27.823  52.540  1.00  0.00    -0.169 F 
HETATM   25  F   UNL     1       4.078  28.219  54.617  1.00  0.00    -0.169 F 
ENDBRANCH   8  22
BRANCH   1  26
HETATM   26  C   UNL     1       6.818  24.372  54.258  1.00  0.00    -0.035 A 
HETATM   27  C   UNL     1       7.121  23.545  55.348  1.00  0.00     0.012 A 
HETATM   28  C   UNL     1       7.724  22.295  55.153  1.00  0.00     0.037 A 
HETATM   29  C   UNL     1       8.029  21.854  53.866  1.00  0.00     0.068 A 
HETATM   30  C   UNL     1       7.739  22.675  52.778  1.00  0.00     0.037 A 
HETATM   31  C   UNL     1       7.138  23.921  52.968  1.00  0.00     0.012 A 
BRANCH  29  32
HETATM   32  O   UNL     1       8.611  20.661  53.538  1.00  0.00    -0.356 OA
HETATM   33  C   UNL     1       8.964  19.800  54.613  1.00  0.00     0.210 C 
ENDBRANCH  29  32
ENDBRANCH   1  26
TORSDOF 6
ENDMDL
MODEL 10
REMARK VINA RESULT:      -8.7      5.029      8.933
REMARK  6 active torsions:
REMARK  status: ('A' for Active; 'I' for Inactive)
REMARK    1  A    between atoms: O_2  and  C_3 
REMARK    2  A    between atoms: C_6  and  C_7 
REMARK    3  A    between atoms: C_12  and  C_13 
REMARK       I    between atoms: C_13  and  N_14 
REMARK    4  A    between atoms: N_14  and  C_15 
REMARK    5  A    between atoms: C_15  and  C_16 
REMARK    6  A    between atoms: C_24  and  C_25 
ROOT
HETATM    1  C   UNL     1       7.109  25.599  54.159  1.00  0.00     0.118 C 
HETATM    2  N   UNL     1       6.864  26.055  52.793  1.00  0.00    -0.366 N 
HETATM    3  C   UNL     1       5.883  26.925  52.484  1.00  0.00     0.123 A 
HETATM    4  N   UNL     1       5.141  27.535  53.455  1.00  0.00    -0.240 N 
HETATM    5  N   UNL     1       4.130  28.286  52.987  1.00  0.00    -0.165 NA
HETATM    6  C   UNL     1       4.282  28.210  51.643  1.00  0.00     0.148 A 
HETATM    7  C   UNL     1       5.383  27.378  51.293  1.00  0.00     0.088 A 
HETATM    8  C   UNL     1       5.343  27.302  54.872  1.00  0.00     0.221 C 
HETATM    9  C   UNL     1       5.897  25.882  55.072  1.00  0.00     0.066 C 
HETATM   10  H   UNL     1       7.445  25.629  52.072  1.00  0.00     0.161 HD
ENDROOT
BRANCH   6  11
HETATM   11  C   UNL     1       3.383  28.903  50.711  1.00  0.00     0.272 C 
HETATM   12  N   UNL     1       3.965  29.178  49.498  1.00  0.00    -0.351 N 
HETATM   13  H   UNL     1       4.947  28.934  49.405  1.00  0.00     0.163 HD
HETATM   14  O   UNL     1       2.228  29.200  50.999  1.00  0.00    -0.266 OA
BRANCH  12  15
HETATM   15  C   UNL     1       3.281  29.872  48.439  1.00  0.00     0.161 C 
BRANCH  15  16
HETATM   16  C   UNL     1       2.334  28.968  47.690  1.00  0.00    -0.041 A 
HETATM   17  C   UNL     1       2.595  27.595  47.559  1.00  0.00     0.009 A 
HETATM   18  C   UNL     1       1.695  26.758  46.899  1.00  0.00     0.001 A 
HETATM   19  C   UNL     1       0.514  27.280  46.377  1.00  0.00     0.000 A 
HETATM   20  C   UNL     1       0.232  28.638  46.517  1.00  0.00     0.001 A 
HETATM   21  C   UNL     1       1.135  29.477  47.172  1.00  0.00     0.009 A 
ENDBRANCH  15  16
ENDBRANCH  12  15
ENDBRANCH   6  11
BRANCH   8  22
HETATM   22  C   UNL     1       6.245  28.368  55.449  1.00  0.00     0.409 C 
HETATM   23  F   UNL     1       7.202  28.763  54.581  1.00  0.00    -0.169 F 
HETATM   24  F   UNL     1       5.513  29.476  55.744  1.00  0.00    -0.169 F 
HETATM   25  F   UNL     1       6.855  27.997  56.594  1.00  0.00    -0.169 F 
ENDBRANCH   8  22
BRANCH   1  26
HETATM   26  C   UNL     1       7.426  24.113  54.134  1.00  0.00    -0.035 A 
HETATM   27  C   UNL     1       7.662  23.454  52.919  1.00  0.00     0.012 A 
HETATM   28  C   UNL     1       7.965  22.086  52.893  1.00  0.00     0.037 A 
HETATM   29  C   UNL     1       8.038  21.358  54.081  1.00  0.00     0.068 A 
HETATM   30  C   UNL     1       7.795  22.005  55.292  1.00  0.00     0.037 A 
HETATM   31  C   UNL     1       7.494  23.368  55.322  1.00  0.00     0.012 A 
BRANCH  29  32
HETATM   32  O   UNL     1       8.326  20.027  54.196  1.00  0.00    -0.356 OA
HETATM   33  C   UNL     1       8.775  19.573  55.467  1.00  0.00     0.210 C 
ENDBRANCH  29  32
ENDBRANCH   1  26
TORSDOF 6
ENDMDL
