MODEL 1
REMARK VINA RESULT:      -9.0      0.000      0.000
REMARK  5 active torsions:
REMARK  status: ('A' for Active; 'I' for Inactive)
REMARK    1  A    between atoms: C_4  and  O_5 
REMARK    2  A    between atoms: O_5  and  C_6 
REMARK    3  A    between atoms: C_6  and  C_7 
REMARK       I    between atoms: C_7  and  N_8 
REMARK    4  A    between atoms: N_8  and  N_9 
REMARK    5  A    between atoms: C_10  and  C_11 
ROOT
HETATM    1  C   UNL     1       8.441  28.807  57.678  1.00  0.00     0.261 C 
HETATM    2  N   UNL     1       7.629  27.710  57.949  1.00  0.00    -0.246 N 
HETATM    3  O   UNL     1       9.557  28.776  57.163  1.00  0.00    -0.269 OA
HETATM    4  H   UNL     1       6.847  27.865  58.584  1.00  0.00     0.192 HD
ENDROOT
BRANCH   2   5
HETATM    5  N   UNL     1       7.927  26.384  57.737  1.00  0.00    -0.184 NA
HETATM    6  C   UNL     1       7.622  25.844  56.601  1.00  0.00     0.152 C 
BRANCH   6   7
HETATM    7  C   UNL     1       7.949  24.453  56.352  1.00  0.00     0.011 A 
HETATM    8  C   UNL     1       7.897  23.778  55.088  1.00  0.00     0.004 A 
HETATM    9  C   UNL     1       8.271  22.452  55.306  1.00  0.00     0.043 A 
HETATM   10  C   UNL     1       7.575  24.177  53.773  1.00  0.00     0.014 A 
HETATM   11  C   UNL     1       8.330  21.502  54.278  1.00  0.00     0.030 A 
HETATM   12  N   UNL     1       8.543  22.324  56.649  1.00  0.00    -0.364 N 
HETATM   13  C   UNL     1       8.006  21.925  52.985  1.00  0.00     0.002 A 
HETATM   14  C   UNL     1       7.634  23.243  52.733  1.00  0.00     0.001 A 
HETATM   15  H   UNL     1       8.838  21.466  57.094  1.00  0.00     0.165 HD
HETATM   16  C   UNL     1       8.359  23.521  57.286  1.00  0.00     0.102 A 
ENDBRANCH   6   7
ENDBRANCH   2   5
BRANCH   1  17
HETATM   17  C   UNL     1       7.761  30.134  57.996  1.00  0.00     0.280 C 
BRANCH  17  18
HETATM   18  O   UNL     1       8.692  31.094  58.485  1.00  0.00    -0.342 OA
BRANCH  18  19
HETATM   19  C   UNL     1       8.518  31.431  59.803  1.00  0.00     0.069 A 
HETATM   20  C   UNL     1       7.649  32.425  60.263  1.00  0.00     0.043 A 
HETATM   21  C   UNL     1       7.551  32.708  61.633  1.00  0.00    -0.059 A 
HETATM   22  C   UNL     1       6.604  33.761  62.128  1.00  0.00     0.048 C 
HETATM   23  C   UNL     1       8.307  31.957  62.541  1.00  0.00     0.007 A 
HETATM   24  C   UNL     1       9.158  30.949  62.086  1.00  0.00     0.003 A 
HETATM   25  C   UNL     1       9.257  30.684  60.720  1.00  0.00     0.037 A 
ENDBRANCH  18  19
ENDBRANCH  17  18
ENDBRANCH   1  17
TORSDOF 5
ENDMDL
MODEL 2
REMARK VINA RESULT:      -8.9      1.314      1.898
REMARK  5 active torsions:
REMARK  status: ('A' for Active; 'I' for Inactive)
REMARK    1  A    between atoms: C_4  and  O_5 
REMARK    2  A    between atoms: O_5  and  C_6 
REMARK    3  A    between atoms: C_6  and  C_7 
REMARK       I    between atoms: C_7  and  N_8 
REMARK    4  A    between atoms: N_8  and  N_9 
REMARK    5  A    between atoms: C_10  and  C_11 
ROOT
HETATM    1  C   UNL     1       8.267  28.464  57.208  1.00  0.00     0.261 C 
HETATM    2  N   UNL     1       7.354  27.595  56.617  1.00  0.00    -0.246 N 
HETATM    3  O   UNL     1       9.423  28.665  56.840  1.00  0.00    -0.269 OA
HETATM    4  H   UNL     1       6.527  27.359  57.163  1.00  0.00     0.192 HD
ENDROOT
BRANCH   2   5
HETATM    5  N   UNL     1       7.575  26.766  55.542  1.00  0.00    -0.184 NA
HETATM    6  C   UNL     1       7.392  25.492  55.682  1.00  0.00     0.152 C 
BRANCH   6   7
HETATM    7  C   UNL     1       7.600  24.605  54.553  1.00  0.00     0.011 A 
HETATM    8  C   UNL     1       7.722  23.177  54.603  1.00  0.00     0.004 A 
HETATM    9  C   UNL     1       7.932  22.730  53.298  1.00  0.00     0.043 A 
HETATM   10  C   UNL     1       7.663  22.221  55.639  1.00  0.00     0.014 A 
HETATM   11  C   UNL     1       8.095  21.376  52.978  1.00  0.00     0.030 A 
HETATM   12  N   UNL     1       7.935  23.841  52.485  1.00  0.00    -0.364 N 
HETATM   13  C   UNL     1       8.032  20.450  54.024  1.00  0.00     0.002 A 
HETATM   14  C   UNL     1       7.818  20.863  55.336  1.00  0.00     0.001 A 
HETATM   15  H   UNL     1       8.067  23.817  51.484  1.00  0.00     0.165 HD
HETATM   16  C   UNL     1       7.730  24.972  53.228  1.00  0.00     0.102 A 
ENDBRANCH   6   7
ENDBRANCH   2   5
BRANCH   1  17
HETATM   17  C   UNL     1       7.657  29.268  58.351  1.00  0.00     0.280 C 
BRANCH  17  18
HETATM   18  O   UNL     1       8.173  30.595  58.388  1.00  0.00    -0.342 OA
BRANCH  18  19
HETATM   19  C   UNL     1       8.240  31.141  59.646  1.00  0.00     0.069 A 
HETATM   20  C   UNL     1       7.359  32.106  60.142  1.00  0.00     0.043 A 
HETATM   21  C   UNL     1       7.518  32.616  61.439  1.00  0.00    -0.059 A 
HETATM   22  C   UNL     1       6.560  33.637  61.980  1.00  0.00     0.048 C 
HETATM   23  C   UNL     1       8.548  32.120  62.246  1.00  0.00     0.007 A 
HETATM   24  C   UNL     1       9.414  31.140  61.760  1.00  0.00     0.003 A 
HETATM   25  C   UNL     1       9.254  30.648  60.465  1.00  0.00     0.037 A 
ENDBRANCH  18  19
ENDBRANCH  17  18
ENDBRANCH   1  17
TORSDOF 5
ENDMDL
MODEL 3
REMARK VINA RESULT:      -8.8      2.103      9.923
REMARK  5 active torsions:
REMARK  status: ('A' for Active; 'I' for Inactive)
REMARK    1  A    between atoms: C_4  and  O_5 
REMARK    2  A    between atoms: O_5  and  C_6 
REMARK    3  A    between atoms: C_6  and  C_7 
REMARK       I    between atoms: C_7  and  N_8 
REMARK    4  A    between atoms: N_8  and  N_9 
REMARK    5  A    between atoms: C_10  and  C_11 
ROOT
HETATM    1  C   UNL     1       7.255  26.002  57.060  1.00  0.00     0.261 C 
HETATM    2  N   UNL     1       8.002  27.149  57.311  1.00  0.00    -0.246 N 
HETATM    3  O   UNL     1       6.135  25.752  57.502  1.00  0.00    -0.269 OA
HETATM    4  H   UNL     1       8.992  27.112  57.074  1.00  0.00     0.192 HD
ENDROOT
BRANCH   2   5
HETATM    5  N   UNL     1       7.658  28.200  58.129  1.00  0.00    -0.184 NA
HETATM    6  C   UNL     1       7.751  29.409  57.675  1.00  0.00     0.152 C 
BRANCH   6   7
HETATM    7  C   UNL     1       7.372  30.527  58.518  1.00  0.00     0.011 A 
HETATM    8  C   UNL     1       7.986  30.906  59.757  1.00  0.00     0.004 A 
HETATM    9  C   UNL     1       7.299  32.020  60.241  1.00  0.00     0.043 A 
HETATM   10  C   UNL     1       9.072  30.409  60.509  1.00  0.00     0.014 A 
HETATM   11  C   UNL     1       7.636  32.656  61.442  1.00  0.00     0.030 A 
HETATM   12  N   UNL     1       6.308  32.310  59.330  1.00  0.00    -0.364 N 
HETATM   13  C   UNL     1       8.716  32.142  62.167  1.00  0.00     0.002 A 
HETATM   14  C   UNL     1       9.426  31.035  61.709  1.00  0.00     0.001 A 
HETATM   15  H   UNL     1       5.650  33.072  59.424  1.00  0.00     0.165 HD
HETATM   16  C   UNL     1       6.346  31.424  58.289  1.00  0.00     0.102 A 
ENDBRANCH   6   7
ENDBRANCH   2   5
BRANCH   1  17
HETATM   17  C   UNL     1       7.927  25.072  56.057  1.00  0.00     0.280 C 
BRANCH  17  18
HETATM   18  O   UNL     1       7.009  24.116  55.534  1.00  0.00    -0.342 OA
BRANCH  18  19
HETATM   19  C   UNL     1       7.535  22.861  55.362  1.00  0.00     0.069 A 
HETATM   20  C   UNL     1       7.700  22.229  54.125  1.00  0.00     0.043 A 
HETATM   21  C   UNL     1       8.235  20.935  54.052  1.00  0.00    -0.059 A 
HETATM   22  C   UNL     1       8.432  20.266  52.724  1.00  0.00     0.048 C 
HETATM   23  C   UNL     1       8.636  20.294  55.230  1.00  0.00     0.007 A 
HETATM   24  C   UNL     1       8.493  20.932  56.463  1.00  0.00     0.003 A 
HETATM   25  C   UNL     1       7.949  22.215  56.526  1.00  0.00     0.037 A 
ENDBRANCH  18  19
ENDBRANCH  17  18
ENDBRANCH   1  17
TORSDOF 5
ENDMDL
MODEL 4
REMARK VINA RESULT:      -8.7      2.075      9.945
REMARK  5 active torsions:
REMARK  status: ('A' for Active; 'I' for Inactive)
REMARK    1  A    between atoms: C_4  and  O_5 
REMARK    2  A    between atoms: O_5  and  C_6 
REMARK    3  A    between atoms: C_6  and  C_7 
REMARK       I    between atoms: C_7  and  N_8 
REMARK    4  A    between atoms: N_8  and  N_9 
REMARK    5  A    between atoms: C_10  and  C_11 
ROOT
HETATM    1  C   UNL     1       7.844  26.957  57.205  1.00  0.00     0.261 C 
HETATM    2  N   UNL     1       8.124  28.309  57.377  1.00  0.00    -0.246 N 
HETATM    3  O   UNL     1       7.737  26.117  58.097  1.00  0.00    -0.269 OA
HETATM    4  H   UNL     1       8.413  28.825  56.548  1.00  0.00     0.192 HD
ENDROOT
BRANCH   2   5
HETATM    5  N   UNL     1       8.378  28.959  58.562  1.00  0.00    -0.184 NA
HETATM    6  C   UNL     1       7.838  30.117  58.774  1.00  0.00     0.152 C 
BRANCH   6   7
HETATM    7  C   UNL     1       8.078  30.806  60.027  1.00  0.00     0.011 A 
HETATM    8  C   UNL     1       7.251  31.821  60.613  1.00  0.00     0.004 A 
HETATM    9  C   UNL     1       7.862  32.223  61.801  1.00  0.00     0.043 A 
HETATM   10  C   UNL     1       6.032  32.429  60.245  1.00  0.00     0.014 A 
HETATM   11  C   UNL     1       7.320  33.208  62.636  1.00  0.00     0.030 A 
HETATM   12  N   UNL     1       9.013  31.480  61.936  1.00  0.00    -0.364 N 
HETATM   13  C   UNL     1       6.111  33.794  62.248  1.00  0.00     0.002 A 
HETATM   14  C   UNL     1       5.473  33.411  61.071  1.00  0.00     0.001 A 
HETATM   15  H   UNL     1       9.659  31.562  62.709  1.00  0.00     0.165 HD
HETATM   16  C   UNL     1       9.150  30.622  60.879  1.00  0.00     0.102 A 
ENDBRANCH   6   7
ENDBRANCH   2   5
BRANCH   1  17
HETATM   17  C   UNL     1       7.564  26.595  55.751  1.00  0.00     0.280 C 
BRANCH  17  18
HETATM   18  O   UNL     1       6.649  25.508  55.650  1.00  0.00    -0.342 OA
BRANCH  18  19
HETATM   19  C   UNL     1       7.113  24.445  54.917  1.00  0.00     0.069 A 
HETATM   20  C   UNL     1       7.276  23.147  55.413  1.00  0.00     0.043 A 
HETATM   21  C   UNL     1       7.772  22.127  54.588  1.00  0.00    -0.059 A 
HETATM   22  C   UNL     1       7.927  20.730  55.114  1.00  0.00     0.048 C 
HETATM   23  C   UNL     1       8.069  22.413  53.251  1.00  0.00     0.007 A 
HETATM   24  C   UNL     1       7.886  23.703  52.749  1.00  0.00     0.003 A 
HETATM   25  C   UNL     1       7.402  24.713  53.580  1.00  0.00     0.037 A 
ENDBRANCH  18  19
ENDBRANCH  17  18
ENDBRANCH   1  17
TORSDOF 5
ENDMDL
MODEL 5
REMARK VINA RESULT:      -8.7      6.056      9.620
REMARK  5 active torsions:
REMARK  status: ('A' for Active; 'I' for Inactive)
REMARK    1  A    between atoms: C_4  and  O_5 
REMARK    2  A    between atoms: O_5  and  C_6 
REMARK    3  A    between atoms: C_6  and  C_7 
REMARK       I    between atoms: C_7  and  N_8 
REMARK    4  A    between atoms: N_8  and  N_9 
REMARK    5  A    between atoms: C_10  and  C_11 
ROOT
HETATM    1  C   UNL     1       5.335  27.186  51.438  1.00  0.00     0.261 C 
HETATM    2  N   UNL     1       6.084  26.015  51.368  1.00  0.00    -0.246 N 
HETATM    3  O   UNL     1       4.792  27.644  52.441  1.00  0.00    -0.269 OA
HETATM    4  H   UNL     1       6.269  25.644  50.438  1.00  0.00     0.192 HD
ENDROOT
BRANCH   2   5
HETATM    5  N   UNL     1       6.326  25.124  52.388  1.00  0.00    -0.184 NA
HETATM    6  C   UNL     1       7.397  25.260  53.102  1.00  0.00     0.152 C 
BRANCH   6   7
HETATM    7  C   UNL     1       7.657  24.342  54.195  1.00  0.00     0.011 A 
HETATM    8  C   UNL     1       7.868  22.928  54.087  1.00  0.00     0.004 A 
HETATM    9  C   UNL     1       8.061  22.435  55.378  1.00  0.00     0.043 A 
HETATM   10  C   UNL     1       7.923  22.022  53.007  1.00  0.00     0.014 A 
HETATM   11  C   UNL     1       8.296  21.080  55.645  1.00  0.00     0.030 A 
HETATM   12  N   UNL     1       7.974  23.507  56.238  1.00  0.00    -0.364 N 
HETATM   13  C   UNL     1       8.345  20.204  54.556  1.00  0.00     0.002 A 
HETATM   14  C   UNL     1       8.163  20.665  53.255  1.00  0.00     0.001 A 
HETATM   15  H   UNL     1       8.073  23.444  57.241  1.00  0.00     0.165 HD
HETATM   16  C   UNL     1       7.738  24.658  55.537  1.00  0.00     0.102 A 
ENDBRANCH   6   7
ENDBRANCH   2   5
BRANCH   1  17
HETATM   17  C   UNL     1       5.323  27.954  50.121  1.00  0.00     0.280 C 
BRANCH  17  18
HETATM   18  O   UNL     1       4.017  28.423  49.802  1.00  0.00    -0.342 OA
BRANCH  18  19
HETATM   19  C   UNL     1       3.360  27.671  48.860  1.00  0.00     0.069 A 
HETATM   20  C   UNL     1       2.120  27.999  48.303  1.00  0.00     0.043 A 
HETATM   21  C   UNL     1       1.520  27.157  47.355  1.00  0.00    -0.059 A 
HETATM   22  C   UNL     1       0.200  27.519  46.742  1.00  0.00     0.048 C 
HETATM   23  C   UNL     1       2.193  26.000  46.945  1.00  0.00     0.007 A 
HETATM   24  C   UNL     1       3.441  25.684  47.484  1.00  0.00     0.003 A 
HETATM   25  C   UNL     1       4.024  26.522  48.434  1.00  0.00     0.037 A 
ENDBRANCH  18  19
ENDBRANCH  17  18
ENDBRANCH   1  17
TORSDOF 5
ENDMDL
MODEL 6
REMARK VINA RESULT:      -8.6      2.247      3.632
REMARK  5 active torsions:
REMARK  status: ('A' for Active; 'I' for Inactive)
REMARK    1  A    between atoms: C_4  and  O_5 
REMARK    2  A    between atoms: O_5  and  C_6 
REMARK    3  A    between atoms: C_6  and  C_7 
REMARK       I    between atoms: C_7  and  N_8 
REMARK    4  A    between atoms: N_8  and  N_9 
REMARK    5  A    between atoms: C_10  and  C_11 
ROOT
HETATM    1  C   UNL     1       5.972  28.095  55.606  1.00  0.00     0.261 C 
HETATM    2  N   UNL     1       6.098  26.820  56.148  1.00  0.00    -0.246 N 
HETATM    3  O   UNL     1       5.917  28.375  54.410  1.00  0.00    -0.269 OA
HETATM    4  H   UNL     1       6.367  26.764  57.129  1.00  0.00     0.192 HD
ENDROOT
BRANCH   2   5
HETATM    5  N   UNL     1       6.227  25.636  55.461  1.00  0.00    -0.184 NA
HETATM    6  C   UNL     1       7.411  25.200  55.173  1.00  0.00     0.152 C 
BRANCH   6   7
HETATM    7  C   UNL     1       7.566  23.942  54.468  1.00  0.00     0.011 A 
HETATM    8  C   UNL     1       7.913  22.677  55.047  1.00  0.00     0.004 A 
HETATM    9  C   UNL     1       7.973  21.745  54.010  1.00  0.00     0.043 A 
HETATM   10  C   UNL     1       8.174  22.236  56.362  1.00  0.00     0.014 A 
HETATM   11  C   UNL     1       8.289  20.397  54.221  1.00  0.00     0.030 A 
HETATM   12  N   UNL     1       7.671  22.414  52.847  1.00  0.00    -0.364 N 
HETATM   13  C   UNL     1       8.542  19.987  55.534  1.00  0.00     0.002 A 
HETATM   14  C   UNL     1       8.485  20.892  56.592  1.00  0.00     0.001 A 
HETATM   15  H   UNL     1       7.639  21.986  51.932  1.00  0.00     0.165 HD
HETATM   16  C   UNL     1       7.418  23.733  53.110  1.00  0.00     0.102 A 
ENDBRANCH   6   7
ENDBRANCH   2   5
BRANCH   1  17
HETATM   17  C   UNL     1       5.799  29.172  56.671  1.00  0.00     0.280 C 
BRANCH  17  18
HETATM   18  O   UNL     1       6.530  28.859  57.853  1.00  0.00    -0.342 OA
BRANCH  18  19
HETATM   19  C   UNL     1       7.662  29.614  58.034  1.00  0.00     0.069 A 
HETATM   20  C   UNL     1       8.918  29.306  57.504  1.00  0.00     0.043 A 
HETATM   21  C   UNL     1      10.021  30.133  57.758  1.00  0.00    -0.059 A 
HETATM   22  C   UNL     1      11.365  29.814  57.171  1.00  0.00     0.048 C 
HETATM   23  C   UNL     1       9.844  31.293  58.520  1.00  0.00     0.007 A 
HETATM   24  C   UNL     1       8.586  31.614  59.032  1.00  0.00     0.003 A 
HETATM   25  C   UNL     1       7.497  30.779  58.783  1.00  0.00     0.037 A 
ENDBRANCH  18  19
ENDBRANCH  17  18
ENDBRANCH   1  17
TORSDOF 5
ENDMDL
MODEL 7
REMARK VINA RESULT:      -8.6      2.132      9.751
REMARK  5 active torsions:
REMARK  status: ('A' for Active; 'I' for Inactive)
REMARK    1  A    between atoms: C_4  and  O_5 
REMARK    2  A    between atoms: O_5  and  C_6 
REMARK    3  A    between atoms: C_6  and  C_7 
REMARK       I    between atoms: C_7  and  N_8 
REMARK    4  A    between atoms: N_8  and  N_9 
REMARK    5  A    between atoms: C_10  and  C_11 
ROOT
HETATM    1  C   UNL     1       6.685  27.437  55.319  1.00  0.00     0.261 C 
HETATM    2  N   UNL     1       7.020  27.535  56.666  1.00  0.00    -0.246 N 
HETATM    3  O   UNL     1       6.089  28.283  54.654  1.00  0.00    -0.269 OA
HETATM    4  H   UNL     1       7.296  26.672  57.133  1.00  0.00     0.192 HD
ENDROOT
BRANCH   2   5
HETATM    5  N   UNL     1       6.716  28.566  57.523  1.00  0.00    -0.184 NA
HETATM    6  C   UNL     1       7.509  29.588  57.585  1.00  0.00     0.152 C 
BRANCH   6   7
HETATM    7  C   UNL     1       7.192  30.695  58.468  1.00  0.00     0.011 A 
HETATM    8  C   UNL     1       7.850  31.016  59.701  1.00  0.00     0.004 A 
HETATM    9  C   UNL     1       7.216  32.139  60.233  1.00  0.00     0.043 A 
HETATM   10  C   UNL     1       8.936  30.459  60.410  1.00  0.00     0.014 A 
HETATM   11  C   UNL     1       7.606  32.728  61.442  1.00  0.00     0.030 A 
HETATM   12  N   UNL     1       6.213  32.490  59.357  1.00  0.00    -0.364 N 
HETATM   13  C   UNL     1       8.684  32.156  62.124  1.00  0.00     0.002 A 
HETATM   14  C   UNL     1       9.342  31.038  61.617  1.00  0.00     0.001 A 
HETATM   15  H   UNL     1       5.587  33.272  59.488  1.00  0.00     0.165 HD
HETATM   16  C   UNL     1       6.194  31.633  58.290  1.00  0.00     0.102 A 
ENDBRANCH   6   7
ENDBRANCH   2   5
BRANCH   1  17
HETATM   17  C   UNL     1       7.233  26.172  54.668  1.00  0.00     0.280 C 
BRANCH  17  18
HETATM   18  O   UNL     1       6.459  25.028  55.018  1.00  0.00    -0.342 OA
BRANCH  18  19
HETATM   19  C   UNL     1       7.034  23.830  54.676  1.00  0.00     0.069 A 
HETATM   20  C   UNL     1       7.332  22.803  55.577  1.00  0.00     0.043 A 
HETATM   21  C   UNL     1       7.934  21.618  55.133  1.00  0.00    -0.059 A 
HETATM   22  C   UNL     1       8.234  20.507  56.096  1.00  0.00     0.048 C 
HETATM   23  C   UNL     1       8.203  21.457  53.768  1.00  0.00     0.007 A 
HETATM   24  C   UNL     1       7.886  22.472  52.864  1.00  0.00     0.003 A 
HETATM   25  C   UNL     1       7.297  23.652  53.318  1.00  0.00     0.037 A 
ENDBRANCH  18  19
ENDBRANCH  17  18
ENDBRANCH   1  17
TORSDOF 5
ENDMDL
MODEL 8
REMARK VINA RESULT:      -8.4      6.259      9.772
REMARK  5 active torsions:
REMARK  status: ('A' for Active; 'I' for Inactive)
REMARK    1  A    between atoms: C_4  and  O_5 
REMARK    2  A    between atoms: O_5  and  C_6 
REMARK    3  A    between atoms: C_6  and  C_7 
REMARK       I    between atoms: C_7  and  N_8 
REMARK    4  A    between atoms: N_8  and  N_9 
REMARK    5  A    between atoms: C_10  and  C_11 
ROOT
HETATM    1  C   UNL     1       5.823  25.676  53.753  1.00  0.00     0.261 C 
HETATM    2  N   UNL     1       5.921  26.879  53.060  1.00  0.00    -0.246 N 
HETATM    3  O   UNL     1       4.926  24.843  53.639  1.00  0.00    -0.269 OA
HETATM    4  H   UNL     1       6.580  27.565  53.426  1.00  0.00     0.192 HD
ENDROOT
BRANCH   2   5
HETATM    5  N   UNL     1       5.022  27.390  52.153  1.00  0.00    -0.184 NA
HETATM    6  C   UNL     1       5.350  27.441  50.902  1.00  0.00     0.152 C 
BRANCH   6   7
HETATM    7  C   UNL     1       4.405  27.957  49.929  1.00  0.00     0.011 A 
HETATM    8  C   UNL     1       3.715  27.198  48.927  1.00  0.00     0.004 A 
HETATM    9  C   UNL     1       2.926  28.089  48.199  1.00  0.00     0.043 A 
HETATM   10  C   UNL     1       3.681  25.831  48.578  1.00  0.00     0.014 A 
HETATM   11  C   UNL     1       2.112  27.684  47.134  1.00  0.00     0.030 A 
HETATM   12  N   UNL     1       3.125  29.340  48.738  1.00  0.00    -0.364 N 
HETATM   13  C   UNL     1       2.097  26.324  46.810  1.00  0.00     0.002 A 
HETATM   14  C   UNL     1       2.869  25.408  47.521  1.00  0.00     0.001 A 
HETATM   15  H   UNL     1       2.679  30.183  48.406  1.00  0.00     0.165 HD
HETATM   16  C   UNL     1       4.007  29.271  49.782  1.00  0.00     0.102 A 
ENDBRANCH   6   7
ENDBRANCH   2   5
BRANCH   1  17
HETATM   17  C   UNL     1       7.033  25.408  54.640  1.00  0.00     0.280 C 
BRANCH  17  18
HETATM   18  O   UNL     1       8.067  24.738  53.925  1.00  0.00    -0.342 OA
BRANCH  18  19
HETATM   19  C   UNL     1       8.072  23.375  54.084  1.00  0.00     0.069 A 
HETATM   20  C   UNL     1       8.192  22.717  55.313  1.00  0.00     0.043 A 
HETATM   21  C   UNL     1       8.202  21.317  55.373  1.00  0.00    -0.059 A 
HETATM   22  C   UNL     1       8.309  20.611  56.693  1.00  0.00     0.048 C 
HETATM   23  C   UNL     1       8.056  20.581  54.191  1.00  0.00     0.007 A 
HETATM   24  C   UNL     1       7.914  21.236  52.967  1.00  0.00     0.003 A 
HETATM   25  C   UNL     1       7.916  22.630  52.917  1.00  0.00     0.037 A 
ENDBRANCH  18  19
ENDBRANCH  17  18
ENDBRANCH   1  17
TORSDOF 5
ENDMDL
MODEL 9
REMARK VINA RESULT:      -8.3      1.394      2.167
REMARK  5 active torsions:
REMARK  status: ('A' for Active; 'I' for Inactive)
REMARK    1  A    between atoms: C_4  and  O_5 
REMARK    2  A    between atoms: O_5  and  C_6 
REMARK    3  A    between atoms: C_6  and  C_7 
REMARK       I    between atoms: C_7  and  N_8 
REMARK    4  A    between atoms: N_8  and  N_9 
REMARK    5  A    between atoms: C_10  and  C_11 
ROOT
HETATM    1  C   UNL     1       7.124  27.295  56.717  1.00  0.00     0.261 C 
HETATM    2  N   UNL     1       7.850  26.427  57.528  1.00  0.00    -0.246 N 
HETATM    3  O   UNL     1       6.731  27.066  55.575  1.00  0.00    -0.269 OA
HETATM    4  H   UNL     1       8.304  26.835  58.344  1.00  0.00     0.192 HD
ENDROOT
BRANCH   2   5
HETATM    5  N   UNL     1       8.305  25.171  57.200  1.00  0.00    -0.184 NA
HETATM    6  C   UNL     1       7.445  24.238  56.940  1.00  0.00     0.152 C 
BRANCH   6   7
HETATM    7  C   UNL     1       7.907  22.914  56.571  1.00  0.00     0.011 A 
HETATM    8  C   UNL     1       7.969  22.372  55.245  1.00  0.00     0.004 A 
HETATM    9  C   UNL     1       8.452  21.066  55.350  1.00  0.00     0.043 A 
HETATM   10  C   UNL     1       7.668  22.875  53.962  1.00  0.00     0.014 A 
HETATM   11  C   UNL     1       8.640  20.237  54.237  1.00  0.00     0.030 A 
HETATM   12  N   UNL     1       8.678  20.825  56.686  1.00  0.00    -0.364 N 
HETATM   13  C   UNL     1       8.333  20.762  52.978  1.00  0.00     0.002 A 
HETATM   14  C   UNL     1       7.855  22.062  52.839  1.00  0.00     0.001 A 
HETATM   15  H   UNL     1       9.031  19.954  57.058  1.00  0.00     0.165 HD
HETATM   16  C   UNL     1       8.360  21.929  57.428  1.00  0.00     0.102 A 
ENDBRANCH   6   7
ENDBRANCH   2   5
BRANCH   1  17
HETATM   17  C   UNL     1       6.747  28.588  57.432  1.00  0.00     0.280 C 
BRANCH  17  18
HETATM   18  O   UNL     1       7.863  29.464  57.550  1.00  0.00    -0.342 OA
BRANCH  18  19
HETATM   19  C   UNL     1       7.747  30.397  58.550  1.00  0.00     0.069 A 
HETATM   20  C   UNL     1       8.629  30.523  59.628  1.00  0.00     0.043 A 
HETATM   21  C   UNL     1       8.418  31.501  60.610  1.00  0.00    -0.059 A 
HETATM   22  C   UNL     1       9.376  31.650  61.756  1.00  0.00     0.048 C 
HETATM   23  C   UNL     1       7.332  32.375  60.483  1.00  0.00     0.007 A 
HETATM   24  C   UNL     1       6.464  32.264  59.396  1.00  0.00     0.003 A 
HETATM   25  C   UNL     1       6.676  31.281  58.429  1.00  0.00     0.037 A 
ENDBRANCH  18  19
ENDBRANCH  17  18
ENDBRANCH   1  17
TORSDOF 5
ENDMDL
MODEL 10
REMARK VINA RESULT:      -8.2      7.492     10.741
REMARK  5 active torsions:
REMARK  status: ('A' for Active; 'I' for Inactive)
REMARK    1  A    between atoms: C_4  and  O_5 
REMARK    2  A    between atoms: O_5  and  C_6 
REMARK    3  A    between atoms: C_6  and  C_7 
REMARK       I    between atoms: C_7  and  N_8 
REMARK    4  A    between atoms: N_8  and  N_9 
REMARK    5  A    between atoms: C_10  and  C_11 
ROOT
HETATM    1  C   UNL     1       5.831  25.460  51.955  1.00  0.00     0.261 C 
HETATM    2  N   UNL     1       5.952  26.262  50.824  1.00  0.00    -0.246 N 
HETATM    3  O   UNL     1       4.782  25.140  52.511  1.00  0.00    -0.269 OA
HETATM    4  H   UNL     1       6.880  26.630  50.621  1.00  0.00     0.192 HD
ENDROOT
BRANCH   2   5
HETATM    5  N   UNL     1       4.937  26.884  50.136  1.00  0.00    -0.184 NA
HETATM    6  C   UNL     1       4.560  26.401  48.995  1.00  0.00     0.152 C 
BRANCH   6   7
HETATM    7  C   UNL     1       3.476  27.032  48.267  1.00  0.00     0.011 A 
HETATM    8  C   UNL     1       3.477  28.356  47.717  1.00  0.00     0.004 A 
HETATM    9  C   UNL     1       2.232  28.562  47.121  1.00  0.00     0.043 A 
HETATM   10  C   UNL     1       4.428  29.398  47.662  1.00  0.00     0.014 A 
HETATM   11  C   UNL     1       1.888  29.760  46.481  1.00  0.00     0.030 A 
HETATM   12  N   UNL     1       1.504  27.408  47.298  1.00  0.00    -0.364 N 
HETATM   13  C   UNL     1       2.849  30.774  46.442  1.00  0.00     0.002 A 
HETATM   14  C   UNL     1       4.103  30.598  47.022  1.00  0.00     0.001 A 
HETATM   15  H   UNL     1       0.558  27.273  46.968  1.00  0.00     0.165 HD
HETATM   16  C   UNL     1       2.243  26.480  47.980  1.00  0.00     0.102 A 
ENDBRANCH   6   7
ENDBRANCH   2   5
BRANCH   1  17
HETATM   17  C   UNL     1       7.169  24.895  52.420  1.00  0.00     0.280 C 
BRANCH  17  18
HETATM   18  O   UNL     1       7.117  24.485  53.783  1.00  0.00    -0.342 OA
BRANCH  18  19
HETATM   19  C   UNL     1       7.506  23.187  53.999  1.00  0.00     0.069 A 
HETATM   20  C   UNL     1       7.606  22.585  55.257  1.00  0.00     0.043 A 
HETATM   21  C   UNL     1       8.028  21.254  55.378  1.00  0.00    -0.059 A 
HETATM   22  C   UNL     1       8.115  20.601  56.727  1.00  0.00     0.048 C 
HETATM   23  C   UNL     1       8.314  20.520  54.221  1.00  0.00     0.007 A 
HETATM   24  C   UNL     1       8.193  21.113  52.964  1.00  0.00     0.003 A 
HETATM   25  C   UNL     1       7.783  22.441  52.855  1.00  0.00     0.037 A 
ENDBRANCH  18  19
ENDBRANCH  17  18
ENDBRANCH   1  17
TORSDOF 5
ENDMDL
