MODEL 1
REMARK VINA RESULT:      -9.7      0.000      0.000
REMARK  6 active torsions:
REMARK  status: ('A' for Active; 'I' for Inactive)
REMARK    1  A    between atoms: C_2  and  C_3 
REMARK       I    between atoms: C_3  and  N_4 
REMARK    2  A    between atoms: N_4  and  C_5 
REMARK    3  A    between atoms: C_5  and  C_6 
REMARK    4  A    between atoms: N_8  and  C_10 
REMARK    5  A    between atoms: C_10  and  C_11 
REMARK    6  A    between atoms: C_12  and  C_13 
ROOT
HETATM    1  C   UNL     1       8.275  28.594  57.988  1.00  0.00     0.029 C 
HETATM    2  C   UNL     1       7.374  27.425  57.576  1.00  0.00     0.241 C 
HETATM    3  N   UNL     1       6.667  27.687  56.267  1.00  0.00    -0.067 N 
HETATM    4  H   UNL     1       6.023  28.485  56.443  1.00  0.00     0.280 HD
HETATM    5  C   UNL     1       7.615  28.015  55.148  1.00  0.00     0.235 C 
HETATM    6  C   UNL     1       8.598  29.113  55.531  1.00  0.00     0.028 C 
HETATM    7  C   UNL     1       9.289  28.853  56.866  1.00  0.00     0.009 C 
ENDROOT
BRANCH   3   8
HETATM    8  C   UNL     1       5.726  26.530  55.949  1.00  0.00     0.277 C 
BRANCH   8   9
HETATM    9  C   UNL     1       5.505  26.225  54.508  1.00  0.00     0.016 A 
HETATM   10  C   UNL     1       6.090  25.195  53.701  1.00  0.00     0.096 A 
HETATM   11  N   UNL     1       5.595  25.226  52.457  1.00  0.00    -0.174 NA
HETATM   12  N   UNL     1       4.807  26.301  52.418  1.00  0.00    -0.288 N 
HETATM   13  H   UNL     1       4.363  26.539  51.534  1.00  0.00     0.188 HD
HETATM   14  C   UNL     1       4.719  26.939  53.617  1.00  0.00     0.120 A 
BRANCH  10  15
HETATM   15  C   UNL     1       7.105  24.198  54.040  1.00  0.00    -0.003 A 
HETATM   16  C   UNL     1       7.221  23.013  53.304  1.00  0.00     0.037 A 
HETATM   17  C   UNL     1       8.157  22.048  53.681  1.00  0.00     0.035 A 
HETATM   18 CL   UNL     1       8.306  20.609  52.747  1.00  0.00    -0.084 Cl
HETATM   19  C   UNL     1       8.969  22.238  54.795  1.00  0.00     0.024 A 
HETATM   20  C   UNL     1       8.847  23.408  55.544  1.00  0.00     0.003 A 
HETATM   21  C   UNL     1       7.919  24.382  55.168  1.00  0.00     0.014 A 
ENDBRANCH  10  15
ENDBRANCH   8   9
ENDBRANCH   3   8
BRANCH   1  22
HETATM   22  C   UNL     1       7.551  29.903  58.360  1.00  0.00     0.128 C 
BRANCH  22  23
HETATM   23  N   UNL     1       7.835  30.389  59.690  1.00  0.00    -0.360 N 
HETATM   24  C   UNL     1       8.688  31.457  59.886  1.00  0.00     0.221 C 
HETATM   25  O   UNL     1       9.039  32.171  58.946  1.00  0.00    -0.273 OA
HETATM   26  H   UNL     1       7.704  29.743  60.466  1.00  0.00     0.162 HD
BRANCH  24  27
HETATM   27  C   UNL     1       9.100  31.669  61.340  1.00  0.00     0.070 C 
HETATM   28  C   UNL     1       9.448  30.336  62.000  1.00  0.00     0.019 C 
HETATM   29  C   UNL     1       8.001  32.380  62.121  1.00  0.00     0.019 C 
ENDBRANCH  24  27
ENDBRANCH  22  23
ENDBRANCH   1  22
TORSDOF 6
ENDMDL
MODEL 2
REMARK VINA RESULT:      -9.5      1.126      1.399
REMARK  6 active torsions:
REMARK  status: ('A' for Active; 'I' for Inactive)
REMARK    1  A    between atoms: C_2  and  C_3 
REMARK       I    between atoms: C_3  and  N_4 
REMARK    2  A    between atoms: N_4  and  C_5 
REMARK    3  A    between atoms: C_5  and  C_6 
REMARK    4  A    between atoms: N_8  and  C_10 
REMARK    5  A    between atoms: C_10  and  C_11 
REMARK    6  A    between atoms: C_12  and  C_13 
ROOT
HETATM    1  C   UNL     1       8.298  29.160  58.122  1.00  0.00     0.029 C 
HETATM    2  C   UNL     1       7.542  27.852  57.874  1.00  0.00     0.241 C 
HETATM    3  N   UNL     1       6.975  27.779  56.476  1.00  0.00    -0.067 N 
HETATM    4  H   UNL     1       6.256  28.531  56.418  1.00  0.00     0.280 HD
HETATM    5  C   UNL     1       8.019  27.970  55.413  1.00  0.00     0.235 C 
HETATM    6  C   UNL     1       8.866  29.213  55.655  1.00  0.00     0.028 C 
HETATM    7  C   UNL     1       9.415  29.290  57.077  1.00  0.00     0.009 C 
ENDROOT
BRANCH   3   8
HETATM    8  C   UNL     1       6.166  26.497  56.312  1.00  0.00     0.277 C 
BRANCH   8   9
HETATM    9  C   UNL     1       5.509  26.284  54.993  1.00  0.00     0.016 A 
HETATM   10  C   UNL     1       5.703  25.226  54.046  1.00  0.00     0.096 A 
HETATM   11  N   UNL     1       4.885  25.373  52.995  1.00  0.00    -0.174 NA
HETATM   12  N   UNL     1       4.265  26.537  53.190  1.00  0.00    -0.288 N 
HETATM   13  H   UNL     1       3.625  26.867  52.471  1.00  0.00     0.188 HD
HETATM   14  C   UNL     1       4.604  27.129  54.369  1.00  0.00     0.120 A 
BRANCH  10  15
HETATM   15  C   UNL     1       6.633  24.098  54.074  1.00  0.00    -0.003 A 
HETATM   16  C   UNL     1       6.994  23.495  55.285  1.00  0.00     0.037 A 
HETATM   17  C   UNL     1       7.928  22.458  55.295  1.00  0.00     0.035 A 
HETATM   18 CL   UNL     1       8.338  21.709  56.790  1.00  0.00    -0.084 Cl
HETATM   19  C   UNL     1       8.525  22.024  54.115  1.00  0.00     0.024 A 
HETATM   20  C   UNL     1       8.185  22.631  52.908  1.00  0.00     0.003 A 
HETATM   21  C   UNL     1       7.244  23.663  52.888  1.00  0.00     0.014 A 
ENDBRANCH  10  15
ENDBRANCH   8   9
ENDBRANCH   3   8
BRANCH   1  22
HETATM   22  C   UNL     1       7.440  30.440  58.141  1.00  0.00     0.128 C 
BRANCH  22  23
HETATM   23  N   UNL     1       7.294  31.045  59.445  1.00  0.00    -0.360 N 
HETATM   24  C   UNL     1       8.225  31.952  59.914  1.00  0.00     0.221 C 
HETATM   25  O   UNL     1       9.062  32.449  59.160  1.00  0.00    -0.273 OA
HETATM   26  H   UNL     1       6.732  30.550  60.135  1.00  0.00     0.162 HD
BRANCH  24  27
HETATM   27  C   UNL     1       8.083  32.282  61.397  1.00  0.00     0.070 C 
HETATM   28  C   UNL     1       8.593  31.128  62.257  1.00  0.00     0.019 C 
HETATM   29  C   UNL     1       6.636  32.610  61.747  1.00  0.00     0.019 C 
ENDBRANCH  24  27
ENDBRANCH  22  23
ENDBRANCH   1  22
TORSDOF 6
ENDMDL
MODEL 3
REMARK VINA RESULT:      -9.3      4.052      9.100
REMARK  6 active torsions:
REMARK  status: ('A' for Active; 'I' for Inactive)
REMARK    1  A    between atoms: C_2  and  C_3 
REMARK       I    between atoms: C_3  and  N_4 
REMARK    2  A    between atoms: N_4  and  C_5 
REMARK    3  A    between atoms: C_5  and  C_6 
REMARK    4  A    between atoms: N_8  and  C_10 
REMARK    5  A    between atoms: C_10  and  C_11 
REMARK    6  A    between atoms: C_12  and  C_13 
ROOT
HETATM    1  C   UNL     1       6.797  24.946  56.396  1.00  0.00     0.029 C 
HETATM    2  C   UNL     1       7.004  26.070  57.416  1.00  0.00     0.241 C 
HETATM    3  N   UNL     1       7.422  27.364  56.759  1.00  0.00    -0.067 N 
HETATM    4  H   UNL     1       8.362  27.187  56.347  1.00  0.00     0.280 HD
HETATM    5  C   UNL     1       6.461  27.815  55.696  1.00  0.00     0.235 C 
HETATM    6  C   UNL     1       6.146  26.709  54.699  1.00  0.00     0.028 C 
HETATM    7  C   UNL     1       5.748  25.398  55.371  1.00  0.00     0.009 C 
ENDROOT
BRANCH   3   8
HETATM    8  C   UNL     1       7.692  28.421  57.824  1.00  0.00     0.277 C 
BRANCH   8   9
HETATM    9  C   UNL     1       8.861  29.316  57.598  1.00  0.00     0.016 A 
HETATM   10  C   UNL     1       9.297  30.446  58.365  1.00  0.00     0.096 A 
HETATM   11  N   UNL     1      10.423  30.960  57.854  1.00  0.00    -0.174 NA
HETATM   12  N   UNL     1      10.652  30.271  56.736  1.00  0.00    -0.288 N 
HETATM   13  H   UNL     1      11.446  30.540  56.160  1.00  0.00     0.188 HD
HETATM   14  C   UNL     1       9.745  29.276  56.531  1.00  0.00     0.120 A 
BRANCH  10  15
HETATM   15  C   UNL     1       8.694  31.074  59.540  1.00  0.00    -0.003 A 
HETATM   16  C   UNL     1       7.477  31.757  59.444  1.00  0.00     0.037 A 
HETATM   17  C   UNL     1       6.948  32.400  60.565  1.00  0.00     0.035 A 
HETATM   18 CL   UNL     1       5.435  33.210  60.436  1.00  0.00    -0.084 Cl
HETATM   19  C   UNL     1       7.627  32.388  61.780  1.00  0.00     0.024 A 
HETATM   20  C   UNL     1       8.850  31.726  61.879  1.00  0.00     0.003 A 
HETATM   21  C   UNL     1       9.380  31.072  60.764  1.00  0.00     0.014 A 
ENDBRANCH  10  15
ENDBRANCH   8   9
ENDBRANCH   3   8
BRANCH   1  22
HETATM   22  C   UNL     1       8.065  24.452  55.673  1.00  0.00     0.128 C 
BRANCH  22  23
HETATM   23  N   UNL     1       8.102  23.029  55.430  1.00  0.00    -0.360 N 
HETATM   24  C   UNL     1       7.999  22.526  54.148  1.00  0.00     0.221 C 
HETATM   25  O   UNL     1       8.114  23.262  53.166  1.00  0.00    -0.273 OA
HETATM   26  H   UNL     1       7.845  22.412  56.199  1.00  0.00     0.162 HD
BRANCH  24  27
HETATM   27  C   UNL     1       7.775  21.018  54.084  1.00  0.00     0.070 C 
HETATM   28  C   UNL     1       8.364  20.333  55.316  1.00  0.00     0.019 C 
HETATM   29  C   UNL     1       8.373  20.431  52.810  1.00  0.00     0.019 C 
ENDBRANCH  24  27
ENDBRANCH  22  23
ENDBRANCH   1  22
TORSDOF 6
ENDMDL
MODEL 4
REMARK VINA RESULT:      -9.0      4.155      9.105
REMARK  6 active torsions:
REMARK  status: ('A' for Active; 'I' for Inactive)
REMARK    1  A    between atoms: C_2  and  C_3 
REMARK       I    between atoms: C_3  and  N_4 
REMARK    2  A    between atoms: N_4  and  C_5 
REMARK    3  A    between atoms: C_5  and  C_6 
REMARK    4  A    between atoms: N_8  and  C_10 
REMARK    5  A    between atoms: C_10  and  C_11 
REMARK    6  A    between atoms: C_12  and  C_13 
ROOT
HETATM    1  C   UNL     1       5.487  27.081  55.808  1.00  0.00     0.029 C 
HETATM    2  C   UNL     1       6.265  27.430  57.081  1.00  0.00     0.241 C 
HETATM    3  N   UNL     1       7.039  28.718  56.939  1.00  0.00    -0.067 N 
HETATM    4  H   UNL     1       7.763  28.540  56.212  1.00  0.00     0.280 HD
HETATM    5  C   UNL     1       6.173  29.879  56.541  1.00  0.00     0.235 C 
HETATM    6  C   UNL     1       5.307  29.561  55.329  1.00  0.00     0.028 C 
HETATM    7  C   UNL     1       4.546  28.246  55.471  1.00  0.00     0.009 C 
ENDROOT
BRANCH   3   8
HETATM    8  C   UNL     1       7.856  28.972  58.202  1.00  0.00     0.277 C 
BRANCH   8   9
HETATM    9  C   UNL     1       8.904  30.027  58.121  1.00  0.00     0.016 A 
HETATM   10  C   UNL     1       9.005  31.260  58.844  1.00  0.00     0.096 A 
HETATM   11  N   UNL     1      10.126  31.914  58.514  1.00  0.00    -0.174 NA
HETATM   12  N   UNL     1      10.677  31.199  57.533  1.00  0.00    -0.288 N 
HETATM   13  H   UNL     1      11.526  31.553  57.098  1.00  0.00     0.188 HD
HETATM   14  C   UNL     1       9.985  30.060  57.253  1.00  0.00     0.120 A 
BRANCH  10  15
HETATM   15  C   UNL     1       8.089  31.859  59.814  1.00  0.00    -0.003 A 
HETATM   16  C   UNL     1       8.479  32.055  61.144  1.00  0.00     0.037 A 
HETATM   17  C   UNL     1       7.570  32.573  62.068  1.00  0.00     0.035 A 
HETATM   18 CL   UNL     1       8.076  32.836  63.692  1.00  0.00    -0.084 Cl
HETATM   19  C   UNL     1       6.266  32.881  61.690  1.00  0.00     0.024 A 
HETATM   20  C   UNL     1       5.863  32.670  60.372  1.00  0.00     0.003 A 
HETATM   21  C   UNL     1       6.771  32.161  59.439  1.00  0.00     0.014 A 
ENDBRANCH  10  15
ENDBRANCH   8   9
ENDBRANCH   3   8
BRANCH   1  22
HETATM   22  C   UNL     1       6.340  26.717  54.577  1.00  0.00     0.128 C 
BRANCH  22  23
HETATM   23  N   UNL     1       7.063  25.472  54.695  1.00  0.00    -0.360 N 
HETATM   24  C   UNL     1       6.793  24.414  53.848  1.00  0.00     0.221 C 
HETATM   25  O   UNL     1       6.115  24.571  52.832  1.00  0.00    -0.273 OA
HETATM   26  H   UNL     1       7.491  25.258  55.593  1.00  0.00     0.162 HD
BRANCH  24  27
HETATM   27  C   UNL     1       7.432  23.095  54.273  1.00  0.00     0.070 C 
HETATM   28  C   UNL     1       8.639  23.347  55.175  1.00  0.00     0.019 C 
HETATM   29  C   UNL     1       7.837  22.269  53.058  1.00  0.00     0.019 C 
ENDBRANCH  24  27
ENDBRANCH  22  23
ENDBRANCH   1  22
TORSDOF 6
ENDMDL
MODEL 5
REMARK VINA RESULT:      -8.6      2.723      4.871
REMARK  6 active torsions:
REMARK  status: ('A' for Active; 'I' for Inactive)
REMARK    1  A    between atoms: C_2  and  C_3 
REMARK       I    between atoms: C_3  and  N_4 
REMARK    2  A    between atoms: N_4  and  C_5 
REMARK    3  A    between atoms: C_5  and  C_6 
REMARK    4  A    between atoms: N_8  and  C_10 
REMARK    5  A    between atoms: C_10  and  C_11 
REMARK    6  A    between atoms: C_12  and  C_13 
ROOT
HETATM    1  C   UNL     1       6.815  27.447  53.209  1.00  0.00     0.029 C 
HETATM    2  C   UNL     1       7.677  26.270  52.741  1.00  0.00     0.241 C 
HETATM    3  N   UNL     1       7.029  24.939  53.035  1.00  0.00    -0.067 N 
HETATM    4  H   UNL     1       6.992  24.860  54.072  1.00  0.00     0.280 HD
HETATM    5  C   UNL     1       5.650  24.819  52.451  1.00  0.00     0.235 C 
HETATM    6  C   UNL     1       4.769  26.009  52.810  1.00  0.00     0.028 C 
HETATM    7  C   UNL     1       5.441  27.351  52.532  1.00  0.00     0.009 C 
ENDROOT
BRANCH   3   8
HETATM    8  C   UNL     1       7.964  23.807  52.623  1.00  0.00     0.277 C 
BRANCH   8   9
HETATM    9  C   UNL     1       7.931  22.574  53.457  1.00  0.00     0.016 A 
HETATM   10  C   UNL     1       7.777  22.445  54.877  1.00  0.00     0.096 A 
HETATM   11  N   UNL     1       7.755  21.155  55.237  1.00  0.00    -0.174 NA
HETATM   12  N   UNL     1       8.000  20.472  54.120  1.00  0.00    -0.288 N 
HETATM   13  H   UNL     1       8.076  19.459  54.182  1.00  0.00     0.188 HD
HETATM   14  C   UNL     1       8.118  21.271  53.023  1.00  0.00     0.120 A 
BRANCH  10  15
HETATM   15  C   UNL     1       7.670  23.477  55.908  1.00  0.00    -0.003 A 
HETATM   16  C   UNL     1       6.449  24.113  56.162  1.00  0.00     0.037 A 
HETATM   17  C   UNL     1       6.381  25.136  57.109  1.00  0.00     0.035 A 
HETATM   18 CL   UNL     1       4.866  25.887  57.431  1.00  0.00    -0.084 Cl
HETATM   19  C   UNL     1       7.519  25.550  57.795  1.00  0.00     0.024 A 
HETATM   20  C   UNL     1       8.742  24.934  57.534  1.00  0.00     0.003 A 
HETATM   21  C   UNL     1       8.817  23.903  56.594  1.00  0.00     0.014 A 
ENDBRANCH  10  15
ENDBRANCH   8   9
ENDBRANCH   3   8
BRANCH   1  22
HETATM   22  C   UNL     1       6.644  27.591  54.734  1.00  0.00     0.128 C 
BRANCH  22  23
HETATM   23  N   UNL     1       7.756  28.224  55.405  1.00  0.00    -0.360 N 
HETATM   24  C   UNL     1       7.563  28.947  56.566  1.00  0.00     0.221 C 
HETATM   25  O   UNL     1       6.503  28.877  57.189  1.00  0.00    -0.273 OA
HETATM   26  H   UNL     1       8.583  28.438  54.850  1.00  0.00     0.162 HD
BRANCH  24  27
HETATM   27  C   UNL     1       8.770  29.776  56.994  1.00  0.00     0.070 C 
HETATM   28  C   UNL     1      10.058  28.968  56.847  1.00  0.00     0.019 C 
HETATM   29  C   UNL     1       8.612  30.272  58.426  1.00  0.00     0.019 C 
ENDBRANCH  24  27
ENDBRANCH  22  23
ENDBRANCH   1  22
TORSDOF 6
ENDMDL
MODEL 6
REMARK VINA RESULT:      -8.6      3.846      8.688
REMARK  6 active torsions:
REMARK  status: ('A' for Active; 'I' for Inactive)
REMARK    1  A    between atoms: C_2  and  C_3 
REMARK       I    between atoms: C_3  and  N_4 
REMARK    2  A    between atoms: N_4  and  C_5 
REMARK    3  A    between atoms: C_5  and  C_6 
REMARK    4  A    between atoms: N_8  and  C_10 
REMARK    5  A    between atoms: C_10  and  C_11 
REMARK    6  A    between atoms: C_12  and  C_13 
ROOT
HETATM    1  C   UNL     1       4.276  28.424  56.117  1.00  0.00     0.029 C 
HETATM    2  C   UNL     1       5.375  28.282  57.175  1.00  0.00     0.241 C 
HETATM    3  N   UNL     1       6.493  29.276  56.970  1.00  0.00    -0.067 N 
HETATM    4  H   UNL     1       6.943  29.020  56.067  1.00  0.00     0.280 HD
HETATM    5  C   UNL     1       6.010  30.698  56.930  1.00  0.00     0.235 C 
HETATM    6  C   UNL     1       4.854  30.885  55.957  1.00  0.00     0.028 C 
HETATM    7  C   UNL     1       3.739  29.862  56.155  1.00  0.00     0.009 C 
ENDROOT
BRANCH   3   8
HETATM    8  C   UNL     1       7.592  29.035  57.999  1.00  0.00     0.277 C 
BRANCH   8   9
HETATM    9  C   UNL     1       8.814  29.879  57.882  1.00  0.00     0.016 A 
HETATM   10  C   UNL     1       9.292  30.905  58.761  1.00  0.00     0.096 A 
HETATM   11  N   UNL     1      10.459  31.399  58.324  1.00  0.00    -0.174 NA
HETATM   12  N   UNL     1      10.677  30.805  57.151  1.00  0.00    -0.288 N 
HETATM   13  H   UNL     1      11.500  31.079  56.620  1.00  0.00     0.188 HD
HETATM   14  C   UNL     1       9.722  29.887  56.834  1.00  0.00     0.120 A 
BRANCH  10  15
HETATM   15  C   UNL     1       8.695  31.454  59.977  1.00  0.00    -0.003 A 
HETATM   16  C   UNL     1       7.488  32.161  59.929  1.00  0.00     0.037 A 
HETATM   17  C   UNL     1       6.965  32.728  61.092  1.00  0.00     0.035 A 
HETATM   18 CL   UNL     1       5.465  33.569  61.019  1.00  0.00    -0.084 Cl
HETATM   19  C   UNL     1       7.640  32.619  62.305  1.00  0.00     0.024 A 
HETATM   20  C   UNL     1       8.852  31.932  62.358  1.00  0.00     0.003 A 
HETATM   21  C   UNL     1       9.377  31.354  61.199  1.00  0.00     0.014 A 
ENDBRANCH  10  15
ENDBRANCH   8   9
ENDBRANCH   3   8
BRANCH   1  22
HETATM   22  C   UNL     1       4.676  28.047  54.677  1.00  0.00     0.128 C 
BRANCH  22  23
HETATM   23  N   UNL     1       5.162  26.696  54.523  1.00  0.00    -0.360 N 
HETATM   24  C   UNL     1       6.510  26.444  54.356  1.00  0.00     0.221 C 
HETATM   25  O   UNL     1       7.351  27.318  54.570  1.00  0.00    -0.273 OA
HETATM   26  H   UNL     1       4.507  25.994  54.185  1.00  0.00     0.162 HD
BRANCH  24  27
HETATM   27  C   UNL     1       6.830  25.013  53.932  1.00  0.00     0.070 C 
HETATM   28  C   UNL     1       5.818  24.519  52.900  1.00  0.00     0.019 C 
HETATM   29  C   UNL     1       6.860  24.081  55.138  1.00  0.00     0.019 C 
ENDBRANCH  24  27
ENDBRANCH  22  23
ENDBRANCH   1  22
TORSDOF 6
ENDMDL
MODEL 7
REMARK VINA RESULT:      -8.5      4.375      7.816
REMARK  6 active torsions:
REMARK  status: ('A' for Active; 'I' for Inactive)
REMARK    1  A    between atoms: C_2  and  C_3 
REMARK       I    between atoms: C_3  and  N_4 
REMARK    2  A    between atoms: N_4  and  C_5 
REMARK    3  A    between atoms: C_5  and  C_6 
REMARK    4  A    between atoms: N_8  and  C_10 
REMARK    5  A    between atoms: C_10  and  C_11 
REMARK    6  A    between atoms: C_12  and  C_13 
ROOT
HETATM    1  C   UNL     1       4.758  27.298  52.148  1.00  0.00     0.029 C 
HETATM    2  C   UNL     1       4.645  26.269  53.277  1.00  0.00     0.241 C 
HETATM    3  N   UNL     1       5.997  25.852  53.802  1.00  0.00    -0.067 N 
HETATM    4  H   UNL     1       6.470  25.354  53.019  1.00  0.00     0.280 HD
HETATM    5  C   UNL     1       6.830  27.016  54.261  1.00  0.00     0.235 C 
HETATM    6  C   UNL     1       6.906  28.116  53.211  1.00  0.00     0.028 C 
HETATM    7  C   UNL     1       5.537  28.515  52.667  1.00  0.00     0.009 C 
ENDROOT
BRANCH   3   8
HETATM    8  C   UNL     1       5.828  24.770  54.863  1.00  0.00     0.277 C 
BRANCH   8   9
HETATM    9  C   UNL     1       6.716  24.856  56.056  1.00  0.00     0.016 A 
HETATM   10  C   UNL     1       7.695  23.919  56.525  1.00  0.00     0.096 A 
HETATM   11  N   UNL     1       8.317  24.389  57.614  1.00  0.00    -0.174 NA
HETATM   12  N   UNL     1       7.695  25.529  57.913  1.00  0.00    -0.288 N 
HETATM   13  H   UNL     1       7.986  26.029  58.750  1.00  0.00     0.188 HD
HETATM   14  C   UNL     1       6.724  25.856  57.016  1.00  0.00     0.120 A 
BRANCH  10  15
HETATM   15  C   UNL     1       8.056  22.600  56.009  1.00  0.00    -0.003 A 
HETATM   16  C   UNL     1       7.929  22.302  54.647  1.00  0.00     0.037 A 
HETATM   17  C   UNL     1       8.223  21.018  54.184  1.00  0.00     0.035 A 
HETATM   18 CL   UNL     1       8.090  20.678  52.502  1.00  0.00    -0.084 Cl
HETATM   19  C   UNL     1       8.625  20.017  55.064  1.00  0.00     0.024 A 
HETATM   20  C   UNL     1       8.736  20.300  56.425  1.00  0.00     0.003 A 
HETATM   21  C   UNL     1       8.452  21.586  56.894  1.00  0.00     0.014 A 
ENDBRANCH  10  15
ENDBRANCH   8   9
ENDBRANCH   3   8
BRANCH   1  22
HETATM   22  C   UNL     1       5.383  26.791  50.834  1.00  0.00     0.128 C 
BRANCH  22  23
HETATM   23  N   UNL     1       4.434  26.259  49.883  1.00  0.00    -0.360 N 
HETATM   24  C   UNL     1       4.425  26.696  48.573  1.00  0.00     0.221 C 
HETATM   25  O   UNL     1       5.358  27.359  48.118  1.00  0.00    -0.273 OA
HETATM   26  H   UNL     1       3.575  25.855  50.250  1.00  0.00     0.162 HD
BRANCH  24  27
HETATM   27  C   UNL     1       3.201  26.255  47.776  1.00  0.00     0.070 C 
HETATM   28  C   UNL     1       1.973  27.068  48.180  1.00  0.00     0.019 C 
HETATM   29  C   UNL     1       2.939  24.765  47.961  1.00  0.00     0.019 C 
ENDBRANCH  24  27
ENDBRANCH  22  23
ENDBRANCH   1  22
TORSDOF 6
ENDMDL
MODEL 8
REMARK VINA RESULT:      -8.5      1.541      2.153
REMARK  6 active torsions:
REMARK  status: ('A' for Active; 'I' for Inactive)
REMARK    1  A    between atoms: C_2  and  C_3 
REMARK       I    between atoms: C_3  and  N_4 
REMARK    2  A    between atoms: N_4  and  C_5 
REMARK    3  A    between atoms: C_5  and  C_6 
REMARK    4  A    between atoms: N_8  and  C_10 
REMARK    5  A    between atoms: C_10  and  C_11 
REMARK    6  A    between atoms: C_12  and  C_13 
ROOT
HETATM    1  C   UNL     1       6.520  29.494  56.183  1.00  0.00     0.029 C 
HETATM    2  C   UNL     1       6.544  28.128  55.489  1.00  0.00     0.241 C 
HETATM    3  N   UNL     1       5.187  27.467  55.489  1.00  0.00    -0.067 N 
HETATM    4  H   UNL     1       4.964  27.267  56.487  1.00  0.00     0.280 HD
HETATM    5  C   UNL     1       4.118  28.327  54.877  1.00  0.00     0.235 C 
HETATM    6  C   UNL     1       4.102  29.731  55.466  1.00  0.00     0.028 C 
HETATM    7  C   UNL     1       5.482  30.384  55.484  1.00  0.00     0.009 C 
ENDROOT
BRANCH   3   8
HETATM    8  C   UNL     1       5.287  26.081  54.861  1.00  0.00     0.277 C 
BRANCH   8   9
HETATM    9  C   UNL     1       5.807  26.014  53.467  1.00  0.00     0.016 A 
HETATM   10  C   UNL     1       6.778  25.122  52.905  1.00  0.00     0.096 A 
HETATM   11  N   UNL     1       6.939  25.359  51.597  1.00  0.00    -0.174 NA
HETATM   12  N   UNL     1       6.195  26.433  51.337  1.00  0.00    -0.288 N 
HETATM   13  H   UNL     1       6.215  26.815  50.395  1.00  0.00     0.188 HD
HETATM   14  C   UNL     1       5.497  26.871  52.422  1.00  0.00     0.120 A 
BRANCH  10  15
HETATM   15  C   UNL     1       7.572  24.074  53.545  1.00  0.00    -0.003 A 
HETATM   16  C   UNL     1       7.701  22.811  52.955  1.00  0.00     0.037 A 
HETATM   17  C   UNL     1       8.414  21.805  53.610  1.00  0.00     0.035 A 
HETATM   18 CL   UNL     1       8.588  20.268  52.857  1.00  0.00    -0.084 Cl
HETATM   19  C   UNL     1       8.986  22.035  54.859  1.00  0.00     0.024 A 
HETATM   20  C   UNL     1       8.846  23.284  55.461  1.00  0.00     0.003 A 
HETATM   21  C   UNL     1       8.142  24.298  54.807  1.00  0.00     0.014 A 
ENDBRANCH  10  15
ENDBRANCH   8   9
ENDBRANCH   3   8
BRANCH   1  22
HETATM   22  C   UNL     1       6.261  29.473  57.702  1.00  0.00     0.128 C 
BRANCH  22  23
HETATM   23  N   UNL     1       7.426  29.740  58.513  1.00  0.00    -0.360 N 
HETATM   24  C   UNL     1       7.815  31.036  58.787  1.00  0.00     0.221 C 
HETATM   25  O   UNL     1       7.066  31.986  58.559  1.00  0.00    -0.273 OA
HETATM   26  H   UNL     1       8.136  29.013  58.572  1.00  0.00     0.162 HD
BRANCH  24  27
HETATM   27  C   UNL     1       9.203  31.153  59.411  1.00  0.00     0.070 C 
HETATM   28  C   UNL     1       9.206  32.199  60.525  1.00  0.00     0.019 C 
HETATM   29  C   UNL     1      10.248  31.495  58.356  1.00  0.00     0.019 C 
ENDBRANCH  24  27
ENDBRANCH  22  23
ENDBRANCH   1  22
TORSDOF 6
ENDMDL
MODEL 9
REMARK VINA RESULT:      -8.4      3.662      7.438
REMARK  6 active torsions:
REMARK  status: ('A' for Active; 'I' for Inactive)
REMARK    1  A    between atoms: C_2  and  C_3 
REMARK       I    between atoms: C_3  and  N_4 
REMARK    2  A    between atoms: N_4  and  C_5 
REMARK    3  A    between atoms: C_5  and  C_6 
REMARK    4  A    between atoms: N_8  and  C_10 
REMARK    5  A    between atoms: C_10  and  C_11 
REMARK    6  A    between atoms: C_12  and  C_13 
ROOT
HETATM    1  C   UNL     1       3.887  28.738  53.515  1.00  0.00     0.029 C 
HETATM    2  C   UNL     1       4.123  28.490  55.009  1.00  0.00     0.241 C 
HETATM    3  N   UNL     1       5.113  29.468  55.597  1.00  0.00    -0.067 N 
HETATM    4  H   UNL     1       6.024  29.268  55.135  1.00  0.00     0.280 HD
HETATM    5  C   UNL     1       4.718  30.901  55.377  1.00  0.00     0.235 C 
HETATM    6  C   UNL     1       4.384  31.188  53.919  1.00  0.00     0.028 C 
HETATM    7  C   UNL     1       3.402  30.181  53.326  1.00  0.00     0.009 C 
ENDROOT
BRANCH   3   8
HETATM    8  C   UNL     1       5.370  29.125  57.060  1.00  0.00     0.277 C 
BRANCH   8   9
HETATM    9  C   UNL     1       6.234  27.942  57.328  1.00  0.00     0.016 A 
HETATM   10  C   UNL     1       7.625  27.896  57.670  1.00  0.00     0.096 A 
HETATM   11  N   UNL     1       8.022  26.633  57.875  1.00  0.00    -0.174 NA
HETATM   12  N   UNL     1       6.968  25.876  57.568  1.00  0.00    -0.288 N 
HETATM   13  H   UNL     1       7.074  24.866  57.610  1.00  0.00     0.188 HD
HETATM   14  C   UNL     1       5.870  26.607  57.230  1.00  0.00     0.120 A 
BRANCH  10  15
HETATM   15  C   UNL     1       8.599  28.979  57.793  1.00  0.00    -0.003 A 
HETATM   16  C   UNL     1       8.447  29.975  58.765  1.00  0.00     0.037 A 
HETATM   17  C   UNL     1       9.355  31.033  58.827  1.00  0.00     0.035 A 
HETATM   18 CL   UNL     1       9.169  32.232  60.048  1.00  0.00    -0.084 Cl
HETATM   19  C   UNL     1      10.407  31.125  57.920  1.00  0.00     0.024 A 
HETATM   20  C   UNL     1      10.555  30.147  56.937  1.00  0.00     0.003 A 
HETATM   21  C   UNL     1       9.655  29.080  56.874  1.00  0.00     0.014 A 
ENDBRANCH  10  15
ENDBRANCH   8   9
ENDBRANCH   3   8
BRANCH   1  22
HETATM   22  C   UNL     1       5.086  28.457  52.589  1.00  0.00     0.128 C 
BRANCH  22  23
HETATM   23  N   UNL     1       5.722  27.177  52.801  1.00  0.00    -0.360 N 
HETATM   24  C   UNL     1       6.987  27.098  53.351  1.00  0.00     0.221 C 
HETATM   25  O   UNL     1       7.507  28.075  53.891  1.00  0.00    -0.273 OA
HETATM   26  H   UNL     1       5.407  26.393  52.234  1.00  0.00     0.162 HD
BRANCH  24  27
HETATM   27  C   UNL     1       7.626  25.716  53.253  1.00  0.00     0.070 C 
HETATM   28  C   UNL     1       7.472  25.151  51.842  1.00  0.00     0.019 C 
HETATM   29  C   UNL     1       7.022  24.762  54.278  1.00  0.00     0.019 C 
ENDBRANCH  24  27
ENDBRANCH  22  23
ENDBRANCH   1  22
TORSDOF 6
ENDMDL
MODEL 10
REMARK VINA RESULT:      -8.4      5.890     11.583
REMARK  6 active torsions:
REMARK  status: ('A' for Active; 'I' for Inactive)
REMARK    1  A    between atoms: C_2  and  C_3 
REMARK       I    between atoms: C_3  and  N_4 
REMARK    2  A    between atoms: N_4  and  C_5 
REMARK    3  A    between atoms: C_5  and  C_6 
REMARK    4  A    between atoms: N_8  and  C_10 
REMARK    5  A    between atoms: C_10  and  C_11 
REMARK    6  A    between atoms: C_12  and  C_13 
ROOT
HETATM    1  C   UNL     1       8.730  31.867  60.137  1.00  0.00     0.029 C 
HETATM    2  C   UNL     1       7.943  33.029  60.751  1.00  0.00     0.241 C 
HETATM    3  N   UNL     1       7.044  32.574  61.875  1.00  0.00    -0.067 N 
HETATM    4  H   UNL     1       6.329  31.954  61.440  1.00  0.00     0.280 HD
HETATM    5  C   UNL     1       7.786  31.839  62.955  1.00  0.00     0.235 C 
HETATM    6  C   UNL     1       8.659  30.723  62.395  1.00  0.00     0.028 C 
HETATM    7  C   UNL     1       9.547  31.186  61.243  1.00  0.00     0.009 C 
ENDROOT
BRANCH   3   8
HETATM    8  C   UNL     1       6.227  33.753  62.393  1.00  0.00     0.277 C 
BRANCH   8   9
HETATM    9  C   UNL     1       4.773  33.516  62.610  1.00  0.00     0.016 A 
HETATM   10  C   UNL     1       3.946  33.914  63.711  1.00  0.00     0.096 A 
HETATM   11  N   UNL     1       2.674  33.545  63.507  1.00  0.00    -0.174 NA
HETATM   12  N   UNL     1       2.688  32.837  62.379  1.00  0.00    -0.288 N 
HETATM   13  H   UNL     1       1.817  32.415  62.065  1.00  0.00     0.188 HD
HETATM   14  C   UNL     1       3.919  32.783  61.800  1.00  0.00     0.120 A 
BRANCH  10  15
HETATM   15  C   UNL     1       4.299  34.604  64.951  1.00  0.00    -0.003 A 
HETATM   16  C   UNL     1       4.579  33.885  66.118  1.00  0.00     0.037 A 
HETATM   17  C   UNL     1       4.856  34.565  67.306  1.00  0.00     0.035 A 
HETATM   18 CL   UNL     1       5.228  33.664  68.725  1.00  0.00    -0.084 Cl
HETATM   19  C   UNL     1       4.838  35.956  67.352  1.00  0.00     0.024 A 
HETATM   20  C   UNL     1       4.541  36.679  66.198  1.00  0.00     0.003 A 
HETATM   21  C   UNL     1       4.272  36.006  65.004  1.00  0.00     0.014 A 
ENDBRANCH  10  15
ENDBRANCH   8   9
ENDBRANCH   3   8
BRANCH   1  22
HETATM   22  C   UNL     1       7.897  30.819  59.373  1.00  0.00     0.128 C 
BRANCH  22  23
HETATM   23  N   UNL     1       8.470  30.397  58.116  1.00  0.00    -0.360 N 
HETATM   24  C   UNL     1       8.542  29.057  57.785  1.00  0.00     0.221 C 
HETATM   25  O   UNL     1       7.917  28.211  58.425  1.00  0.00    -0.273 OA
HETATM   26  H   UNL     1       9.124  31.029  57.659  1.00  0.00     0.162 HD
BRANCH  24  27
HETATM   27  C   UNL     1       9.415  28.760  56.570  1.00  0.00     0.070 C 
HETATM   28  C   UNL     1      10.659  29.648  56.569  1.00  0.00     0.019 C 
HETATM   29  C   UNL     1       8.630  28.943  55.276  1.00  0.00     0.019 C 
ENDBRANCH  24  27
ENDBRANCH  22  23
ENDBRANCH   1  22
TORSDOF 6
ENDMDL
