MODEL 1
REMARK VINA RESULT:      -9.5      0.000      0.000
REMARK  6 active torsions:
REMARK  status: ('A' for Active; 'I' for Inactive)
REMARK    1  A    between atoms: C_5  and  C_6 
REMARK    2  A    between atoms: C_6  and  N_7 
REMARK    3  A    between atoms: C_6  and  C_11 
REMARK       I    between atoms: N_7  and  C_8 
REMARK    4  A    between atoms: C_11  and  C_12 
REMARK       I    between atoms: C_12  and  N_13 
REMARK    5  A    between atoms: N_13  and  C_14 
REMARK    6  A    between atoms: C_16  and  C_17 
ROOT
HETATM    1  C   UNL     1       7.591  26.020  57.450  1.00  0.00     0.224 C 
HETATM    2  N   UNL     1       7.505  27.337  57.034  1.00  0.00    -0.327 N 
HETATM    3  O   UNL     1       8.398  25.559  58.253  1.00  0.00    -0.273 OA
HETATM    4  H   UNL     1       6.742  27.557  56.402  1.00  0.00     0.169 HD
ENDROOT
BRANCH   1   5
HETATM    5  C   UNL     1       6.600  25.119  56.745  1.00  0.00     0.133 C 
BRANCH   5   6
HETATM    6  C   UNL     1       7.268  24.359  55.594  1.00  0.00     0.126 C 
BRANCH   6   7
HETATM    7  C   UNL     1       6.737  24.852  54.256  1.00  0.00    -0.035 A 
HETATM    8  C   UNL     1       7.541  24.896  53.108  1.00  0.00     0.010 A 
HETATM    9  C   UNL     1       7.013  25.301  51.880  1.00  0.00     0.007 A 
HETATM   10  C   UNL     1       5.668  25.668  51.769  1.00  0.00    -0.062 A 
HETATM   11  C   UNL     1       5.096  26.050  50.437  1.00  0.00     0.048 C 
HETATM   12  C   UNL     1       4.856  25.609  52.905  1.00  0.00     0.007 A 
HETATM   13  C   UNL     1       5.384  25.211  54.136  1.00  0.00     0.010 A 
ENDBRANCH   6   7
BRANCH   6  14
HETATM   14  N   UNL     1       7.236  22.897  55.678  1.00  0.00    -0.352 N 
HETATM   15  C   UNL     1       8.292  22.048  55.453  1.00  0.00     0.214 C 
HETATM   16  C   UNL     1       7.946  20.599  55.671  1.00  0.00     0.117 C 
HETATM   17  O   UNL     1       9.417  22.406  55.120  1.00  0.00    -0.274 OA
HETATM   18  H   UNL     1       6.385  22.502  56.054  1.00  0.00     0.163 HD
ENDBRANCH   6  14
ENDBRANCH   5   6
ENDBRANCH   1   5
BRANCH   2  19
HETATM   19  C   UNL     1       8.304  28.427  57.433  1.00  0.00     0.035 A 
HETATM   20  C   UNL     1       8.049  29.215  58.559  1.00  0.00     0.042 A 
HETATM   21  C   UNL     1       8.887  30.293  58.894  1.00  0.00    -0.021 A 
HETATM   22  C   UNL     1      10.003  30.559  58.090  1.00  0.00     0.012 A 
HETATM   23  C   UNL     1      10.266  29.776  56.965  1.00  0.00     0.003 A 
HETATM   24  C   UNL     1       9.415  28.722  56.635  1.00  0.00     0.029 A 
BRANCH  21  25
HETATM   25  C   UNL     1       8.586  31.115  60.057  1.00  0.00     0.010 A 
HETATM   26  C   UNL     1       7.725  32.230  60.207  1.00  0.00     0.152 A 
HETATM   27  N   UNL     1       7.740  32.734  61.444  1.00  0.00    -0.187 NA
HETATM   28  N   UNL     1       8.617  31.952  62.090  1.00  0.00    -0.289 N 
HETATM   29  H   UNL     1       8.809  32.150  63.067  1.00  0.00     0.188 HD
HETATM   30  C   UNL     1       9.152  30.970  61.308  1.00  0.00     0.123 A 
ENDBRANCH  21  25
ENDBRANCH   2  19
TORSDOF 6
ENDMDL
MODEL 2
REMARK VINA RESULT:      -9.4      2.055      3.564
REMARK  6 active torsions:
REMARK  status: ('A' for Active; 'I' for Inactive)
REMARK    1  A    between atoms: C_5  and  C_6 
REMARK    2  A    between atoms: C_6  and  N_7 
REMARK    3  A    between atoms: C_6  and  C_11 
REMARK       I    between atoms: N_7  and  C_8 
REMARK    4  A    between atoms: C_11  and  C_12 
REMARK       I    between atoms: C_12  and  N_13 
REMARK    5  A    between atoms: N_13  and  C_14 
REMARK    6  A    between atoms: C_16  and  C_17 
ROOT
HETATM    1  C   UNL     1       6.705  27.252  56.771  1.00  0.00     0.224 C 
HETATM    2  N   UNL     1       8.020  27.421  57.168  1.00  0.00    -0.327 N 
HETATM    3  O   UNL     1       5.855  28.131  56.665  1.00  0.00    -0.273 OA
HETATM    4  H   UNL     1       8.603  26.591  57.150  1.00  0.00     0.169 HD
ENDROOT
BRANCH   1   5
HETATM    5  C   UNL     1       6.352  25.800  56.528  1.00  0.00     0.133 C 
BRANCH   5   6
HETATM    6  C   UNL     1       6.082  25.539  55.042  1.00  0.00     0.126 C 
BRANCH   6   7
HETATM    7  C   UNL     1       6.798  24.275  54.589  1.00  0.00    -0.035 A 
HETATM    8  C   UNL     1       7.132  23.249  55.486  1.00  0.00     0.010 A 
HETATM    9  C   UNL     1       7.741  22.075  55.034  1.00  0.00     0.007 A 
HETATM   10  C   UNL     1       8.025  21.898  53.676  1.00  0.00    -0.062 A 
HETATM   11  C   UNL     1       8.629  20.613  53.193  1.00  0.00     0.048 C 
HETATM   12  C   UNL     1       7.677  22.908  52.775  1.00  0.00     0.007 A 
HETATM   13  C   UNL     1       7.076  24.086  53.226  1.00  0.00     0.010 A 
ENDBRANCH   6   7
BRANCH   6  14
HETATM   14  N   UNL     1       6.339  26.656  54.131  1.00  0.00    -0.352 N 
HETATM   15  C   UNL     1       5.419  27.263  53.310  1.00  0.00     0.214 C 
HETATM   16  C   UNL     1       5.988  28.420  52.533  1.00  0.00     0.117 C 
HETATM   17  O   UNL     1       4.244  26.926  53.210  1.00  0.00    -0.274 OA
HETATM   18  H   UNL     1       7.250  27.086  54.216  1.00  0.00     0.163 HD
ENDBRANCH   6  14
ENDBRANCH   5   6
ENDBRANCH   1   5
BRANCH   2  19
HETATM   19  C   UNL     1       8.669  28.618  57.530  1.00  0.00     0.035 A 
HETATM   20  C   UNL     1       8.328  29.389  58.644  1.00  0.00     0.042 A 
HETATM   21  C   UNL     1       9.016  30.579  58.942  1.00  0.00    -0.021 A 
HETATM   22  C   UNL     1      10.071  30.976  58.110  1.00  0.00     0.012 A 
HETATM   23  C   UNL     1      10.420  30.212  56.997  1.00  0.00     0.003 A 
HETATM   24  C   UNL     1       9.716  29.045  56.704  1.00  0.00     0.029 A 
BRANCH  21  25
HETATM   25  C   UNL     1       8.625  31.378  60.094  1.00  0.00     0.010 A 
HETATM   26  C   UNL     1       9.181  31.462  61.394  1.00  0.00     0.152 A 
HETATM   27  N   UNL     1       8.515  32.305  62.189  1.00  0.00    -0.187 NA
HETATM   28  N   UNL     1       7.524  32.756  61.406  1.00  0.00    -0.289 N 
HETATM   29  H   UNL     1       6.863  33.417  61.801  1.00  0.00     0.188 HD
HETATM   30  C   UNL     1       7.544  32.234  60.146  1.00  0.00     0.123 A 
ENDBRANCH  21  25
ENDBRANCH   2  19
TORSDOF 6
ENDMDL
MODEL 3
REMARK VINA RESULT:      -9.4      2.547      8.803
REMARK  6 active torsions:
REMARK  status: ('A' for Active; 'I' for Inactive)
REMARK    1  A    between atoms: C_5  and  C_6 
REMARK    2  A    between atoms: C_6  and  N_7 
REMARK    3  A    between atoms: C_6  and  C_11 
REMARK       I    between atoms: N_7  and  C_8 
REMARK    4  A    between atoms: C_11  and  C_12 
REMARK       I    between atoms: C_12  and  N_13 
REMARK    5  A    between atoms: N_13  and  C_14 
REMARK    6  A    between atoms: C_16  and  C_17 
ROOT
HETATM    1  C   UNL     1       7.341  26.815  56.528  1.00  0.00     0.224 C 
HETATM    2  N   UNL     1       6.731  26.404  55.356  1.00  0.00    -0.327 N 
HETATM    3  O   UNL     1       8.403  26.400  56.983  1.00  0.00    -0.273 OA
HETATM    4  H   UNL     1       5.878  26.891  55.101  1.00  0.00     0.169 HD
ENDROOT
BRANCH   1   5
HETATM    5  C   UNL     1       6.514  27.828  57.291  1.00  0.00     0.133 C 
BRANCH   5   6
HETATM    6  C   UNL     1       6.759  29.247  56.766  1.00  0.00     0.126 C 
BRANCH   6   7
HETATM    7  C   UNL     1       7.481  30.081  57.815  1.00  0.00    -0.035 A 
HETATM    8  C   UNL     1       6.810  31.033  58.597  1.00  0.00     0.010 A 
HETATM    9  C   UNL     1       7.485  31.747  59.590  1.00  0.00     0.007 A 
HETATM   10  C   UNL     1       8.845  31.523  59.828  1.00  0.00    -0.062 A 
HETATM   11  C   UNL     1       9.549  32.254  60.932  1.00  0.00     0.048 C 
HETATM   12  C   UNL     1       9.516  30.562  59.065  1.00  0.00     0.007 A 
HETATM   13  C   UNL     1       8.843  29.853  58.066  1.00  0.00     0.010 A 
ENDBRANCH   6   7
BRANCH   6  14
HETATM   14  N   UNL     1       5.592  29.951  56.232  1.00  0.00    -0.352 N 
HETATM   15  C   UNL     1       4.962  29.690  55.039  1.00  0.00     0.214 C 
HETATM   16  C   UNL     1       3.756  30.559  54.802  1.00  0.00     0.117 C 
HETATM   17  O   UNL     1       5.318  28.834  54.235  1.00  0.00    -0.274 OA
HETATM   18  H   UNL     1       5.149  30.602  56.866  1.00  0.00     0.163 HD
ENDBRANCH   6  14
ENDBRANCH   5   6
ENDBRANCH   1   5
BRANCH   2  19
HETATM   19  C   UNL     1       7.184  25.438  54.435  1.00  0.00     0.035 A 
HETATM   20  C   UNL     1       7.546  24.134  54.782  1.00  0.00     0.042 A 
HETATM   21  C   UNL     1       7.997  23.223  53.810  1.00  0.00    -0.021 A 
HETATM   22  C   UNL     1       8.059  23.637  52.473  1.00  0.00     0.012 A 
HETATM   23  C   UNL     1       7.698  24.937  52.117  1.00  0.00     0.003 A 
HETATM   24  C   UNL     1       7.271  25.834  53.095  1.00  0.00     0.029 A 
BRANCH  21  25
HETATM   25  C   UNL     1       8.393  21.879  54.199  1.00  0.00     0.010 A 
HETATM   26  C   UNL     1       8.406  20.667  53.466  1.00  0.00     0.152 A 
HETATM   27  N   UNL     1       8.821  19.625  54.192  1.00  0.00    -0.187 NA
HETATM   28  N   UNL     1       9.066  20.161  55.397  1.00  0.00    -0.289 N 
HETATM   29  H   UNL     1       9.390  19.548  56.138  1.00  0.00     0.188 HD
HETATM   30  C   UNL     1       8.826  21.503  55.455  1.00  0.00     0.123 A 
ENDBRANCH  21  25
ENDBRANCH   2  19
TORSDOF 6
ENDMDL
MODEL 4
REMARK VINA RESULT:      -9.3      4.647      9.428
REMARK  6 active torsions:
REMARK  status: ('A' for Active; 'I' for Inactive)
REMARK    1  A    between atoms: C_5  and  C_6 
REMARK    2  A    between atoms: C_6  and  N_7 
REMARK    3  A    between atoms: C_6  and  C_11 
REMARK       I    between atoms: N_7  and  C_8 
REMARK    4  A    between atoms: C_11  and  C_12 
REMARK       I    between atoms: C_12  and  N_13 
REMARK    5  A    between atoms: N_13  and  C_14 
REMARK    6  A    between atoms: C_16  and  C_17 
ROOT
HETATM    1  C   UNL     1       5.865  25.643  51.600  1.00  0.00     0.224 C 
HETATM    2  N   UNL     1       5.762  26.812  50.867  1.00  0.00    -0.327 N 
HETATM    3  O   UNL     1       4.941  25.016  52.109  1.00  0.00    -0.273 OA
HETATM    4  H   UNL     1       6.626  27.171  50.473  1.00  0.00     0.169 HD
ENDROOT
BRANCH   1   5
HETATM    5  C   UNL     1       7.301  25.205  51.801  1.00  0.00     0.133 C 
BRANCH   5   6
HETATM    6  C   UNL     1       7.720  25.348  53.268  1.00  0.00     0.126 C 
BRANCH   6   7
HETATM    7  C   UNL     1       7.785  23.981  53.934  1.00  0.00    -0.035 A 
HETATM    8  C   UNL     1       7.863  22.795  53.189  1.00  0.00     0.010 A 
HETATM    9  C   UNL     1       7.977  21.556  53.826  1.00  0.00     0.007 A 
HETATM   10  C   UNL     1       8.020  21.475  55.222  1.00  0.00    -0.062 A 
HETATM   11  C   UNL     1       8.198  20.147  55.896  1.00  0.00     0.048 C 
HETATM   12  C   UNL     1       7.963  22.655  55.970  1.00  0.00     0.007 A 
HETATM   13  C   UNL     1       7.841  23.893  55.334  1.00  0.00     0.010 A 
ENDBRANCH   6   7
BRANCH   6  14
HETATM   14  N   UNL     1       6.951  26.299  54.073  1.00  0.00    -0.352 N 
HETATM   15  C   UNL     1       7.231  27.634  54.240  1.00  0.00     0.214 C 
HETATM   16  C   UNL     1       6.215  28.352  55.088  1.00  0.00     0.117 C 
HETATM   17  O   UNL     1       8.196  28.211  53.750  1.00  0.00    -0.274 OA
HETATM   18  H   UNL     1       6.071  25.954  54.430  1.00  0.00     0.163 HD
ENDBRANCH   6  14
ENDBRANCH   5   6
ENDBRANCH   1   5
BRANCH   2  19
HETATM   19  C   UNL     1       4.595  27.530  50.540  1.00  0.00     0.035 A 
HETATM   20  C   UNL     1       3.816  27.287  49.405  1.00  0.00     0.042 A 
HETATM   21  C   UNL     1       2.665  28.049  49.137  1.00  0.00    -0.021 A 
HETATM   22  C   UNL     1       2.293  29.052  50.042  1.00  0.00     0.012 A 
HETATM   23  C   UNL     1       3.063  29.301  51.178  1.00  0.00     0.003 A 
HETATM   24  C   UNL     1       4.212  28.549  51.420  1.00  0.00     0.029 A 
BRANCH  21  25
HETATM   25  C   UNL     1       1.886  27.793  47.936  1.00  0.00     0.010 A 
HETATM   26  C   UNL     1       0.882  28.565  47.300  1.00  0.00     0.152 A 
HETATM   27  N   UNL     1       0.379  27.969  46.214  1.00  0.00    -0.187 NA
HETATM   28  N   UNL     1       1.049  26.809  46.156  1.00  0.00    -0.289 N 
HETATM   29  H   UNL     1       0.829  26.165  45.403  1.00  0.00     0.188 HD
HETATM   30  C   UNL     1       1.960  26.654  47.160  1.00  0.00     0.123 A 
ENDBRANCH  21  25
ENDBRANCH   2  19
TORSDOF 6
ENDMDL
MODEL 5
REMARK VINA RESULT:      -9.1      4.615      8.496
REMARK  6 active torsions:
REMARK  status: ('A' for Active; 'I' for Inactive)
REMARK    1  A    between atoms: C_5  and  C_6 
REMARK    2  A    between atoms: C_6  and  N_7 
REMARK    3  A    between atoms: C_6  and  C_11 
REMARK       I    between atoms: N_7  and  C_8 
REMARK    4  A    between atoms: C_11  and  C_12 
REMARK       I    between atoms: C_12  and  N_13 
REMARK    5  A    between atoms: N_13  and  C_14 
REMARK    6  A    between atoms: C_16  and  C_17 
ROOT
HETATM    1  C   UNL     1       5.906  25.528  51.471  1.00  0.00     0.224 C 
HETATM    2  N   UNL     1       5.768  26.347  50.364  1.00  0.00    -0.327 N 
HETATM    3  O   UNL     1       5.003  25.127  52.199  1.00  0.00    -0.273 OA
HETATM    4  H   UNL     1       6.617  26.540  49.843  1.00  0.00     0.169 HD
ENDROOT
BRANCH   1   5
HETATM    5  C   UNL     1       7.352  25.200  51.778  1.00  0.00     0.133 C 
BRANCH   5   6
HETATM    6  C   UNL     1       7.676  25.466  53.252  1.00  0.00     0.126 C 
BRANCH   6   7
HETATM    7  C   UNL     1       7.790  24.153  54.013  1.00  0.00    -0.035 A 
HETATM    8  C   UNL     1       7.793  24.105  55.415  1.00  0.00     0.010 A 
HETATM    9  C   UNL     1       7.844  22.882  56.089  1.00  0.00     0.007 A 
HETATM   10  C   UNL     1       7.888  21.679  55.377  1.00  0.00    -0.062 A 
HETATM   11  C   UNL     1       7.888  20.369  56.107  1.00  0.00     0.048 C 
HETATM   12  C   UNL     1       7.866  21.718  53.980  1.00  0.00     0.007 A 
HETATM   13  C   UNL     1       7.823  22.941  53.305  1.00  0.00     0.010 A 
ENDBRANCH   6   7
BRANCH   6  14
HETATM   14  N   UNL     1       6.802  26.414  53.947  1.00  0.00    -0.352 N 
HETATM   15  C   UNL     1       7.102  27.718  54.255  1.00  0.00     0.214 C 
HETATM   16  C   UNL     1       5.968  28.446  54.927  1.00  0.00     0.117 C 
HETATM   17  O   UNL     1       8.171  28.266  54.007  1.00  0.00    -0.274 OA
HETATM   18  H   UNL     1       5.853  26.100  54.098  1.00  0.00     0.163 HD
ENDBRANCH   6  14
ENDBRANCH   5   6
ENDBRANCH   1   5
BRANCH   2  19
HETATM   19  C   UNL     1       4.584  26.891  49.830  1.00  0.00     0.035 A 
HETATM   20  C   UNL     1       3.997  28.079  50.274  1.00  0.00     0.042 A 
HETATM   21  C   UNL     1       2.808  28.561  49.698  1.00  0.00    -0.021 A 
HETATM   22  C   UNL     1       2.223  27.839  48.649  1.00  0.00     0.012 A 
HETATM   23  C   UNL     1       2.803  26.653  48.199  1.00  0.00     0.003 A 
HETATM   24  C   UNL     1       3.971  26.178  48.793  1.00  0.00     0.029 A 
BRANCH  21  25
HETATM   25  C   UNL     1       2.203  29.788  50.195  1.00  0.00     0.010 A 
HETATM   26  C   UNL     1       1.077  30.517  49.739  1.00  0.00     0.152 A 
HETATM   27  N   UNL     1       0.849  31.621  50.455  1.00  0.00    -0.187 NA
HETATM   28  N   UNL     1       1.833  31.611  51.366  1.00  0.00    -0.289 N 
HETATM   29  H   UNL     1       1.877  32.375  52.034  1.00  0.00     0.188 HD
HETATM   30  C   UNL     1       2.669  30.539  51.255  1.00  0.00     0.123 A 
ENDBRANCH  21  25
ENDBRANCH   2  19
TORSDOF 6
ENDMDL
MODEL 6
REMARK VINA RESULT:      -9.1      2.600      8.418
REMARK  6 active torsions:
REMARK  status: ('A' for Active; 'I' for Inactive)
REMARK    1  A    between atoms: C_5  and  C_6 
REMARK    2  A    between atoms: C_6  and  N_7 
REMARK    3  A    between atoms: C_6  and  C_11 
REMARK       I    between atoms: N_7  and  C_8 
REMARK    4  A    between atoms: C_11  and  C_12 
REMARK       I    between atoms: C_12  and  N_13 
REMARK    5  A    between atoms: N_13  and  C_14 
REMARK    6  A    between atoms: C_16  and  C_17 
ROOT
HETATM    1  C   UNL     1       7.292  26.851  56.640  1.00  0.00     0.224 C 
HETATM    2  N   UNL     1       6.708  26.491  55.439  1.00  0.00    -0.327 N 
HETATM    3  O   UNL     1       8.331  26.397  57.112  1.00  0.00    -0.273 OA
HETATM    4  H   UNL     1       5.874  27.006  55.176  1.00  0.00     0.169 HD
ENDROOT
BRANCH   1   5
HETATM    5  C   UNL     1       6.467  27.859  57.412  1.00  0.00     0.133 C 
BRANCH   5   6
HETATM    6  C   UNL     1       7.293  29.105  57.748  1.00  0.00     0.126 C 
BRANCH   6   7
HETATM    7  C   UNL     1       6.479  30.364  57.487  1.00  0.00    -0.035 A 
HETATM    8  C   UNL     1       5.760  30.550  56.297  1.00  0.00     0.010 A 
HETATM    9  C   UNL     1       4.977  31.692  56.106  1.00  0.00     0.007 A 
HETATM   10  C   UNL     1       4.891  32.671  57.101  1.00  0.00    -0.062 A 
HETATM   11  C   UNL     1       4.006  33.866  56.909  1.00  0.00     0.048 C 
HETATM   12  C   UNL     1       5.591  32.483  58.297  1.00  0.00     0.007 A 
HETATM   13  C   UNL     1       6.380  31.346  58.486  1.00  0.00     0.010 A 
ENDBRANCH   6   7
BRANCH   6  14
HETATM   14  N   UNL     1       8.620  29.188  57.134  1.00  0.00    -0.352 N 
HETATM   15  C   UNL     1       9.726  29.801  57.672  1.00  0.00     0.214 C 
HETATM   16  C   UNL     1      10.956  29.666  56.814  1.00  0.00     0.117 C 
HETATM   17  O   UNL     1       9.742  30.394  58.746  1.00  0.00    -0.274 OA
HETATM   18  H   UNL     1       8.747  28.636  56.298  1.00  0.00     0.163 HD
ENDBRANCH   6  14
ENDBRANCH   5   6
ENDBRANCH   1   5
BRANCH   2  19
HETATM   19  C   UNL     1       7.165  25.545  54.501  1.00  0.00     0.035 A 
HETATM   20  C   UNL     1       7.431  24.207  54.803  1.00  0.00     0.042 A 
HETATM   21  C   UNL     1       7.893  23.317  53.817  1.00  0.00    -0.021 A 
HETATM   22  C   UNL     1       8.065  23.789  52.509  1.00  0.00     0.012 A 
HETATM   23  C   UNL     1       7.800  25.123  52.197  1.00  0.00     0.003 A 
HETATM   24  C   UNL     1       7.362  25.997  53.191  1.00  0.00     0.029 A 
BRANCH  21  25
HETATM   25  C   UNL     1       8.187  21.935  54.162  1.00  0.00     0.010 A 
HETATM   26  C   UNL     1       8.596  20.845  53.355  1.00  0.00     0.152 A 
HETATM   27  N   UNL     1       8.744  19.712  54.049  1.00  0.00    -0.187 NA
HETATM   28  N   UNL     1       8.421  20.068  55.301  1.00  0.00    -0.289 N 
HETATM   29  H   UNL     1       8.448  19.357  56.025  1.00  0.00     0.188 HD
HETATM   30  C   UNL     1       8.081  21.384  55.423  1.00  0.00     0.123 A 
ENDBRANCH  21  25
ENDBRANCH   2  19
TORSDOF 6
ENDMDL
MODEL 7
REMARK VINA RESULT:      -8.9      4.136      8.370
REMARK  6 active torsions:
REMARK  status: ('A' for Active; 'I' for Inactive)
REMARK    1  A    between atoms: C_5  and  C_6 
REMARK    2  A    between atoms: C_6  and  N_7 
REMARK    3  A    between atoms: C_6  and  C_11 
REMARK       I    between atoms: N_7  and  C_8 
REMARK    4  A    between atoms: C_11  and  C_12 
REMARK       I    between atoms: C_12  and  N_13 
REMARK    5  A    between atoms: N_13  and  C_14 
REMARK    6  A    between atoms: C_16  and  C_17 
ROOT
HETATM    1  C   UNL     1       4.733  26.169  52.343  1.00  0.00     0.224 C 
HETATM    2  N   UNL     1       4.889  25.884  50.998  1.00  0.00    -0.327 N 
HETATM    3  O   UNL     1       4.397  27.246  52.827  1.00  0.00    -0.273 OA
HETATM    4  H   UNL     1       5.122  24.923  50.769  1.00  0.00     0.169 HD
ENDROOT
BRANCH   1   5
HETATM    5  C   UNL     1       5.098  25.000  53.234  1.00  0.00     0.133 C 
BRANCH   5   6
HETATM    6  C   UNL     1       6.551  25.105  53.711  1.00  0.00     0.126 C 
BRANCH   6   7
HETATM    7  C   UNL     1       7.112  23.720  54.001  1.00  0.00    -0.035 A 
HETATM    8  C   UNL     1       7.626  22.900  52.986  1.00  0.00     0.010 A 
HETATM    9  C   UNL     1       8.186  21.655  53.287  1.00  0.00     0.007 A 
HETATM   10  C   UNL     1       8.247  21.203  54.609  1.00  0.00    -0.062 A 
HETATM   11  C   UNL     1       8.898  19.890  54.929  1.00  0.00     0.048 C 
HETATM   12  C   UNL     1       7.754  22.023  55.628  1.00  0.00     0.007 A 
HETATM   13  C   UNL     1       7.187  23.265  55.327  1.00  0.00     0.010 A 
ENDBRANCH   6   7
BRANCH   6  14
HETATM   14  N   UNL     1       6.804  26.028  54.819  1.00  0.00    -0.352 N 
HETATM   15  C   UNL     1       7.383  27.270  54.724  1.00  0.00     0.214 C 
HETATM   16  C   UNL     1       7.455  27.994  56.042  1.00  0.00     0.117 C 
HETATM   17  O   UNL     1       7.796  27.770  53.683  1.00  0.00    -0.274 OA
HETATM   18  H   UNL     1       6.401  25.762  55.707  1.00  0.00     0.163 HD
ENDBRANCH   6  14
ENDBRANCH   5   6
ENDBRANCH   1   5
BRANCH   2  19
HETATM   19  C   UNL     1       4.697  26.746  49.901  1.00  0.00     0.035 A 
HETATM   20  C   UNL     1       5.059  28.096  49.892  1.00  0.00     0.042 A 
HETATM   21  C   UNL     1       4.831  28.901  48.762  1.00  0.00    -0.021 A 
HETATM   22  C   UNL     1       4.249  28.323  47.626  1.00  0.00     0.012 A 
HETATM   23  C   UNL     1       3.886  26.977  47.625  1.00  0.00     0.003 A 
HETATM   24  C   UNL     1       4.101  26.196  48.760  1.00  0.00     0.029 A 
BRANCH  21  25
HETATM   25  C   UNL     1       5.194  30.310  48.786  1.00  0.00     0.010 A 
HETATM   26  C   UNL     1       4.914  31.356  47.872  1.00  0.00     0.152 A 
HETATM   27  N   UNL     1       5.449  32.524  48.239  1.00  0.00    -0.187 NA
HETATM   28  N   UNL     1       6.082  32.231  49.384  1.00  0.00    -0.289 N 
HETATM   29  H   UNL     1       6.585  32.974  49.859  1.00  0.00     0.188 HD
HETATM   30  C   UNL     1       5.961  30.923  49.755  1.00  0.00     0.123 A 
ENDBRANCH  21  25
ENDBRANCH   2  19
TORSDOF 6
ENDMDL
MODEL 8
REMARK VINA RESULT:      -8.8      4.140     10.326
REMARK  6 active torsions:
REMARK  status: ('A' for Active; 'I' for Inactive)
REMARK    1  A    between atoms: C_5  and  C_6 
REMARK    2  A    between atoms: C_6  and  N_7 
REMARK    3  A    between atoms: C_6  and  C_11 
REMARK       I    between atoms: N_7  and  C_8 
REMARK    4  A    between atoms: C_11  and  C_12 
REMARK       I    between atoms: C_12  and  N_13 
REMARK    5  A    between atoms: N_13  and  C_14 
REMARK    6  A    between atoms: C_16  and  C_17 
ROOT
HETATM    1  C   UNL     1       8.197  31.778  60.375  1.00  0.00     0.224 C 
HETATM    2  N   UNL     1       7.937  30.490  59.941  1.00  0.00    -0.327 N 
HETATM    3  O   UNL     1       8.698  32.684  59.715  1.00  0.00    -0.273 OA
HETATM    4  H   UNL     1       7.470  29.880  60.603  1.00  0.00     0.169 HD
ENDROOT
BRANCH   1   5
HETATM    5  C   UNL     1       7.860  31.980  61.837  1.00  0.00     0.133 C 
BRANCH   5   6
HETATM    6  C   UNL     1       6.556  32.768  61.998  1.00  0.00     0.126 C 
BRANCH   6   7
HETATM    7  C   UNL     1       6.345  33.147  63.457  1.00  0.00    -0.035 A 
HETATM    8  C   UNL     1       7.420  33.395  64.323  1.00  0.00     0.010 A 
HETATM    9  C   UNL     1       7.197  33.795  65.644  1.00  0.00     0.007 A 
HETATM   10  C   UNL     1       5.896  33.958  66.128  1.00  0.00    -0.062 A 
HETATM   11  C   UNL     1       5.666  34.439  67.530  1.00  0.00     0.048 C 
HETATM   12  C   UNL     1       4.819  33.730  65.265  1.00  0.00     0.007 A 
HETATM   13  C   UNL     1       5.041  33.324  63.946  1.00  0.00     0.010 A 
ENDBRANCH   6   7
BRANCH   6  14
HETATM   14  N   UNL     1       5.355  32.159  61.424  1.00  0.00    -0.352 N 
HETATM   15  C   UNL     1       4.597  32.670  60.398  1.00  0.00     0.214 C 
HETATM   16  C   UNL     1       3.453  31.775  60.002  1.00  0.00     0.117 C 
HETATM   17  O   UNL     1       4.815  33.737  59.834  1.00  0.00    -0.274 OA
HETATM   18  H   UNL     1       5.149  31.221  61.740  1.00  0.00     0.163 HD
ENDBRANCH   6  14
ENDBRANCH   5   6
ENDBRANCH   1   5
BRANCH   2  19
HETATM   19  C   UNL     1       8.180  29.938  58.667  1.00  0.00     0.035 A 
HETATM   20  C   UNL     1       7.199  29.343  57.870  1.00  0.00     0.042 A 
HETATM   21  C   UNL     1       7.514  28.806  56.610  1.00  0.00    -0.021 A 
HETATM   22  C   UNL     1       8.834  28.894  56.148  1.00  0.00     0.012 A 
HETATM   23  C   UNL     1       9.820  29.488  56.936  1.00  0.00     0.003 A 
HETATM   24  C   UNL     1       9.495  29.999  58.192  1.00  0.00     0.029 A 
BRANCH  21  25
HETATM   25  C   UNL     1       6.479  28.168  55.810  1.00  0.00     0.010 A 
HETATM   26  C   UNL     1       6.320  28.073  54.405  1.00  0.00     0.152 A 
HETATM   27  N   UNL     1       5.210  27.417  54.052  1.00  0.00    -0.187 NA
HETATM   28  N   UNL     1       4.648  27.099  55.227  1.00  0.00    -0.289 N 
HETATM   29  H   UNL     1       3.768  26.593  55.217  1.00  0.00     0.188 HD
HETATM   30  C   UNL     1       5.365  27.523  56.308  1.00  0.00     0.123 A 
ENDBRANCH  21  25
ENDBRANCH   2  19
TORSDOF 6
ENDMDL
MODEL 9
REMARK VINA RESULT:      -8.8      2.815      4.552
REMARK  6 active torsions:
REMARK  status: ('A' for Active; 'I' for Inactive)
REMARK    1  A    between atoms: C_5  and  C_6 
REMARK    2  A    between atoms: C_6  and  N_7 
REMARK    3  A    between atoms: C_6  and  C_11 
REMARK       I    between atoms: N_7  and  C_8 
REMARK    4  A    between atoms: C_11  and  C_12 
REMARK       I    between atoms: C_12  and  N_13 
REMARK    5  A    between atoms: N_13  and  C_14 
REMARK    6  A    between atoms: C_16  and  C_17 
ROOT
HETATM    1  C   UNL     1       8.189  29.140  57.365  1.00  0.00     0.224 C 
HETATM    2  N   UNL     1       8.177  30.486  57.684  1.00  0.00    -0.327 N 
HETATM    3  O   UNL     1       8.277  28.203  58.154  1.00  0.00    -0.273 OA
HETATM    4  H   UNL     1       8.046  31.128  56.909  1.00  0.00     0.169 HD
ENDROOT
BRANCH   1   5
HETATM    5  C   UNL     1       8.154  28.894  55.871  1.00  0.00     0.133 C 
BRANCH   5   6
HETATM    6  C   UNL     1       6.839  28.227  55.454  1.00  0.00     0.126 C 
BRANCH   6   7
HETATM    7  C   UNL     1       7.115  26.886  54.788  1.00  0.00    -0.035 A 
HETATM    8  C   UNL     1       7.488  26.790  53.439  1.00  0.00     0.010 A 
HETATM    9  C   UNL     1       7.789  25.550  52.868  1.00  0.00     0.007 A 
HETATM   10  C   UNL     1       7.726  24.380  53.631  1.00  0.00    -0.062 A 
HETATM   11  C   UNL     1       8.102  23.062  53.025  1.00  0.00     0.048 C 
HETATM   12  C   UNL     1       7.373  24.471  54.981  1.00  0.00     0.007 A 
HETATM   13  C   UNL     1       7.065  25.709  55.552  1.00  0.00     0.010 A 
ENDBRANCH   6   7
BRANCH   6  14
HETATM   14  N   UNL     1       5.924  29.044  54.654  1.00  0.00    -0.352 N 
HETATM   15  C   UNL     1       4.565  29.144  54.826  1.00  0.00     0.214 C 
HETATM   16  C   UNL     1       3.915  30.111  53.872  1.00  0.00     0.117 C 
HETATM   17  O   UNL     1       3.921  28.532  55.672  1.00  0.00    -0.274 OA
HETATM   18  H   UNL     1       6.364  29.676  54.000  1.00  0.00     0.163 HD
ENDBRANCH   6  14
ENDBRANCH   5   6
ENDBRANCH   1   5
BRANCH   2  19
HETATM   19  C   UNL     1       8.257  31.076  58.961  1.00  0.00     0.035 A 
HETATM   20  C   UNL     1       7.159  31.275  59.802  1.00  0.00     0.042 A 
HETATM   21  C   UNL     1       7.311  31.878  61.064  1.00  0.00    -0.021 A 
HETATM   22  C   UNL     1       8.593  32.260  61.481  1.00  0.00     0.012 A 
HETATM   23  C   UNL     1       9.695  32.063  60.649  1.00  0.00     0.003 A 
HETATM   24  C   UNL     1       9.525  31.482  59.392  1.00  0.00     0.029 A 
BRANCH  21  25
HETATM   25  C   UNL     1       6.148  32.098  61.910  1.00  0.00     0.010 A 
HETATM   26  C   UNL     1       6.018  32.114  63.321  1.00  0.00     0.152 A 
HETATM   27  N   UNL     1       4.763  32.330  63.724  1.00  0.00    -0.187 NA
HETATM   28  N   UNL     1       4.081  32.443  62.575  1.00  0.00    -0.289 N 
HETATM   29  H   UNL     1       3.080  32.604  62.625  1.00  0.00     0.188 HD
HETATM   30  C   UNL     1       4.860  32.312  61.463  1.00  0.00     0.123 A 
ENDBRANCH  21  25
ENDBRANCH   2  19
TORSDOF 6
ENDMDL
MODEL 10
REMARK VINA RESULT:      -8.7      2.420      4.105
REMARK  6 active torsions:
REMARK  status: ('A' for Active; 'I' for Inactive)
REMARK    1  A    between atoms: C_5  and  C_6 
REMARK    2  A    between atoms: C_6  and  N_7 
REMARK    3  A    between atoms: C_6  and  C_11 
REMARK       I    between atoms: N_7  and  C_8 
REMARK    4  A    between atoms: C_11  and  C_12 
REMARK       I    between atoms: C_12  and  N_13 
REMARK    5  A    between atoms: N_13  and  C_14 
REMARK    6  A    between atoms: C_16  and  C_17 
ROOT
HETATM    1  C   UNL     1       6.851  27.517  55.634  1.00  0.00     0.224 C 
HETATM    2  N   UNL     1       7.204  28.854  55.667  1.00  0.00    -0.327 N 
HETATM    3  O   UNL     1       6.168  26.921  56.462  1.00  0.00    -0.273 OA
HETATM    4  H   UNL     1       7.733  29.197  54.871  1.00  0.00     0.169 HD
ENDROOT
BRANCH   1   5
HETATM    5  C   UNL     1       7.467  26.780  54.464  1.00  0.00     0.133 C 
BRANCH   5   6
HETATM    6  C   UNL     1       6.487  25.756  53.880  1.00  0.00     0.126 C 
BRANCH   6   7
HETATM    7  C   UNL     1       7.029  24.345  54.057  1.00  0.00    -0.035 A 
HETATM    8  C   UNL     1       7.085  23.723  55.313  1.00  0.00     0.010 A 
HETATM    9  C   UNL     1       7.537  22.407  55.439  1.00  0.00     0.007 A 
HETATM   10  C   UNL     1       7.940  21.681  54.313  1.00  0.00    -0.062 A 
HETATM   11  C   UNL     1       8.372  20.252  54.451  1.00  0.00     0.048 C 
HETATM   12  C   UNL     1       7.869  22.288  53.056  1.00  0.00     0.007 A 
HETATM   13  C   UNL     1       7.424  23.607  52.929  1.00  0.00     0.010 A 
ENDBRANCH   6   7
BRANCH   6  14
HETATM   14  N   UNL     1       6.046  25.992  52.504  1.00  0.00    -0.352 N 
HETATM   15  C   UNL     1       5.055  26.856  52.106  1.00  0.00     0.214 C 
HETATM   16  C   UNL     1       4.877  26.908  50.612  1.00  0.00     0.117 C 
HETATM   17  O   UNL     1       4.376  27.538  52.867  1.00  0.00    -0.274 OA
HETATM   18  H   UNL     1       6.614  25.563  51.786  1.00  0.00     0.163 HD
ENDBRANCH   6  14
ENDBRANCH   5   6
ENDBRANCH   1   5
BRANCH   2  19
HETATM   19  C   UNL     1       6.863  29.818  56.636  1.00  0.00     0.035 A 
HETATM   20  C   UNL     1       7.534  29.979  57.852  1.00  0.00     0.042 A 
HETATM   21  C   UNL     1       7.133  30.959  58.778  1.00  0.00    -0.021 A 
HETATM   22  C   UNL     1       6.056  31.794  58.455  1.00  0.00     0.012 A 
HETATM   23  C   UNL     1       5.382  31.642  57.243  1.00  0.00     0.003 A 
HETATM   24  C   UNL     1       5.778  30.653  56.344  1.00  0.00     0.029 A 
BRANCH  21  25
HETATM   25  C   UNL     1       7.832  31.089  60.047  1.00  0.00     0.010 A 
HETATM   26  C   UNL     1       7.427  31.676  61.272  1.00  0.00     0.152 A 
HETATM   27  N   UNL     1       8.374  31.618  62.213  1.00  0.00    -0.187 NA
HETATM   28  N   UNL     1       9.393  31.004  61.594  1.00  0.00    -0.289 N 
HETATM   29  H   UNL     1      10.250  30.852  62.115  1.00  0.00     0.188 HD
HETATM   30  C   UNL     1       9.121  30.668  60.300  1.00  0.00     0.123 A 
ENDBRANCH  21  25
ENDBRANCH   2  19
TORSDOF 6
ENDMDL
