MODEL 1
REMARK VINA RESULT:     -10.3      0.000      0.000
REMARK  5 active torsions:
REMARK  status: ('A' for Active; 'I' for Inactive)
REMARK    1  A    between atoms: O_2  and  C_3 
REMARK    2  A    between atoms: C_6  and  C_7 
REMARK    3  A    between atoms: C_11  and  N_12 
REMARK       I    between atoms: N_15  and  C_16 
REMARK    4  A    between atoms: C_16  and  C_17 
REMARK    5  A    between atoms: C_17  and  C_18 
ROOT
HETATM    1  N   UNL     1       7.127  30.369  57.527  1.00  0.00    -0.363 N 
HETATM    2  C   UNL     1       8.224  29.749  56.746  1.00  0.00     0.144 C 
HETATM    3  C   UNL     1       8.140  28.206  56.776  1.00  0.00     0.145 C 
HETATM    4  N   UNL     1       6.795  27.748  56.392  1.00  0.00    -0.349 N 
HETATM    5  C   UNL     1       6.444  27.336  55.113  1.00  0.00     0.224 C 
HETATM    6  O   UNL     1       5.274  27.376  54.719  1.00  0.00    -0.273 OA
HETATM    7  C   UNL     1       5.741  28.329  57.234  1.00  0.00     0.145 C 
HETATM    8  C   UNL     1       5.778  29.868  57.149  1.00  0.00     0.144 C 
ENDROOT
BRANCH   1   9
HETATM    9  C   UNL     1       7.355  30.791  58.805  1.00  0.00     0.122 A 
HETATM   10  N   UNL     1       8.383  30.289  59.561  1.00  0.00    -0.262 N 
HETATM   11  N   UNL     1       8.438  30.766  60.813  1.00  0.00    -0.173 NA
HETATM   12  H   UNL     1       9.053  29.582  59.287  1.00  0.00     0.191 HD
HETATM   13  C   UNL     1       7.397  31.610  60.889  1.00  0.00     0.090 A 
HETATM   14  C   UNL     1       6.688  31.645  59.654  1.00  0.00     0.084 A 
BRANCH  13  15
HETATM   15  C   UNL     1       7.081  32.328  62.121  1.00  0.00    -0.005 A 
HETATM   16  C   UNL     1       5.806  32.861  62.337  1.00  0.00     0.016 A 
HETATM   17  C   UNL     1       5.513  33.522  63.535  1.00  0.00     0.037 A 
HETATM   18  C   UNL     1       6.477  33.647  64.537  1.00  0.00     0.068 A 
HETATM   19  C   UNL     1       7.756  33.135  64.320  1.00  0.00     0.037 A 
HETATM   20  C   UNL     1       8.056  32.483  63.116  1.00  0.00     0.016 A 
BRANCH  18  21
HETATM   21  O   UNL     1       6.055  34.294  65.665  1.00  0.00    -0.356 OA
HETATM   22  C   UNL     1       4.771  33.932  66.161  1.00  0.00     0.210 C 
ENDBRANCH  18  21
ENDBRANCH  13  15
ENDBRANCH   1   9
BRANCH   5  23
HETATM   23  C   UNL     1       7.532  26.813  54.188  1.00  0.00     0.141 C 
BRANCH  23  24
HETATM   24  C   UNL     1       7.585  25.308  54.033  1.00  0.00    -0.049 A 
HETATM   25  C   UNL     1       7.502  24.437  55.131  1.00  0.00     0.009 A 
HETATM   26  C   UNL     1       7.590  23.054  54.952  1.00  0.00     0.019 A 
HETATM   27  C   UNL     1       7.789  22.532  53.678  1.00  0.00     0.011 A 
HETATM   28 BR   UNL     1       7.922  20.661  53.440  1.00  0.00    -0.051 Br
HETATM   29  C   UNL     1       7.904  23.380  52.580  1.00  0.00     0.019 A 
HETATM   30  C   UNL     1       7.805  24.762  52.759  1.00  0.00     0.009 A 
ENDBRANCH  23  24
ENDBRANCH   5  23
TORSDOF 5
ENDMDL
MODEL 2
REMARK VINA RESULT:      -9.9      1.362      1.929
REMARK  5 active torsions:
REMARK  status: ('A' for Active; 'I' for Inactive)
REMARK    1  A    between atoms: O_2  and  C_3 
REMARK    2  A    between atoms: C_6  and  C_7 
REMARK    3  A    between atoms: C_11  and  N_12 
REMARK       I    between atoms: N_15  and  C_16 
REMARK    4  A    between atoms: C_16  and  C_17 
REMARK    5  A    between atoms: C_17  and  C_18 
ROOT
HETATM    1  N   UNL     1       8.565  28.700  57.400  1.00  0.00    -0.363 N 
HETATM    2  C   UNL     1       7.676  27.537  57.637  1.00  0.00     0.144 C 
HETATM    3  C   UNL     1       6.345  27.674  56.862  1.00  0.00     0.145 C 
HETATM    4  N   UNL     1       6.596  27.961  55.440  1.00  0.00    -0.349 N 
HETATM    5  C   UNL     1       6.609  26.998  54.439  1.00  0.00     0.224 C 
HETATM    6  O   UNL     1       7.224  27.174  53.381  1.00  0.00    -0.273 OA
HETATM    7  C   UNL     1       7.421  29.160  55.243  1.00  0.00     0.145 C 
HETATM    8  C   UNL     1       8.778  28.996  55.958  1.00  0.00     0.144 C 
ENDROOT
BRANCH   1   9
HETATM    9  C   UNL     1       8.615  29.717  58.310  1.00  0.00     0.122 A 
HETATM   10  N   UNL     1       9.722  30.513  58.446  1.00  0.00    -0.262 N 
HETATM   11  N   UNL     1       9.633  31.429  59.422  1.00  0.00    -0.173 NA
HETATM   12  H   UNL     1      10.589  30.448  57.927  1.00  0.00     0.191 HD
HETATM   13  C   UNL     1       8.422  31.219  59.960  1.00  0.00     0.090 A 
HETATM   14  C   UNL     1       7.757  30.148  59.296  1.00  0.00     0.084 A 
BRANCH  13  15
HETATM   15  C   UNL     1       7.940  32.005  61.092  1.00  0.00    -0.005 A 
HETATM   16  C   UNL     1       6.808  32.819  60.975  1.00  0.00     0.016 A 
HETATM   17  C   UNL     1       6.344  33.542  62.079  1.00  0.00     0.037 A 
HETATM   18  C   UNL     1       6.989  33.454  63.314  1.00  0.00     0.068 A 
HETATM   19  C   UNL     1       8.130  32.661  63.432  1.00  0.00     0.037 A 
HETATM   20  C   UNL     1       8.604  31.944  62.325  1.00  0.00     0.016 A 
BRANCH  18  21
HETATM   21  O   UNL     1       6.420  34.193  64.314  1.00  0.00    -0.356 OA
HETATM   22  C   UNL     1       6.743  33.813  65.647  1.00  0.00     0.210 C 
ENDBRANCH  18  21
ENDBRANCH  13  15
ENDBRANCH   1   9
BRANCH   5  23
HETATM   23  C   UNL     1       5.835  25.707  54.654  1.00  0.00     0.141 C 
BRANCH  23  24
HETATM   24  C   UNL     1       6.614  24.433  54.404  1.00  0.00    -0.049 A 
HETATM   25  C   UNL     1       6.871  23.952  53.110  1.00  0.00     0.009 A 
HETATM   26  C   UNL     1       7.564  22.753  52.920  1.00  0.00     0.019 A 
HETATM   27  C   UNL     1       7.980  22.012  54.021  1.00  0.00     0.011 A 
HETATM   28 BR   UNL     1       8.904  20.383  53.762  1.00  0.00    -0.051 Br
HETATM   29  C   UNL     1       7.708  22.456  55.312  1.00  0.00     0.019 A 
HETATM   30  C   UNL     1       7.025  23.660  55.501  1.00  0.00     0.009 A 
ENDBRANCH  23  24
ENDBRANCH   5  23
TORSDOF 5
ENDMDL
MODEL 3
REMARK VINA RESULT:      -9.6      4.040     11.013
REMARK  5 active torsions:
REMARK  status: ('A' for Active; 'I' for Inactive)
REMARK    1  A    between atoms: O_2  and  C_3 
REMARK    2  A    between atoms: C_6  and  C_7 
REMARK    3  A    between atoms: C_11  and  N_12 
REMARK       I    between atoms: N_15  and  C_16 
REMARK    4  A    between atoms: C_16  and  C_17 
REMARK    5  A    between atoms: C_17  and  C_18 
ROOT
HETATM    1  N   UNL     1       7.092  29.281  55.749  1.00  0.00    -0.363 N 
HETATM    2  C   UNL     1       5.967  29.971  56.425  1.00  0.00     0.144 C 
HETATM    3  C   UNL     1       6.066  29.842  57.963  1.00  0.00     0.145 C 
HETATM    4  N   UNL     1       7.398  30.253  58.437  1.00  0.00    -0.349 N 
HETATM    5  C   UNL     1       7.697  31.516  58.931  1.00  0.00     0.224 C 
HETATM    6  O   UNL     1       8.849  31.962  58.911  1.00  0.00    -0.273 OA
HETATM    7  C   UNL     1       8.482  29.497  57.796  1.00  0.00     0.145 C 
HETATM    8  C   UNL     1       8.427  29.682  56.266  1.00  0.00     0.144 C 
ENDROOT
BRANCH   1   9
HETATM    9  C   UNL     1       6.914  28.025  55.244  1.00  0.00     0.122 A 
HETATM   10  N   UNL     1       5.754  27.655  54.613  1.00  0.00    -0.262 N 
HETATM   11  N   UNL     1       5.717  26.372  54.224  1.00  0.00    -0.173 NA
HETATM   12  H   UNL     1       4.934  28.228  54.460  1.00  0.00     0.191 HD
HETATM   13  C   UNL     1       6.895  25.872  54.625  1.00  0.00     0.090 A 
HETATM   14  C   UNL     1       7.670  26.875  55.277  1.00  0.00     0.084 A 
BRANCH  13  15
HETATM   15  C   UNL     1       7.245  24.470  54.414  1.00  0.00    -0.005 A 
HETATM   16  C   UNL     1       7.378  23.591  55.494  1.00  0.00     0.016 A 
HETATM   17  C   UNL     1       7.685  22.244  55.272  1.00  0.00     0.037 A 
HETATM   18  C   UNL     1       7.848  21.753  53.975  1.00  0.00     0.068 A 
HETATM   19  C   UNL     1       7.736  22.628  52.895  1.00  0.00     0.037 A 
HETATM   20  C   UNL     1       7.440  23.980  53.116  1.00  0.00     0.016 A 
BRANCH  18  21
HETATM   21  O   UNL     1       8.123  20.415  53.897  1.00  0.00    -0.356 OA
HETATM   22  C   UNL     1       8.751  19.829  55.030  1.00  0.00     0.210 C 
ENDBRANCH  18  21
ENDBRANCH  13  15
ENDBRANCH   1   9
BRANCH   5  23
HETATM   23  C   UNL     1       6.575  32.357  59.520  1.00  0.00     0.141 C 
BRANCH  23  24
HETATM   24  C   UNL     1       6.728  32.709  60.985  1.00  0.00    -0.049 A 
HETATM   25  C   UNL     1       7.638  32.048  61.825  1.00  0.00     0.009 A 
HETATM   26  C   UNL     1       7.726  32.377  63.181  1.00  0.00     0.019 A 
HETATM   27  C   UNL     1       6.885  33.349  63.713  1.00  0.00     0.011 A 
HETATM   28 BR   UNL     1       6.996  33.783  65.549  1.00  0.00    -0.051 Br
HETATM   29  C   UNL     1       5.956  33.995  62.903  1.00  0.00     0.019 A 
HETATM   30  C   UNL     1       5.876  33.673  61.546  1.00  0.00     0.009 A 
ENDBRANCH  23  24
ENDBRANCH   5  23
TORSDOF 5
ENDMDL
MODEL 4
REMARK VINA RESULT:      -9.4      1.682      2.358
REMARK  5 active torsions:
REMARK  status: ('A' for Active; 'I' for Inactive)
REMARK    1  A    between atoms: O_2  and  C_3 
REMARK    2  A    between atoms: C_6  and  C_7 
REMARK    3  A    between atoms: C_11  and  N_12 
REMARK       I    between atoms: N_15  and  C_16 
REMARK    4  A    between atoms: C_16  and  C_17 
REMARK    5  A    between atoms: C_17  and  C_18 
ROOT
HETATM    1  N   UNL     1       6.245  29.899  55.874  1.00  0.00    -0.363 N 
HETATM    2  C   UNL     1       7.498  29.238  55.436  1.00  0.00     0.144 C 
HETATM    3  C   UNL     1       7.531  27.751  55.859  1.00  0.00     0.145 C 
HETATM    4  N   UNL     1       6.304  27.059  55.434  1.00  0.00    -0.349 N 
HETATM    5  C   UNL     1       6.193  26.304  54.273  1.00  0.00     0.224 C 
HETATM    6  O   UNL     1       5.100  26.108  53.732  1.00  0.00    -0.273 OA
HETATM    7  C   UNL     1       5.087  27.703  55.947  1.00  0.00     0.145 C 
HETATM    8  C   UNL     1       5.017  29.167  55.467  1.00  0.00     0.144 C 
ENDROOT
BRANCH   1   9
HETATM    9  C   UNL     1       6.235  30.649  57.015  1.00  0.00     0.122 A 
HETATM   10  N   UNL     1       5.675  31.900  57.053  1.00  0.00    -0.262 N 
HETATM   11  N   UNL     1       5.796  32.529  58.232  1.00  0.00    -0.173 NA
HETATM   12  H   UNL     1       5.234  32.396  56.289  1.00  0.00     0.191 HD
HETATM   13  C   UNL     1       6.474  31.661  58.999  1.00  0.00     0.090 A 
HETATM   14  C   UNL     1       6.776  30.475  58.269  1.00  0.00     0.084 A 
BRANCH  13  15
HETATM   15  C   UNL     1       6.843  31.980  60.375  1.00  0.00    -0.005 A 
HETATM   16  C   UNL     1       8.167  31.859  60.812  1.00  0.00     0.016 A 
HETATM   17  C   UNL     1       8.508  32.198  62.126  1.00  0.00     0.037 A 
HETATM   18  C   UNL     1       7.543  32.673  63.016  1.00  0.00     0.068 A 
HETATM   19  C   UNL     1       6.218  32.777  62.592  1.00  0.00     0.037 A 
HETATM   20  C   UNL     1       5.871  32.428  61.280  1.00  0.00     0.016 A 
BRANCH  18  21
HETATM   21  O   UNL     1       8.013  32.988  64.261  1.00  0.00    -0.356 OA
HETATM   22  C   UNL     1       7.173  33.804  65.069  1.00  0.00     0.210 C 
ENDBRANCH  18  21
ENDBRANCH  13  15
ENDBRANCH   1   9
BRANCH   5  23
HETATM   23  C   UNL     1       7.451  25.699  53.671  1.00  0.00     0.141 C 
BRANCH  23  24
HETATM   24  C   UNL     1       7.762  24.282  54.105  1.00  0.00    -0.049 A 
HETATM   25  C   UNL     1       7.583  23.180  53.254  1.00  0.00     0.009 A 
HETATM   26  C   UNL     1       7.847  21.882  53.701  1.00  0.00     0.019 A 
HETATM   27  C   UNL     1       8.265  21.674  55.012  1.00  0.00     0.011 A 
HETATM   28 BR   UNL     1       8.608  19.918  55.620  1.00  0.00    -0.051 Br
HETATM   29  C   UNL     1       8.420  22.751  55.881  1.00  0.00     0.019 A 
HETATM   30  C   UNL     1       8.166  24.048  55.428  1.00  0.00     0.009 A 
ENDBRANCH  23  24
ENDBRANCH   5  23
TORSDOF 5
ENDMDL
MODEL 5
REMARK VINA RESULT:      -8.9      1.930      2.403
REMARK  5 active torsions:
REMARK  status: ('A' for Active; 'I' for Inactive)
REMARK    1  A    between atoms: O_2  and  C_3 
REMARK    2  A    between atoms: C_6  and  C_7 
REMARK    3  A    between atoms: C_11  and  N_12 
REMARK       I    between atoms: N_15  and  C_16 
REMARK    4  A    between atoms: C_16  and  C_17 
REMARK    5  A    between atoms: C_17  and  C_18 
ROOT
HETATM    1  N   UNL     1       5.352  30.409  56.625  1.00  0.00    -0.363 N 
HETATM    2  C   UNL     1       6.719  29.898  56.359  1.00  0.00     0.144 C 
HETATM    3  C   UNL     1       6.829  28.388  56.673  1.00  0.00     0.145 C 
HETATM    4  N   UNL     1       5.762  27.635  55.996  1.00  0.00    -0.349 N 
HETATM    5  C   UNL     1       5.917  26.979  54.781  1.00  0.00     0.224 C 
HETATM    6  O   UNL     1       4.952  26.739  54.048  1.00  0.00    -0.273 OA
HETATM    7  C   UNL     1       4.420  28.125  56.339  1.00  0.00     0.145 C 
HETATM    8  C   UNL     1       4.285  29.614  55.961  1.00  0.00     0.144 C 
ENDROOT
BRANCH   1   9
HETATM    9  C   UNL     1       5.082  31.053  57.799  1.00  0.00     0.122 A 
HETATM   10  N   UNL     1       3.903  30.864  58.472  1.00  0.00    -0.262 N 
HETATM   11  N   UNL     1       3.768  31.611  59.578  1.00  0.00    -0.173 NA
HETATM   12  H   UNL     1       3.131  30.269  58.198  1.00  0.00     0.191 HD
HETATM   13  C   UNL     1       4.900  32.329  59.629  1.00  0.00     0.090 A 
HETATM   14  C   UNL     1       5.744  32.015  58.526  1.00  0.00     0.084 A 
BRANCH  13  15
HETATM   15  C   UNL     1       5.140  33.306  60.688  1.00  0.00    -0.005 A 
HETATM   16  C   UNL     1       6.116  33.084  61.666  1.00  0.00     0.016 A 
HETATM   17  C   UNL     1       6.353  34.044  62.656  1.00  0.00     0.037 A 
HETATM   18  C   UNL     1       5.633  35.240  62.678  1.00  0.00     0.068 A 
HETATM   19  C   UNL     1       4.645  35.459  61.718  1.00  0.00     0.037 A 
HETATM   20  C   UNL     1       4.398  34.494  60.732  1.00  0.00     0.016 A 
BRANCH  18  21
HETATM   21  O   UNL     1       5.978  36.100  63.684  1.00  0.00    -0.356 OA
HETATM   22  C   UNL     1       5.443  37.416  63.605  1.00  0.00     0.210 C 
ENDBRANCH  18  21
ENDBRANCH  13  15
ENDBRANCH   1   9
BRANCH   5  23
HETATM   23  C   UNL     1       7.310  26.538  54.360  1.00  0.00     0.141 C 
BRANCH  23  24
HETATM   24  C   UNL     1       7.477  25.052  54.120  1.00  0.00    -0.049 A 
HETATM   25  C   UNL     1       7.432  24.114  55.163  1.00  0.00     0.009 A 
HETATM   26  C   UNL     1       7.626  22.753  54.907  1.00  0.00     0.019 A 
HETATM   27  C   UNL     1       7.892  22.324  53.611  1.00  0.00     0.011 A 
HETATM   28 BR   UNL     1       8.168  20.486  53.269  1.00  0.00    -0.051 Br
HETATM   29  C   UNL     1       7.970  23.242  52.567  1.00  0.00     0.019 A 
HETATM   30  C   UNL     1       7.766  24.600  52.823  1.00  0.00     0.009 A 
ENDBRANCH  23  24
ENDBRANCH   5  23
TORSDOF 5
ENDMDL
MODEL 6
REMARK VINA RESULT:      -8.8      1.432      2.186
REMARK  5 active torsions:
REMARK  status: ('A' for Active; 'I' for Inactive)
REMARK    1  A    between atoms: O_2  and  C_3 
REMARK    2  A    between atoms: C_6  and  C_7 
REMARK    3  A    between atoms: C_11  and  N_12 
REMARK       I    between atoms: N_15  and  C_16 
REMARK    4  A    between atoms: C_16  and  C_17 
REMARK    5  A    between atoms: C_17  and  C_18 
ROOT
HETATM    1  N   UNL     1       6.434  31.564  58.696  1.00  0.00    -0.363 N 
HETATM    2  C   UNL     1       7.463  30.873  57.883  1.00  0.00     0.144 C 
HETATM    3  C   UNL     1       7.109  29.384  57.666  1.00  0.00     0.145 C 
HETATM    4  N   UNL     1       5.737  29.243  57.149  1.00  0.00    -0.349 N 
HETATM    5  C   UNL     1       5.420  29.094  55.805  1.00  0.00     0.224 C 
HETATM    6  O   UNL     1       4.308  29.406  55.365  1.00  0.00    -0.273 OA
HETATM    7  C   UNL     1       4.739  29.879  58.018  1.00  0.00     0.145 C 
HETATM    8  C   UNL     1       5.052  31.381  58.179  1.00  0.00     0.144 C 
ENDROOT
BRANCH   1   9
HETATM    9  C   UNL     1       6.633  31.746  60.035  1.00  0.00     0.122 A 
HETATM   10  N   UNL     1       7.481  30.946  60.756  1.00  0.00    -0.262 N 
HETATM   11  N   UNL     1       7.523  31.220  62.069  1.00  0.00    -0.173 NA
HETATM   12  H   UNL     1       8.024  30.165  60.411  1.00  0.00     0.191 HD
HETATM   13  C   UNL     1       6.659  32.235  62.220  1.00  0.00     0.090 A 
HETATM   14  C   UNL     1       6.074  32.587  60.970  1.00  0.00     0.084 A 
BRANCH  13  15
HETATM   15  C   UNL     1       6.387  32.820  63.530  1.00  0.00    -0.005 A 
HETATM   16  C   UNL     1       7.431  33.199  64.381  1.00  0.00     0.016 A 
HETATM   17  C   UNL     1       7.152  33.784  65.621  1.00  0.00     0.037 A 
HETATM   18  C   UNL     1       5.835  34.014  66.022  1.00  0.00     0.068 A 
HETATM   19  C   UNL     1       4.789  33.621  65.188  1.00  0.00     0.037 A 
HETATM   20  C   UNL     1       5.066  33.024  63.950  1.00  0.00     0.016 A 
BRANCH  18  21
HETATM   21  O   UNL     1       5.702  34.612  67.245  1.00  0.00    -0.356 OA
HETATM   22  C   UNL     1       6.821  34.525  68.119  1.00  0.00     0.210 C 
ENDBRANCH  18  21
ENDBRANCH  13  15
ENDBRANCH   1   9
BRANCH   5  23
HETATM   23  C   UNL     1       6.468  28.520  54.864  1.00  0.00     0.141 C 
BRANCH  23  24
HETATM   24  C   UNL     1       6.666  27.021  54.950  1.00  0.00    -0.049 A 
HETATM   25  C   UNL     1       6.037  26.235  55.929  1.00  0.00     0.009 A 
HETATM   26  C   UNL     1       6.272  24.859  55.998  1.00  0.00     0.019 A 
HETATM   27  C   UNL     1       7.158  24.263  55.107  1.00  0.00     0.011 A 
HETATM   28 BR   UNL     1       7.485  22.404  55.212  1.00  0.00    -0.051 Br
HETATM   29  C   UNL     1       7.814  25.028  54.148  1.00  0.00     0.019 A 
HETATM   30  C   UNL     1       7.570  26.402  54.073  1.00  0.00     0.009 A 
ENDBRANCH  23  24
ENDBRANCH   5  23
TORSDOF 5
ENDMDL
MODEL 7
REMARK VINA RESULT:      -8.6      6.954     12.269
REMARK  5 active torsions:
REMARK  status: ('A' for Active; 'I' for Inactive)
REMARK    1  A    between atoms: O_2  and  C_3 
REMARK    2  A    between atoms: C_6  and  C_7 
REMARK    3  A    between atoms: C_11  and  N_12 
REMARK       I    between atoms: N_15  and  C_16 
REMARK    4  A    between atoms: C_16  and  C_17 
REMARK    5  A    between atoms: C_17  and  C_18 
ROOT
HETATM    1  N   UNL     1       5.455  27.109  50.858  1.00  0.00    -0.363 N 
HETATM    2  C   UNL     1       5.185  28.017  51.999  1.00  0.00     0.144 C 
HETATM    3  C   UNL     1       4.297  27.337  53.066  1.00  0.00     0.145 C 
HETATM    4  N   UNL     1       4.854  26.030  53.454  1.00  0.00    -0.349 N 
HETATM    5  C   UNL     1       5.652  25.820  54.572  1.00  0.00     0.224 C 
HETATM    6  O   UNL     1       6.433  24.866  54.638  1.00  0.00    -0.273 OA
HETATM    7  C   UNL     1       5.040  25.134  52.306  1.00  0.00     0.145 C 
HETATM    8  C   UNL     1       5.983  25.782  51.272  1.00  0.00     0.144 C 
ENDROOT
BRANCH   1   9
HETATM    9  C   UNL     1       4.715  27.213  49.716  1.00  0.00     0.122 A 
HETATM   10  N   UNL     1       5.223  26.866  48.490  1.00  0.00    -0.262 N 
HETATM   11  N   UNL     1       4.389  27.080  47.461  1.00  0.00    -0.173 NA
HETATM   12  H   UNL     1       6.152  26.519  48.290  1.00  0.00     0.191 HD
HETATM   13  C   UNL     1       3.290  27.600  48.031  1.00  0.00     0.090 A 
HETATM   14  C   UNL     1       3.460  27.708  49.441  1.00  0.00     0.084 A 
BRANCH  13  15
HETATM   15  C   UNL     1       2.135  28.006  47.236  1.00  0.00    -0.005 A 
HETATM   16  C   UNL     1       1.206  27.063  46.781  1.00  0.00     0.016 A 
HETATM   17  C   UNL     1       0.089  27.473  46.046  1.00  0.00     0.037 A 
HETATM   18  C   UNL     1      -0.126  28.824  45.766  1.00  0.00     0.068 A 
HETATM   19  C   UNL     1       0.806  29.767  46.199  1.00  0.00     0.037 A 
HETATM   20  C   UNL     1       1.932  29.357  46.927  1.00  0.00     0.016 A 
BRANCH  18  21
HETATM   21  O   UNL     1      -1.266  29.091  45.059  1.00  0.00    -0.356 OA
HETATM   22  C   UNL     1      -1.594  30.464  44.878  1.00  0.00     0.210 C 
ENDBRANCH  18  21
ENDBRANCH  13  15
ENDBRANCH   1   9
BRANCH   5  23
HETATM   23  C   UNL     1       5.543  26.787  55.741  1.00  0.00     0.141 C 
BRANCH  23  24
HETATM   24  C   UNL     1       6.809  27.548  56.074  1.00  0.00    -0.049 A 
HETATM   25  C   UNL     1       7.253  27.724  57.394  1.00  0.00     0.009 A 
HETATM   26  C   UNL     1       8.408  28.463  57.666  1.00  0.00     0.019 A 
HETATM   27  C   UNL     1       9.112  29.055  56.622  1.00  0.00     0.011 A 
HETATM   28 BR   UNL     1      10.666  30.066  56.991  1.00  0.00    -0.051 Br
HETATM   29  C   UNL     1       8.672  28.917  55.309  1.00  0.00     0.019 A 
HETATM   30  C   UNL     1       7.523  28.170  55.038  1.00  0.00     0.009 A 
ENDBRANCH  23  24
ENDBRANCH   5  23
TORSDOF 5
ENDMDL
MODEL 8
REMARK VINA RESULT:      -8.6      9.058     11.480
REMARK  5 active torsions:
REMARK  status: ('A' for Active; 'I' for Inactive)
REMARK    1  A    between atoms: O_2  and  C_3 
REMARK    2  A    between atoms: C_6  and  C_7 
REMARK    3  A    between atoms: C_11  and  N_12 
REMARK       I    between atoms: N_15  and  C_16 
REMARK    4  A    between atoms: C_16  and  C_17 
REMARK    5  A    between atoms: C_17  and  C_18 
ROOT
HETATM    1  N   UNL     1       4.633  27.591  51.247  1.00  0.00    -0.363 N 
HETATM    2  C   UNL     1       4.586  29.055  51.477  1.00  0.00     0.144 C 
HETATM    3  C   UNL     1       5.531  29.810  50.513  1.00  0.00     0.145 C 
HETATM    4  N   UNL     1       5.282  29.410  49.118  1.00  0.00    -0.349 N 
HETATM    5  C   UNL     1       4.477  30.117  48.233  1.00  0.00     0.224 C 
HETATM    6  O   UNL     1       3.950  29.568  47.260  1.00  0.00    -0.273 OA
HETATM    7  C   UNL     1       5.407  27.961  48.916  1.00  0.00     0.145 C 
HETATM    8  C   UNL     1       4.415  27.209  49.827  1.00  0.00     0.144 C 
ENDROOT
BRANCH   1   9
HETATM    9  C   UNL     1       5.409  26.801  52.046  1.00  0.00     0.122 A 
HETATM   10  N   UNL     1       6.339  27.331  52.903  1.00  0.00    -0.262 N 
HETATM   11  N   UNL     1       7.058  26.420  53.576  1.00  0.00    -0.173 NA
HETATM   12  H   UNL     1       6.558  28.310  53.038  1.00  0.00     0.191 HD
HETATM   13  C   UNL     1       6.590  25.242  53.136  1.00  0.00     0.090 A 
HETATM   14  C   UNL     1       5.563  25.439  52.169  1.00  0.00     0.084 A 
BRANCH  13  15
HETATM   15  C   UNL     1       7.140  23.974  53.610  1.00  0.00    -0.005 A 
HETATM   16  C   UNL     1       7.120  23.644  54.969  1.00  0.00     0.016 A 
HETATM   17  C   UNL     1       7.625  22.413  55.402  1.00  0.00     0.037 A 
HETATM   18  C   UNL     1       8.141  21.491  54.489  1.00  0.00     0.068 A 
HETATM   19  C   UNL     1       8.181  21.823  53.135  1.00  0.00     0.037 A 
HETATM   20  C   UNL     1       7.687  23.060  52.700  1.00  0.00     0.016 A 
BRANCH  18  21
HETATM   21  O   UNL     1       8.580  20.319  55.040  1.00  0.00    -0.356 OA
HETATM   22  C   UNL     1       8.764  20.311  56.451  1.00  0.00     0.210 C 
ENDBRANCH  18  21
ENDBRANCH  13  15
ENDBRANCH   1   9
BRANCH   5  23
HETATM   23  C   UNL     1       4.259  31.603  48.470  1.00  0.00     0.141 C 
BRANCH  23  24
HETATM   24  C   UNL     1       5.284  32.519  47.836  1.00  0.00    -0.049 A 
HETATM   25  C   UNL     1       6.409  32.985  48.535  1.00  0.00     0.009 A 
HETATM   26  C   UNL     1       7.316  33.858  47.927  1.00  0.00     0.019 A 
HETATM   27  C   UNL     1       7.090  34.294  46.625  1.00  0.00     0.011 A 
HETATM   28 BR   UNL     1       8.310  35.486  45.810  1.00  0.00    -0.051 Br
HETATM   29  C   UNL     1       5.965  33.867  45.925  1.00  0.00     0.019 A 
HETATM   30  C   UNL     1       5.065  32.987  46.530  1.00  0.00     0.009 A 
ENDBRANCH  23  24
ENDBRANCH   5  23
TORSDOF 5
ENDMDL
MODEL 9
REMARK VINA RESULT:      -8.5      2.150      2.790
REMARK  5 active torsions:
REMARK  status: ('A' for Active; 'I' for Inactive)
REMARK    1  A    between atoms: O_2  and  C_3 
REMARK    2  A    between atoms: C_6  and  C_7 
REMARK    3  A    between atoms: C_11  and  N_12 
REMARK       I    between atoms: N_15  and  C_16 
REMARK    4  A    between atoms: C_16  and  C_17 
REMARK    5  A    between atoms: C_17  and  C_18 
ROOT
HETATM    1  N   UNL     1       7.849  28.603  56.906  1.00  0.00    -0.363 N 
HETATM    2  C   UNL     1       6.924  27.454  57.055  1.00  0.00     0.144 C 
HETATM    3  C   UNL     1       5.888  27.408  55.908  1.00  0.00     0.145 C 
HETATM    4  N   UNL     1       6.557  27.477  54.598  1.00  0.00    -0.349 N 
HETATM    5  C   UNL     1       6.866  26.370  53.818  1.00  0.00     0.224 C 
HETATM    6  O   UNL     1       7.771  26.404  52.978  1.00  0.00    -0.273 OA
HETATM    7  C   UNL     1       7.408  28.666  54.462  1.00  0.00     0.145 C 
HETATM    8  C   UNL     1       8.487  28.677  55.565  1.00  0.00     0.144 C 
ENDROOT
BRANCH   1   9
HETATM    9  C   UNL     1       7.627  29.752  57.610  1.00  0.00     0.122 A 
HETATM   10  N   UNL     1       8.659  30.505  58.109  1.00  0.00    -0.262 N 
HETATM   11  N   UNL     1       8.273  31.572  58.825  1.00  0.00    -0.173 NA
HETATM   12  H   UNL     1       9.649  30.313  58.029  1.00  0.00     0.191 HD
HETATM   13  C   UNL     1       6.933  31.513  58.807  1.00  0.00     0.090 A 
HETATM   14  C   UNL     1       6.490  30.381  58.064  1.00  0.00     0.084 A 
BRANCH  13  15
HETATM   15  C   UNL     1       6.113  32.497  59.509  1.00  0.00    -0.005 A 
HETATM   16  C   UNL     1       5.094  33.189  58.847  1.00  0.00     0.016 A 
HETATM   17  C   UNL     1       4.299  34.107  59.543  1.00  0.00     0.037 A 
HETATM   18  C   UNL     1       4.499  34.336  60.906  1.00  0.00     0.068 A 
HETATM   19  C   UNL     1       5.527  33.664  61.567  1.00  0.00     0.037 A 
HETATM   20  C   UNL     1       6.331  32.753  60.870  1.00  0.00     0.016 A 
BRANCH  18  21
HETATM   21  O   UNL     1       3.640  35.240  61.469  1.00  0.00    -0.356 OA
HETATM   22  C   UNL     1       2.827  34.764  62.534  1.00  0.00     0.210 C 
ENDBRANCH  18  21
ENDBRANCH  13  15
ENDBRANCH   1   9
BRANCH   5  23
HETATM   23  C   UNL     1       6.056  25.096  54.002  1.00  0.00     0.141 C 
BRANCH  23  24
HETATM   24  C   UNL     1       6.829  23.905  54.529  1.00  0.00    -0.049 A 
HETATM   25  C   UNL     1       7.184  23.780  55.882  1.00  0.00     0.009 A 
HETATM   26  C   UNL     1       7.929  22.684  56.325  1.00  0.00     0.019 A 
HETATM   27  C   UNL     1       8.348  21.718  55.415  1.00  0.00     0.011 A 
HETATM   28 BR   UNL     1       9.368  20.243  56.014  1.00  0.00    -0.051 Br
HETATM   29  C   UNL     1       8.032  21.839  54.065  1.00  0.00     0.019 A 
HETATM   30  C   UNL     1       7.278  22.930  53.625  1.00  0.00     0.009 A 
ENDBRANCH  23  24
ENDBRANCH   5  23
TORSDOF 5
ENDMDL
MODEL 10
REMARK VINA RESULT:      -8.5      2.355      2.828
REMARK  5 active torsions:
REMARK  status: ('A' for Active; 'I' for Inactive)
REMARK    1  A    between atoms: O_2  and  C_3 
REMARK    2  A    between atoms: C_6  and  C_7 
REMARK    3  A    between atoms: C_11  and  N_12 
REMARK       I    between atoms: N_15  and  C_16 
REMARK    4  A    between atoms: C_16  and  C_17 
REMARK    5  A    between atoms: C_17  and  C_18 
ROOT
HETATM    1  N   UNL     1       6.745  30.701  57.648  1.00  0.00    -0.363 N 
HETATM    2  C   UNL     1       7.582  29.671  56.986  1.00  0.00     0.144 C 
HETATM    3  C   UNL     1       6.911  28.279  57.034  1.00  0.00     0.145 C 
HETATM    4  N   UNL     1       5.530  28.347  56.530  1.00  0.00    -0.349 N 
HETATM    5  C   UNL     1       5.154  28.033  55.230  1.00  0.00     0.224 C 
HETATM    6  O   UNL     1       4.125  28.494  54.726  1.00  0.00    -0.273 OA
HETATM    7  C   UNL     1       4.712  29.328  57.258  1.00  0.00     0.145 C 
HETATM    8  C   UNL     1       5.344  30.731  57.151  1.00  0.00     0.144 C 
ENDROOT
BRANCH   1   9
HETATM    9  C   UNL     1       7.012  31.071  58.935  1.00  0.00     0.122 A 
HETATM   10  N   UNL     1       7.980  30.450  59.680  1.00  0.00    -0.262 N 
HETATM   11  N   UNL     1       8.080  30.893  60.943  1.00  0.00    -0.173 NA
HETATM   12  H   UNL     1       8.575  29.684  59.393  1.00  0.00     0.191 HD
HETATM   13  C   UNL     1       7.131  31.837  61.036  1.00  0.00     0.090 A 
HETATM   14  C   UNL     1       6.434  31.971  59.801  1.00  0.00     0.084 A 
BRANCH  13  15
HETATM   15  C   UNL     1       6.888  32.559  62.282  1.00  0.00    -0.005 A 
HETATM   16  C   UNL     1       5.737  33.337  62.450  1.00  0.00     0.016 A 
HETATM   17  C   UNL     1       5.506  33.998  63.662  1.00  0.00     0.037 A 
HETATM   18  C   UNL     1       6.406  33.882  64.723  1.00  0.00     0.068 A 
HETATM   19  C   UNL     1       7.565  33.124  64.554  1.00  0.00     0.037 A 
HETATM   20  C   UNL     1       7.805  32.470  63.338  1.00  0.00     0.016 A 
BRANCH  18  21
HETATM   21  O   UNL     1       6.050  34.560  65.856  1.00  0.00    -0.356 OA
HETATM   22  C   UNL     1       4.915  34.069  66.559  1.00  0.00     0.210 C 
ENDBRANCH  18  21
ENDBRANCH  13  15
ENDBRANCH   1   9
BRANCH   5  23
HETATM   23  C   UNL     1       6.032  27.089  54.423  1.00  0.00     0.141 C 
BRANCH  23  24
HETATM   24  C   UNL     1       5.714  27.012  52.945  1.00  0.00    -0.049 A 
HETATM   25  C   UNL     1       5.771  28.136  52.105  1.00  0.00     0.009 A 
HETATM   26  C   UNL     1       5.437  28.033  50.752  1.00  0.00     0.019 A 
HETATM   27  C   UNL     1       5.017  26.812  50.234  1.00  0.00     0.011 A 
HETATM   28 BR   UNL     1       4.551  26.678  48.407  1.00  0.00    -0.051 Br
HETATM   29  C   UNL     1       4.926  25.693  51.056  1.00  0.00     0.019 A 
HETATM   30  C   UNL     1       5.270  25.795  52.406  1.00  0.00     0.009 A 
ENDBRANCH  23  24
ENDBRANCH   5  23
TORSDOF 5
ENDMDL
