MODEL 1
REMARK VINA RESULT:      -9.3      0.000      0.000
REMARK  7 active torsions:
REMARK  status: ('A' for Active; 'I' for Inactive)
REMARK    1  A    between atoms: O_2  and  C_3 
REMARK    2  A    between atoms: C_4  and  O_5 
REMARK    3  A    between atoms: C_8  and  C_9 
REMARK    4  A    between atoms: N_10  and  N_11 
REMARK    5  A    between atoms: C_22  and  C_23 
REMARK       I    between atoms: C_23  and  N_24 
REMARK    6  A    between atoms: N_24  and  C_25 
REMARK    7  A    between atoms: C_32  and  N_33 
ROOT
HETATM    1  N   UNL     1       4.485  28.352  53.933  1.00  0.00    -0.197 N 
HETATM    2  C   UNL     1       5.312  27.271  53.699  1.00  0.00     0.183 A 
HETATM    3  C   UNL     1       5.934  27.485  52.480  1.00  0.00     0.125 A 
HETATM    4  N   UNL     1       6.754  26.551  51.922  1.00  0.00    -0.242 NA
HETATM    5  C   UNL     1       6.912  25.438  52.657  1.00  0.00     0.086 A 
HETATM    6  C   UNL     1       6.254  25.235  53.899  1.00  0.00     0.088 A 
HETATM    7  N   UNL     1       5.430  26.146  54.445  1.00  0.00    -0.225 NA
HETATM    8  C   UNL     1       7.750  24.444  52.166  1.00  0.00     0.034 A 
HETATM    9  C   UNL     1       7.948  23.250  52.858  1.00  0.00     0.002 A 
HETATM   10  C   UNL     1       7.295  23.044  54.065  1.00  0.00     0.002 A 
HETATM   11  C   UNL     1       6.457  24.039  54.573  1.00  0.00     0.034 A 
HETATM   12  C   UNL     1       5.513  28.737  51.961  1.00  0.00     0.110 C 
HETATM   13  C   UNL     1       4.688  29.295  52.925  1.00  0.00     0.143 C 
ENDROOT
BRANCH   1  14
HETATM   14  N   UNL     1       3.625  28.481  54.990  1.00  0.00    -0.176 NA
HETATM   15  C   UNL     1       4.165  28.649  56.162  1.00  0.00     0.150 C 
BRANCH  15  16
HETATM   16  C   UNL     1       5.579  28.891  56.537  1.00  0.00    -0.014 A 
HETATM   17  C   UNL     1       6.336  27.806  56.986  1.00  0.00     0.052 A 
HETATM   18  C   UNL     1       7.662  27.997  57.388  1.00  0.00     0.102 A 
HETATM   19  C   UNL     1       8.221  29.293  57.362  1.00  0.00     0.101 A 
HETATM   20  C   UNL     1       7.447  30.374  56.922  1.00  0.00     0.040 A 
HETATM   21  C   UNL     1       6.123  30.176  56.522  1.00  0.00     0.016 A 
BRANCH  18  22
HETATM   22  O   UNL     1       8.486  26.998  57.843  1.00  0.00    -0.353 OA
HETATM   23  C   UNL     1       8.167  25.661  57.483  1.00  0.00     0.210 C 
ENDBRANCH  18  22
BRANCH  19  24
HETATM   24  O   UNL     1       9.526  29.394  57.779  1.00  0.00    -0.353 OA
HETATM   25  C   UNL     1      10.502  29.739  56.807  1.00  0.00     0.210 C 
ENDBRANCH  19  24
ENDBRANCH  15  16
ENDBRANCH   1  14
BRANCH  13  26
HETATM   26  N   UNL     1       4.067  30.504  52.949  1.00  0.00    -0.383 N 
HETATM   27  H   UNL     1       3.157  30.570  53.414  1.00  0.00     0.157 HD
HETATM   28  H   UNL     1       4.168  31.134  52.155  1.00  0.00     0.157 HD
ENDBRANCH  13  26
BRANCH  12  29
HETATM   29  C   UNL     1       5.788  29.303  50.649  1.00  0.00     0.258 C 
HETATM   30  N   UNL     1       5.704  28.384  49.619  1.00  0.00    -0.352 N 
HETATM   31  H   UNL     1       5.575  27.420  49.915  1.00  0.00     0.163 HD
HETATM   32  O   UNL     1       5.953  30.506  50.460  1.00  0.00    -0.267 OA
BRANCH  30  33
HETATM   33  C   UNL     1       5.061  28.762  48.368  1.00  0.00     0.084 C 
HETATM   34  C   UNL     1       5.205  27.647  47.325  1.00  0.00     0.025 C 
HETATM   35  C   UNL     1       4.389  26.398  47.673  1.00  0.00     0.002 C 
HETATM   36  C   UNL     1       2.926  26.723  47.969  1.00  0.00     0.000 C 
HETATM   37  C   UNL     1       2.774  27.834  49.001  1.00  0.00     0.002 C 
HETATM   38  C   UNL     1       3.572  29.079  48.606  1.00  0.00     0.025 C 
ENDBRANCH  30  33
ENDBRANCH  12  29
TORSDOF 7
ENDMDL
MODEL 2
REMARK VINA RESULT:      -8.5      9.681     12.557
REMARK  7 active torsions:
REMARK  status: ('A' for Active; 'I' for Inactive)
REMARK    1  A    between atoms: O_2  and  C_3 
REMARK    2  A    between atoms: C_4  and  O_5 
REMARK    3  A    between atoms: C_8  and  C_9 
REMARK    4  A    between atoms: N_10  and  N_11 
REMARK    5  A    between atoms: C_22  and  C_23 
REMARK       I    between atoms: C_23  and  N_24 
REMARK    6  A    between atoms: N_24  and  C_25 
REMARK    7  A    between atoms: C_32  and  N_33 
ROOT
HETATM    1  N   UNL     1       3.452  35.276  64.118  1.00  0.00    -0.197 N 
HETATM    2  C   UNL     1       4.110  36.359  63.566  1.00  0.00     0.183 A 
HETATM    3  C   UNL     1       3.704  36.456  62.245  1.00  0.00     0.125 A 
HETATM    4  N   UNL     1       4.241  37.377  61.398  1.00  0.00    -0.242 NA
HETATM    5  C   UNL     1       5.167  38.175  61.956  1.00  0.00     0.086 A 
HETATM    6  C   UNL     1       5.576  38.048  63.311  1.00  0.00     0.088 A 
HETATM    7  N   UNL     1       5.062  37.129  64.145  1.00  0.00    -0.225 NA
HETATM    8  C   UNL     1       5.749  39.155  61.162  1.00  0.00     0.034 A 
HETATM    9  C   UNL     1       6.734  40.007  61.661  1.00  0.00     0.002 A 
HETATM   10  C   UNL     1       7.145  39.877  62.980  1.00  0.00     0.002 A 
HETATM   11  C   UNL     1       6.562  38.900  63.791  1.00  0.00     0.034 A 
HETATM   12  C   UNL     1       2.752  35.438  61.979  1.00  0.00     0.110 C 
HETATM   13  C   UNL     1       2.545  34.781  63.182  1.00  0.00     0.143 C 
ENDROOT
BRANCH   1  14
HETATM   14  N   UNL     1       3.647  34.789  65.382  1.00  0.00    -0.176 NA
HETATM   15  C   UNL     1       4.596  33.909  65.526  1.00  0.00     0.150 C 
BRANCH  15  16
HETATM   16  C   UNL     1       5.632  33.456  64.568  1.00  0.00    -0.014 A 
HETATM   17  C   UNL     1       5.210  32.920  63.348  1.00  0.00     0.052 A 
HETATM   18  C   UNL     1       6.152  32.443  62.431  1.00  0.00     0.102 A 
HETATM   19  C   UNL     1       7.526  32.481  62.755  1.00  0.00     0.101 A 
HETATM   20  C   UNL     1       7.934  33.008  63.986  1.00  0.00     0.040 A 
HETATM   21  C   UNL     1       6.988  33.484  64.898  1.00  0.00     0.016 A 
BRANCH  18  22
HETATM   22  O   UNL     1       5.839  31.900  61.209  1.00  0.00    -0.353 OA
HETATM   23  C   UNL     1       5.126  32.712  60.288  1.00  0.00     0.210 C 
ENDBRANCH  18  22
BRANCH  19  24
HETATM   24  O   UNL     1       8.383  31.987  61.802  1.00  0.00    -0.353 OA
HETATM   25  C   UNL     1       8.959  30.711  62.033  1.00  0.00     0.210 C 
ENDBRANCH  19  24
ENDBRANCH  15  16
ENDBRANCH   1  14
BRANCH  13  26
HETATM   26  N   UNL     1       1.694  33.766  63.488  1.00  0.00    -0.383 N 
HETATM   27  H   UNL     1       0.960  33.943  64.179  1.00  0.00     0.157 HD
HETATM   28  H   UNL     1       2.040  32.808  63.495  1.00  0.00     0.157 HD
ENDBRANCH  13  26
BRANCH  12  29
HETATM   29  C   UNL     1       2.168  35.066  60.698  1.00  0.00     0.258 C 
HETATM   30  N   UNL     1       2.427  35.973  59.686  1.00  0.00    -0.352 N 
HETATM   31  H   UNL     1       2.888  36.828  59.986  1.00  0.00     0.163 HD
HETATM   32  O   UNL     1       1.610  33.989  60.504  1.00  0.00    -0.267 OA
BRANCH  30  33
HETATM   33  C   UNL     1       2.776  35.489  58.358  1.00  0.00     0.084 C 
HETATM   34  C   UNL     1       1.919  36.174  57.287  1.00  0.00     0.025 C 
HETATM   35  C   UNL     1       2.251  37.660  57.121  1.00  0.00     0.002 C 
HETATM   36  C   UNL     1       3.743  37.901  56.903  1.00  0.00     0.000 C 
HETATM   37  C   UNL     1       4.604  37.219  57.961  1.00  0.00     0.002 C 
HETATM   38  C   UNL     1       4.272  35.730  58.077  1.00  0.00     0.025 C 
ENDBRANCH  30  33
ENDBRANCH  12  29
TORSDOF 7
ENDMDL
MODEL 3
REMARK VINA RESULT:      -8.4      6.849     10.511
REMARK  7 active torsions:
REMARK  status: ('A' for Active; 'I' for Inactive)
REMARK    1  A    between atoms: O_2  and  C_3 
REMARK    2  A    between atoms: C_4  and  O_5 
REMARK    3  A    between atoms: C_8  and  C_9 
REMARK    4  A    between atoms: N_10  and  N_11 
REMARK    5  A    between atoms: C_22  and  C_23 
REMARK       I    between atoms: C_23  and  N_24 
REMARK    6  A    between atoms: N_24  and  C_25 
REMARK    7  A    between atoms: C_32  and  N_33 
ROOT
HETATM    1  N   UNL     1       4.154  32.768  60.234  1.00  0.00    -0.197 N 
HETATM    2  C   UNL     1       4.875  32.991  61.392  1.00  0.00     0.183 A 
HETATM    3  C   UNL     1       6.185  32.618  61.138  1.00  0.00     0.125 A 
HETATM    4  N   UNL     1       7.136  32.636  62.113  1.00  0.00    -0.242 NA
HETATM    5  C   UNL     1       6.697  33.058  63.311  1.00  0.00     0.086 A 
HETATM    6  C   UNL     1       5.345  33.424  63.551  1.00  0.00     0.088 A 
HETATM    7  N   UNL     1       4.400  33.389  62.596  1.00  0.00    -0.225 NA
HETATM    8  C   UNL     1       7.611  33.124  64.355  1.00  0.00     0.034 A 
HETATM    9  C   UNL     1       7.229  33.530  65.634  1.00  0.00     0.002 A 
HETATM   10  C   UNL     1       5.907  33.875  65.874  1.00  0.00     0.002 A 
HETATM   11  C   UNL     1       4.980  33.820  64.830  1.00  0.00     0.034 A 
HETATM   12  C   UNL     1       6.289  32.187  59.790  1.00  0.00     0.110 C 
HETATM   13  C   UNL     1       5.037  32.379  59.227  1.00  0.00     0.143 C 
ENDROOT
BRANCH   1  14
HETATM   14  N   UNL     1       2.801  32.925  60.099  1.00  0.00    -0.176 NA
HETATM   15  C   UNL     1       2.371  34.139  59.917  1.00  0.00     0.150 C 
BRANCH  15  16
HETATM   16  C   UNL     1       3.123  35.391  59.664  1.00  0.00    -0.014 A 
HETATM   17  C   UNL     1       3.307  36.275  60.730  1.00  0.00     0.052 A 
HETATM   18  C   UNL     1       3.976  37.487  60.526  1.00  0.00     0.102 A 
HETATM   19  C   UNL     1       4.440  37.822  59.235  1.00  0.00     0.101 A 
HETATM   20  C   UNL     1       4.237  36.932  58.173  1.00  0.00     0.040 A 
HETATM   21  C   UNL     1       3.569  35.724  58.384  1.00  0.00     0.016 A 
BRANCH  18  22
HETATM   22  O   UNL     1       4.207  38.420  61.507  1.00  0.00    -0.353 OA
HETATM   23  C   UNL     1       5.081  38.062  62.568  1.00  0.00     0.210 C 
ENDBRANCH  18  22
BRANCH  19  24
HETATM   24  O   UNL     1       5.080  39.031  59.121  1.00  0.00    -0.353 OA
HETATM   25  C   UNL     1       6.109  39.142  58.149  1.00  0.00     0.210 C 
ENDBRANCH  19  24
ENDBRANCH  15  16
ENDBRANCH   1  14
BRANCH  13  26
HETATM   26  N   UNL     1       4.612  32.178  57.951  1.00  0.00    -0.383 N 
HETATM   27  H   UNL     1       5.222  31.657  57.316  1.00  0.00     0.157 HD
HETATM   28  H   UNL     1       4.060  32.899  57.490  1.00  0.00     0.157 HD
ENDBRANCH  13  26
BRANCH  12  29
HETATM   29  C   UNL     1       7.430  31.570  59.130  1.00  0.00     0.258 C 
HETATM   30  N   UNL     1       7.176  30.295  58.658  1.00  0.00    -0.352 N 
HETATM   31  H   UNL     1       6.275  29.911  58.930  1.00  0.00     0.163 HD
HETATM   32  O   UNL     1       8.476  32.172  58.899  1.00  0.00    -0.267 OA
BRANCH  30  33
HETATM   33  C   UNL     1       7.674  29.898  57.349  1.00  0.00     0.084 C 
HETATM   34  C   UNL     1       8.481  28.598  57.445  1.00  0.00     0.025 C 
HETATM   35  C   UNL     1       7.611  27.381  57.774  1.00  0.00     0.002 C 
HETATM   36  C   UNL     1       6.417  27.248  56.831  1.00  0.00     0.000 C 
HETATM   37  C   UNL     1       5.612  28.538  56.726  1.00  0.00     0.002 C 
HETATM   38  C   UNL     1       6.504  29.727  56.361  1.00  0.00     0.025 C 
ENDBRANCH  30  33
ENDBRANCH  12  29
TORSDOF 7
ENDMDL
MODEL 4
REMARK VINA RESULT:      -8.4      3.735      6.665
REMARK  7 active torsions:
REMARK  status: ('A' for Active; 'I' for Inactive)
REMARK    1  A    between atoms: O_2  and  C_3 
REMARK    2  A    between atoms: C_4  and  O_5 
REMARK    3  A    between atoms: C_8  and  C_9 
REMARK    4  A    between atoms: N_10  and  N_11 
REMARK    5  A    between atoms: C_22  and  C_23 
REMARK       I    between atoms: C_23  and  N_24 
REMARK    6  A    between atoms: N_24  and  C_25 
REMARK    7  A    between atoms: C_32  and  N_33 
ROOT
HETATM    1  N   UNL     1       5.133  29.457  57.265  1.00  0.00    -0.197 N 
HETATM    2  C   UNL     1       6.502  29.627  57.186  1.00  0.00     0.183 A 
HETATM    3  C   UNL     1       6.962  28.787  56.185  1.00  0.00     0.125 A 
HETATM    4  N   UNL     1       8.291  28.656  55.917  1.00  0.00    -0.242 NA
HETATM    5  C   UNL     1       9.092  29.414  56.684  1.00  0.00     0.086 A 
HETATM    6  C   UNL     1       8.597  30.259  57.713  1.00  0.00     0.088 A 
HETATM    7  N   UNL     1       7.288  30.378  57.994  1.00  0.00    -0.225 NA
HETATM    8  C   UNL     1      10.462  29.352  56.460  1.00  0.00     0.034 A 
HETATM    9  C   UNL     1      11.361  30.091  57.229  1.00  0.00     0.002 A 
HETATM   10  C   UNL     1      10.881  30.907  58.243  1.00  0.00     0.002 A 
HETATM   11  C   UNL     1       9.505  30.984  58.474  1.00  0.00     0.034 A 
HETATM   12  C   UNL     1       5.858  28.107  55.608  1.00  0.00     0.110 C 
HETATM   13  C   UNL     1       4.727  28.611  56.233  1.00  0.00     0.143 C 
ENDROOT
BRANCH   1  14
HETATM   14  N   UNL     1       4.312  30.041  58.192  1.00  0.00    -0.176 NA
HETATM   15  C   UNL     1       3.861  31.228  57.905  1.00  0.00     0.150 C 
BRANCH  15  16
HETATM   16  C   UNL     1       3.953  32.006  56.646  1.00  0.00    -0.014 A 
HETATM   17  C   UNL     1       4.777  33.135  56.630  1.00  0.00     0.052 A 
HETATM   18  C   UNL     1       4.862  33.921  55.476  1.00  0.00     0.102 A 
HETATM   19  C   UNL     1       4.093  33.583  54.341  1.00  0.00     0.101 A 
HETATM   20  C   UNL     1       3.263  32.457  54.376  1.00  0.00     0.040 A 
HETATM   21  C   UNL     1       3.182  31.676  55.531  1.00  0.00     0.016 A 
BRANCH  18  22
HETATM   22  O   UNL     1       5.640  35.047  55.360  1.00  0.00    -0.353 OA
HETATM   23  C   UNL     1       5.249  36.200  56.091  1.00  0.00     0.210 C 
ENDBRANCH  18  22
BRANCH  19  24
HETATM   24  O   UNL     1       4.231  34.411  53.254  1.00  0.00    -0.353 OA
HETATM   25  C   UNL     1       4.782  33.855  52.069  1.00  0.00     0.210 C 
ENDBRANCH  19  24
ENDBRANCH  15  16
ENDBRANCH   1  14
BRANCH  13  26
HETATM   26  N   UNL     1       3.414  28.339  56.014  1.00  0.00    -0.383 N 
HETATM   27  H   UNL     1       3.122  27.358  55.985  1.00  0.00     0.157 HD
HETATM   28  H   UNL     1       2.874  28.945  55.399  1.00  0.00     0.157 HD
ENDBRANCH  13  26
BRANCH  12  29
HETATM   29  C   UNL     1       5.878  27.026  54.634  1.00  0.00     0.258 C 
HETATM   30  N   UNL     1       6.695  25.970  54.993  1.00  0.00    -0.352 N 
HETATM   31  H   UNL     1       7.260  26.130  55.823  1.00  0.00     0.163 HD
HETATM   32  O   UNL     1       5.141  26.998  53.651  1.00  0.00    -0.267 OA
BRANCH  30  33
HETATM   33  C   UNL     1       6.242  24.603  54.779  1.00  0.00     0.084 C 
HETATM   34  C   UNL     1       6.355  24.219  53.299  1.00  0.00     0.025 C 
HETATM   35  C   UNL     1       7.807  24.090  52.827  1.00  0.00     0.002 C 
HETATM   36  C   UNL     1       8.631  23.170  53.725  1.00  0.00     0.000 C 
HETATM   37  C   UNL     1       8.519  23.542  55.200  1.00  0.00     0.002 C 
HETATM   38  C   UNL     1       7.058  23.627  55.646  1.00  0.00     0.025 C 
ENDBRANCH  30  33
ENDBRANCH  12  29
TORSDOF 7
ENDMDL
MODEL 5
REMARK VINA RESULT:      -8.3      3.165      6.144
REMARK  7 active torsions:
REMARK  status: ('A' for Active; 'I' for Inactive)
REMARK    1  A    between atoms: O_2  and  C_3 
REMARK    2  A    between atoms: C_4  and  O_5 
REMARK    3  A    between atoms: C_8  and  C_9 
REMARK    4  A    between atoms: N_10  and  N_11 
REMARK    5  A    between atoms: C_22  and  C_23 
REMARK       I    between atoms: C_23  and  N_24 
REMARK    6  A    between atoms: N_24  and  C_25 
REMARK    7  A    between atoms: C_32  and  N_33 
ROOT
HETATM    1  N   UNL     1       4.928  29.057  55.813  1.00  0.00    -0.197 N 
HETATM    2  C   UNL     1       6.261  29.319  56.069  1.00  0.00     0.183 A 
HETATM    3  C   UNL     1       6.993  28.792  55.018  1.00  0.00     0.125 A 
HETATM    4  N   UNL     1       8.354  28.811  55.014  1.00  0.00    -0.242 NA
HETATM    5  C   UNL     1       8.907  29.390  56.092  1.00  0.00     0.086 A 
HETATM    6  C   UNL     1       8.136  29.913  57.166  1.00  0.00     0.088 A 
HETATM    7  N   UNL     1       6.792  29.880  57.182  1.00  0.00    -0.225 NA
HETATM    8  C   UNL     1      10.293  29.467  56.156  1.00  0.00     0.034 A 
HETATM    9  C   UNL     1      10.942  30.034  57.252  1.00  0.00     0.002 A 
HETATM   10  C   UNL     1      10.192  30.532  58.308  1.00  0.00     0.002 A 
HETATM   11  C   UNL     1       8.797  30.468  58.252  1.00  0.00     0.034 A 
HETATM   12  C   UNL     1       6.099  28.222  54.074  1.00  0.00     0.110 C 
HETATM   13  C   UNL     1       4.822  28.483  54.547  1.00  0.00     0.143 C 
ENDROOT
BRANCH   1  14
HETATM   14  N   UNL     1       3.888  29.335  56.658  1.00  0.00    -0.176 NA
HETATM   15  C   UNL     1       3.393  30.537  56.595  1.00  0.00     0.150 C 
BRANCH  15  16
HETATM   16  C   UNL     1       3.660  31.632  55.632  1.00  0.00    -0.014 A 
HETATM   17  C   UNL     1       2.930  31.651  54.440  1.00  0.00     0.052 A 
HETATM   18  C   UNL     1       3.179  32.643  53.485  1.00  0.00     0.102 A 
HETATM   19  C   UNL     1       4.185  33.605  53.721  1.00  0.00     0.101 A 
HETATM   20  C   UNL     1       4.917  33.566  54.913  1.00  0.00     0.040 A 
HETATM   21  C   UNL     1       4.664  32.573  55.863  1.00  0.00     0.016 A 
BRANCH  18  22
HETATM   22  O   UNL     1       2.517  32.748  52.286  1.00  0.00    -0.353 OA
HETATM   23  C   UNL     1       2.709  31.714  51.332  1.00  0.00     0.210 C 
ENDBRANCH  18  22
BRANCH  19  24
HETATM   24  O   UNL     1       4.368  34.539  52.730  1.00  0.00    -0.353 OA
HETATM   25  C   UNL     1       5.607  34.530  52.038  1.00  0.00     0.210 C 
ENDBRANCH  19  24
ENDBRANCH  15  16
ENDBRANCH   1  14
BRANCH  13  26
HETATM   26  N   UNL     1       3.612  28.201  53.995  1.00  0.00    -0.383 N 
HETATM   27  H   UNL     1       2.772  28.509  54.492  1.00  0.00     0.157 HD
HETATM   28  H   UNL     1       3.488  27.331  53.480  1.00  0.00     0.157 HD
ENDBRANCH  13  26
BRANCH  12  29
HETATM   29  C   UNL     1       6.422  27.431  52.896  1.00  0.00     0.258 C 
HETATM   30  N   UNL     1       7.330  26.417  53.140  1.00  0.00    -0.352 N 
HETATM   31  H   UNL     1       7.738  26.423  54.071  1.00  0.00     0.163 HD
HETATM   32  O   UNL     1       5.847  27.569  51.819  1.00  0.00    -0.267 OA
BRANCH  30  33
HETATM   33  C   UNL     1       7.124  25.106  52.539  1.00  0.00     0.084 C 
HETATM   34  C   UNL     1       8.320  24.188  52.814  1.00  0.00     0.025 C 
HETATM   35  C   UNL     1       8.435  23.786  54.288  1.00  0.00     0.002 C 
HETATM   36  C   UNL     1       7.130  23.211  54.837  1.00  0.00     0.000 C 
HETATM   37  C   UNL     1       5.934  24.115  54.562  1.00  0.00     0.002 C 
HETATM   38  C   UNL     1       5.829  24.468  53.077  1.00  0.00     0.025 C 
ENDBRANCH  30  33
ENDBRANCH  12  29
TORSDOF 7
ENDMDL
MODEL 6
REMARK VINA RESULT:      -8.0      3.119      6.114
REMARK  7 active torsions:
REMARK  status: ('A' for Active; 'I' for Inactive)
REMARK    1  A    between atoms: O_2  and  C_3 
REMARK    2  A    between atoms: C_4  and  O_5 
REMARK    3  A    between atoms: C_8  and  C_9 
REMARK    4  A    between atoms: N_10  and  N_11 
REMARK    5  A    between atoms: C_22  and  C_23 
REMARK       I    between atoms: C_23  and  N_24 
REMARK    6  A    between atoms: N_24  and  C_25 
REMARK    7  A    between atoms: C_32  and  N_33 
ROOT
HETATM    1  N   UNL     1       3.684  30.384  54.052  1.00  0.00    -0.197 N 
HETATM    2  C   UNL     1       4.827  30.032  54.744  1.00  0.00     0.183 A 
HETATM    3  C   UNL     1       5.474  29.058  54.001  1.00  0.00     0.125 A 
HETATM    4  N   UNL     1       6.596  28.437  54.459  1.00  0.00    -0.242 NA
HETATM    5  C   UNL     1       7.018  28.863  55.661  1.00  0.00     0.086 A 
HETATM    6  C   UNL     1       6.330  29.856  56.411  1.00  0.00     0.088 A 
HETATM    7  N   UNL     1       5.212  30.457  55.971  1.00  0.00    -0.225 NA
HETATM    8  C   UNL     1       8.169  28.294  56.190  1.00  0.00     0.034 A 
HETATM    9  C   UNL     1       8.658  28.665  57.442  1.00  0.00     0.002 A 
HETATM   10  C   UNL     1       7.981  29.625  58.182  1.00  0.00     0.002 A 
HETATM   11  C   UNL     1       6.826  30.211  57.658  1.00  0.00     0.034 A 
HETATM   12  C   UNL     1       4.739  28.822  52.810  1.00  0.00     0.110 C 
HETATM   13  C   UNL     1       3.686  29.723  52.823  1.00  0.00     0.143 C 
ENDROOT
BRANCH   1  14
HETATM   14  N   UNL     1       2.723  31.252  54.494  1.00  0.00    -0.176 NA
HETATM   15  C   UNL     1       2.876  32.503  54.171  1.00  0.00     0.150 C 
BRANCH  15  16
HETATM   16  C   UNL     1       3.846  33.140  53.249  1.00  0.00    -0.014 A 
HETATM   17  C   UNL     1       4.945  33.800  53.805  1.00  0.00     0.052 A 
HETATM   18  C   UNL     1       5.864  34.449  52.974  1.00  0.00     0.102 A 
HETATM   19  C   UNL     1       5.661  34.457  51.577  1.00  0.00     0.101 A 
HETATM   20  C   UNL     1       4.548  33.803  51.035  1.00  0.00     0.040 A 
HETATM   21  C   UNL     1       3.634  33.156  51.870  1.00  0.00     0.016 A 
BRANCH  18  22
HETATM   22  O   UNL     1       6.974  35.123  53.422  1.00  0.00    -0.353 OA
HETATM   23  C   UNL     1       6.768  36.294  54.199  1.00  0.00     0.210 C 
ENDBRANCH  18  22
BRANCH  19  24
HETATM   24  O   UNL     1       6.606  35.121  50.835  1.00  0.00    -0.353 OA
HETATM   25  C   UNL     1       6.215  35.620  49.564  1.00  0.00     0.210 C 
ENDBRANCH  19  24
ENDBRANCH  15  16
ENDBRANCH   1  14
BRANCH  13  26
HETATM   26  N   UNL     1       2.720  29.951  51.894  1.00  0.00    -0.383 N 
HETATM   27  H   UNL     1       2.759  29.425  51.017  1.00  0.00     0.157 HD
HETATM   28  H   UNL     1       2.338  30.890  51.792  1.00  0.00     0.157 HD
ENDBRANCH  13  26
BRANCH  12  29
HETATM   29  C   UNL     1       4.958  27.788  51.810  1.00  0.00     0.258 C 
HETATM   30  N   UNL     1       6.036  26.967  52.086  1.00  0.00    -0.352 N 
HETATM   31  H   UNL     1       6.601  27.256  52.881  1.00  0.00     0.163 HD
HETATM   32  O   UNL     1       4.184  27.583  50.878  1.00  0.00    -0.267 OA
BRANCH  30  33
HETATM   33  C   UNL     1       5.924  25.532  51.869  1.00  0.00     0.084 C 
HETATM   34  C   UNL     1       7.302  24.863  51.930  1.00  0.00     0.025 C 
HETATM   35  C   UNL     1       7.903  24.868  53.339  1.00  0.00     0.002 C 
HETATM   36  C   UNL     1       6.943  24.302  54.383  1.00  0.00     0.000 C 
HETATM   37  C   UNL     1       5.568  24.958  54.325  1.00  0.00     0.002 C 
HETATM   38  C   UNL     1       4.981  24.904  52.913  1.00  0.00     0.025 C 
ENDBRANCH  30  33
ENDBRANCH  12  29
TORSDOF 7
ENDMDL
MODEL 7
REMARK VINA RESULT:      -7.8      4.841      9.087
REMARK  7 active torsions:
REMARK  status: ('A' for Active; 'I' for Inactive)
REMARK    1  A    between atoms: O_2  and  C_3 
REMARK    2  A    between atoms: C_4  and  O_5 
REMARK    3  A    between atoms: C_8  and  C_9 
REMARK    4  A    between atoms: N_10  and  N_11 
REMARK    5  A    between atoms: C_22  and  C_23 
REMARK       I    between atoms: C_23  and  N_24 
REMARK    6  A    between atoms: N_24  and  C_25 
REMARK    7  A    between atoms: C_32  and  N_33 
ROOT
HETATM    1  N   UNL     1       3.459  32.169  57.245  1.00  0.00    -0.197 N 
HETATM    2  C   UNL     1       4.499  31.290  57.014  1.00  0.00     0.183 A 
HETATM    3  C   UNL     1       5.376  31.401  58.081  1.00  0.00     0.125 A 
HETATM    4  N   UNL     1       6.557  30.723  58.110  1.00  0.00    -0.242 NA
HETATM    5  C   UNL     1       6.776  29.939  57.041  1.00  0.00     0.086 A 
HETATM    6  C   UNL     1       5.866  29.850  55.952  1.00  0.00     0.088 A 
HETATM    7  N   UNL     1       4.710  30.532  55.911  1.00  0.00    -0.225 NA
HETATM    8  C   UNL     1       7.950  29.197  57.003  1.00  0.00     0.034 A 
HETATM    9  C   UNL     1       8.261  28.378  55.918  1.00  0.00     0.002 A 
HETATM   10  C   UNL     1       7.381  28.300  54.848  1.00  0.00     0.002 A 
HETATM   11  C   UNL     1       6.193  29.035  54.877  1.00  0.00     0.034 A 
HETATM   12  C   UNL     1       4.857  32.341  59.008  1.00  0.00     0.110 C 
HETATM   13  C   UNL     1       3.623  32.731  58.511  1.00  0.00     0.143 C 
ENDROOT
BRANCH   1  14
HETATM   14  N   UNL     1       2.429  32.426  56.381  1.00  0.00    -0.176 NA
HETATM   15  C   UNL     1       2.539  33.494  55.646  1.00  0.00     0.150 C 
BRANCH  15  16
HETATM   16  C   UNL     1       3.688  34.413  55.461  1.00  0.00    -0.014 A 
HETATM   17  C   UNL     1       4.614  34.113  54.459  1.00  0.00     0.052 A 
HETATM   18  C   UNL     1       5.735  34.931  54.277  1.00  0.00     0.102 A 
HETATM   19  C   UNL     1       5.936  36.042  55.125  1.00  0.00     0.101 A 
HETATM   20  C   UNL     1       5.006  36.323  56.133  1.00  0.00     0.040 A 
HETATM   21  C   UNL     1       3.889  35.502  56.310  1.00  0.00     0.016 A 
BRANCH  18  22
HETATM   22  O   UNL     1       6.700  34.723  53.322  1.00  0.00    -0.353 OA
HETATM   23  C   UNL     1       6.313  34.811  51.959  1.00  0.00     0.210 C 
ENDBRANCH  18  22
BRANCH  19  24
HETATM   24  O   UNL     1       7.063  36.788  54.881  1.00  0.00    -0.353 OA
HETATM   25  C   UNL     1       6.884  38.115  54.410  1.00  0.00     0.210 C 
ENDBRANCH  19  24
ENDBRANCH  15  16
ENDBRANCH   1  14
BRANCH  13  26
HETATM   26  N   UNL     1       2.694  33.570  59.040  1.00  0.00    -0.383 N 
HETATM   27  H   UNL     1       1.897  33.838  58.456  1.00  0.00     0.157 HD
HETATM   28  H   UNL     1       2.989  34.298  59.689  1.00  0.00     0.157 HD
ENDBRANCH  13  26
BRANCH  12  29
HETATM   29  C   UNL     1       5.503  32.884  60.194  1.00  0.00     0.258 C 
HETATM   30  N   UNL     1       6.511  32.079  60.695  1.00  0.00    -0.352 N 
HETATM   31  H   UNL     1       6.594  31.171  60.246  1.00  0.00     0.163 HD
HETATM   32  O   UNL     1       5.265  34.007  60.632  1.00  0.00    -0.267 OA
BRANCH  30  33
HETATM   33  C   UNL     1       7.753  32.683  61.156  1.00  0.00     0.084 C 
HETATM   34  C   UNL     1       8.036  32.298  62.613  1.00  0.00     0.025 C 
HETATM   35  C   UNL     1       8.387  30.816  62.778  1.00  0.00     0.002 C 
HETATM   36  C   UNL     1       9.508  30.376  61.839  1.00  0.00     0.000 C 
HETATM   37  C   UNL     1       9.237  30.760  60.389  1.00  0.00     0.002 C 
HETATM   38  C   UNL     1       8.925  32.252  60.254  1.00  0.00     0.025 C 
ENDBRANCH  30  33
ENDBRANCH  12  29
TORSDOF 7
ENDMDL
MODEL 8
REMARK VINA RESULT:      -7.8      2.764      4.864
REMARK  7 active torsions:
REMARK  status: ('A' for Active; 'I' for Inactive)
REMARK    1  A    between atoms: O_2  and  C_3 
REMARK    2  A    between atoms: C_4  and  O_5 
REMARK    3  A    between atoms: C_8  and  C_9 
REMARK    4  A    between atoms: N_10  and  N_11 
REMARK    5  A    between atoms: C_22  and  C_23 
REMARK       I    between atoms: C_23  and  N_24 
REMARK    6  A    between atoms: N_24  and  C_25 
REMARK    7  A    between atoms: C_32  and  N_33 
ROOT
HETATM    1  N   UNL     1       4.599  27.840  55.811  1.00  0.00    -0.197 N 
HETATM    2  C   UNL     1       4.627  27.909  54.431  1.00  0.00     0.183 A 
HETATM    3  C   UNL     1       4.158  29.162  54.072  1.00  0.00     0.125 A 
HETATM    4  N   UNL     1       3.981  29.513  52.768  1.00  0.00    -0.242 NA
HETATM    5  C   UNL     1       4.314  28.558  51.884  1.00  0.00     0.086 A 
HETATM    6  C   UNL     1       4.782  27.275  52.276  1.00  0.00     0.088 A 
HETATM    7  N   UNL     1       4.940  26.918  53.562  1.00  0.00    -0.225 NA
HETATM    8  C   UNL     1       4.181  28.845  50.531  1.00  0.00     0.034 A 
HETATM    9  C   UNL     1       4.485  27.899  49.552  1.00  0.00     0.002 A 
HETATM   10  C   UNL     1       4.929  26.641  49.933  1.00  0.00     0.002 A 
HETATM   11  C   UNL     1       5.074  26.343  51.290  1.00  0.00     0.034 A 
HETATM   12  C   UNL     1       3.863  29.899  55.249  1.00  0.00     0.110 C 
HETATM   13  C   UNL     1       4.234  29.090  56.312  1.00  0.00     0.143 C 
ENDROOT
BRANCH   1  14
HETATM   14  N   UNL     1       4.899  26.733  56.557  1.00  0.00    -0.176 NA
HETATM   15  C   UNL     1       6.121  26.640  56.995  1.00  0.00     0.150 C 
BRANCH  15  16
HETATM   16  C   UNL     1       7.226  27.627  56.960  1.00  0.00    -0.014 A 
HETATM   17  C   UNL     1       7.535  28.309  58.140  1.00  0.00     0.052 A 
HETATM   18  C   UNL     1       8.544  29.279  58.143  1.00  0.00     0.102 A 
HETATM   19  C   UNL     1       9.228  29.580  56.945  1.00  0.00     0.101 A 
HETATM   20  C   UNL     1       8.900  28.898  55.768  1.00  0.00     0.040 A 
HETATM   21  C   UNL     1       7.891  27.931  55.771  1.00  0.00     0.016 A 
BRANCH  18  22
HETATM   22  O   UNL     1       8.922  30.002  59.247  1.00  0.00    -0.353 OA
HETATM   23  C   UNL     1       8.031  31.003  59.719  1.00  0.00     0.210 C 
ENDBRANCH  18  22
BRANCH  19  24
HETATM   24  O   UNL     1      10.199  30.548  57.034  1.00  0.00    -0.353 OA
HETATM   25  C   UNL     1      11.527  30.124  57.304  1.00  0.00     0.210 C 
ENDBRANCH  19  24
ENDBRANCH  15  16
ENDBRANCH   1  14
BRANCH  13  26
HETATM   26  N   UNL     1       4.212  29.339  57.648  1.00  0.00    -0.383 N 
HETATM   27  H   UNL     1       3.405  29.011  58.187  1.00  0.00     0.157 HD
HETATM   28  H   UNL     1       4.616  30.204  58.002  1.00  0.00     0.157 HD
ENDBRANCH  13  26
BRANCH  12  29
HETATM   29  C   UNL     1       3.212  31.196  55.357  1.00  0.00     0.258 C 
HETATM   30  N   UNL     1       3.516  32.058  54.319  1.00  0.00    -0.352 N 
HETATM   31  H   UNL     1       4.235  31.723  53.682  1.00  0.00     0.163 HD
HETATM   32  O   UNL     1       2.374  31.455  56.217  1.00  0.00    -0.267 OA
BRANCH  30  33
HETATM   33  C   UNL     1       2.464  32.872  53.727  1.00  0.00     0.084 C 
HETATM   34  C   UNL     1       2.785  34.364  53.873  1.00  0.00     0.025 C 
HETATM   35  C   UNL     1       3.973  34.804  53.012  1.00  0.00     0.002 C 
HETATM   36  C   UNL     1       3.816  34.391  51.550  1.00  0.00     0.000 C 
HETATM   37  C   UNL     1       3.491  32.909  51.396  1.00  0.00     0.002 C 
HETATM   38  C   UNL     1       2.279  32.511  52.241  1.00  0.00     0.025 C 
ENDBRANCH  30  33
ENDBRANCH  12  29
TORSDOF 7
ENDMDL
MODEL 9
REMARK VINA RESULT:      -7.8      7.389     11.542
REMARK  7 active torsions:
REMARK  status: ('A' for Active; 'I' for Inactive)
REMARK    1  A    between atoms: O_2  and  C_3 
REMARK    2  A    between atoms: C_4  and  O_5 
REMARK    3  A    between atoms: C_8  and  C_9 
REMARK    4  A    between atoms: N_10  and  N_11 
REMARK    5  A    between atoms: C_22  and  C_23 
REMARK       I    between atoms: C_23  and  N_24 
REMARK    6  A    between atoms: N_24  and  C_25 
REMARK    7  A    between atoms: C_32  and  N_33 
ROOT
HETATM    1  N   UNL     1       4.065  32.430  60.855  1.00  0.00    -0.197 N 
HETATM    2  C   UNL     1       5.400  32.227  60.563  1.00  0.00     0.183 A 
HETATM    3  C   UNL     1       6.137  32.855  61.554  1.00  0.00     0.125 A 
HETATM    4  N   UNL     1       7.497  32.912  61.506  1.00  0.00    -0.242 NA
HETATM    5  C   UNL     1       8.044  32.300  60.443  1.00  0.00     0.086 A 
HETATM    6  C   UNL     1       7.266  31.673  59.432  1.00  0.00     0.088 A 
HETATM    7  N   UNL     1       5.924  31.630  59.466  1.00  0.00    -0.225 NA
HETATM    8  C   UNL     1       9.428  32.296  60.331  1.00  0.00     0.034 A 
HETATM    9  C   UNL     1      10.071  31.702  59.245  1.00  0.00     0.002 A 
HETATM   10  C   UNL     1       9.313  31.100  58.250  1.00  0.00     0.002 A 
HETATM   11  C   UNL     1       7.920  31.090  58.355  1.00  0.00     0.034 A 
HETATM   12  C   UNL     1       5.246  33.431  62.497  1.00  0.00     0.110 C 
HETATM   13  C   UNL     1       3.971  33.073  62.089  1.00  0.00     0.143 C 
ENDROOT
BRANCH   1  14
HETATM   14  N   UNL     1       3.013  32.045  60.069  1.00  0.00    -0.176 NA
HETATM   15  C   UNL     1       2.636  32.885  59.148  1.00  0.00     0.150 C 
BRANCH  15  16
HETATM   16  C   UNL     1       3.267  34.144  58.688  1.00  0.00    -0.014 A 
HETATM   17  C   UNL     1       4.091  34.093  57.560  1.00  0.00     0.052 A 
HETATM   18  C   UNL     1       4.738  35.250  57.114  1.00  0.00     0.102 A 
HETATM   19  C   UNL     1       4.575  36.460  57.823  1.00  0.00     0.101 A 
HETATM   20  C   UNL     1       3.757  36.494  58.958  1.00  0.00     0.040 A 
HETATM   21  C   UNL     1       3.112  35.335  59.398  1.00  0.00     0.016 A 
BRANCH  18  22
HETATM   22  O   UNL     1       5.566  35.303  56.020  1.00  0.00    -0.353 OA
HETATM   23  C   UNL     1       5.158  34.613  54.848  1.00  0.00     0.210 C 
ENDBRANCH  18  22
BRANCH  19  24
HETATM   24  O   UNL     1       5.250  37.546  57.322  1.00  0.00    -0.353 OA
HETATM   25  C   UNL     1       5.444  38.657  58.185  1.00  0.00     0.210 C 
ENDBRANCH  19  24
ENDBRANCH  15  16
ENDBRANCH   1  14
BRANCH  13  26
HETATM   26  N   UNL     1       2.766  33.320  62.670  1.00  0.00    -0.383 N 
HETATM   27  H   UNL     1       2.509  34.293  62.852  1.00  0.00     0.157 HD
HETATM   28  H   UNL     1       2.399  32.663  63.357  1.00  0.00     0.157 HD
ENDBRANCH  13  26
BRANCH  12  29
HETATM   29  C   UNL     1       5.564  34.308  63.614  1.00  0.00     0.258 C 
HETATM   30  N   UNL     1       5.957  35.577  63.229  1.00  0.00    -0.352 N 
HETATM   31  H   UNL     1       6.083  35.700  62.228  1.00  0.00     0.163 HD
HETATM   32  O   UNL     1       5.378  33.993  64.786  1.00  0.00    -0.267 OA
BRANCH  30  33
HETATM   33  C   UNL     1       5.466  36.736  63.961  1.00  0.00     0.084 C 
HETATM   34  C   UNL     1       6.051  38.031  63.385  1.00  0.00     0.025 C 
HETATM   35  C   UNL     1       5.513  38.356  61.988  1.00  0.00     0.002 C 
HETATM   36  C   UNL     1       3.987  38.341  61.934  1.00  0.00     0.000 C 
HETATM   37  C   UNL     1       3.397  37.058  62.510  1.00  0.00     0.002 C 
HETATM   38  C   UNL     1       3.927  36.782  63.919  1.00  0.00     0.025 C 
ENDBRANCH  30  33
ENDBRANCH  12  29
TORSDOF 7
ENDMDL
MODEL 10
REMARK VINA RESULT:      -7.8      2.713      7.753
REMARK  7 active torsions:
REMARK  status: ('A' for Active; 'I' for Inactive)
REMARK    1  A    between atoms: O_2  and  C_3 
REMARK    2  A    between atoms: C_4  and  O_5 
REMARK    3  A    between atoms: C_8  and  C_9 
REMARK    4  A    between atoms: N_10  and  N_11 
REMARK    5  A    between atoms: C_22  and  C_23 
REMARK       I    between atoms: C_23  and  N_24 
REMARK    6  A    between atoms: N_24  and  C_25 
REMARK    7  A    between atoms: C_32  and  N_33 
ROOT
HETATM    1  N   UNL     1       5.320  29.754  50.729  1.00  0.00    -0.197 N 
HETATM    2  C   UNL     1       5.399  28.575  51.446  1.00  0.00     0.183 A 
HETATM    3  C   UNL     1       4.674  28.755  52.613  1.00  0.00     0.125 A 
HETATM    4  N   UNL     1       4.628  27.799  53.581  1.00  0.00    -0.242 NA
HETATM    5  C   UNL     1       5.321  26.684  53.296  1.00  0.00     0.086 A 
HETATM    6  C   UNL     1       6.068  26.527  52.097  1.00  0.00     0.088 A 
HETATM    7  N   UNL     1       6.130  27.475  51.148  1.00  0.00    -0.225 NA
HETATM    8  C   UNL     1       5.309  25.651  54.225  1.00  0.00     0.034 A 
HETATM    9  C   UNL     1       6.021  24.471  54.014  1.00  0.00     0.002 A 
HETATM   10  C   UNL     1       6.762  24.321  52.850  1.00  0.00     0.002 A 
HETATM   11  C   UNL     1       6.776  25.348  51.904  1.00  0.00     0.034 A 
HETATM   12  C   UNL     1       4.106  30.056  52.607  1.00  0.00     0.110 C 
HETATM   13  C   UNL     1       4.445  30.618  51.386  1.00  0.00     0.143 C 
ENDROOT
BRANCH   1  14
HETATM   14  N   UNL     1       5.977  30.016  49.557  1.00  0.00    -0.176 NA
HETATM   15  C   UNL     1       5.416  29.583  48.465  1.00  0.00     0.150 C 
BRANCH  15  16
HETATM   16  C   UNL     1       4.078  28.983  48.252  1.00  0.00    -0.014 A 
HETATM   17  C   UNL     1       4.014  27.661  47.803  1.00  0.00     0.052 A 
HETATM   18  C   UNL     1       2.772  27.068  47.550  1.00  0.00     0.102 A 
HETATM   19  C   UNL     1       1.589  27.820  47.725  1.00  0.00     0.101 A 
HETATM   20  C   UNL     1       1.669  29.147  48.163  1.00  0.00     0.040 A 
HETATM   21  C   UNL     1       2.912  29.733  48.414  1.00  0.00     0.016 A 
BRANCH  18  22
HETATM   22  O   UNL     1       2.603  25.779  47.108  1.00  0.00    -0.353 OA
HETATM   23  C   UNL     1       3.002  24.726  47.973  1.00  0.00     0.210 C 
ENDBRANCH  18  22
BRANCH  19  24
HETATM   24  O   UNL     1       0.414  27.165  47.449  1.00  0.00    -0.353 OA
HETATM   25  C   UNL     1      -0.321  27.583  46.309  1.00  0.00     0.210 C 
ENDBRANCH  19  24
ENDBRANCH  15  16
ENDBRANCH   1  14
BRANCH  13  26
HETATM   26  N   UNL     1       4.107  31.823  50.855  1.00  0.00    -0.383 N 
HETATM   27  H   UNL     1       4.710  32.626  51.057  1.00  0.00     0.157 HD
HETATM   28  H   UNL     1       3.123  32.066  50.753  1.00  0.00     0.157 HD
ENDBRANCH  13  26
BRANCH  12  29
HETATM   29  C   UNL     1       3.396  30.731  53.684  1.00  0.00     0.258 C 
HETATM   30  N   UNL     1       3.554  30.126  54.917  1.00  0.00    -0.352 N 
HETATM   31  H   UNL     1       4.044  29.235  54.897  1.00  0.00     0.163 HD
HETATM   32  O   UNL     1       2.819  31.805  53.535  1.00  0.00    -0.267 OA
BRANCH  30  33
HETATM   33  C   UNL     1       3.766  30.948  56.100  1.00  0.00     0.084 C 
HETATM   34  C   UNL     1       3.593  30.117  57.377  1.00  0.00     0.025 C 
HETATM   35  C   UNL     1       4.708  29.085  57.572  1.00  0.00     0.002 C 
HETATM   36  C   UNL     1       6.099  29.708  57.476  1.00  0.00     0.000 C 
HETATM   37  C   UNL     1       6.278  30.540  56.211  1.00  0.00     0.002 C 
HETATM   38  C   UNL     1       5.169  31.584  56.066  1.00  0.00     0.025 C 
ENDBRANCH  30  33
ENDBRANCH  12  29
TORSDOF 7
ENDMDL
