MODEL 1
REMARK VINA RESULT:      -9.1      0.000      0.000
REMARK  9 active torsions:
REMARK  status: ('A' for Active; 'I' for Inactive)
REMARK    1  A    between atoms: C_2  and  C_3 
REMARK    2  A    between atoms: C_3  and  O_4 
REMARK    3  A    between atoms: O_4  and  C_5 
REMARK    4  A    between atoms: C_8  and  C_9 
REMARK       I    between atoms: C_9  and  N_10 
REMARK    5  A    between atoms: N_10  and  C_11 
REMARK    6  A    between atoms: C_11  and  N_12 
REMARK    7  A    between atoms: N_12  and  C_13 
REMARK    8  A    between atoms: C_15  and  O_16 
REMARK    9  A    between atoms: C_17  and  C_18 
ROOT
HETATM    1  C   UNL     1       3.911  30.713  55.930  1.00  0.00     0.036 A 
HETATM    2  C   UNL     1       3.201  30.446  57.097  1.00  0.00     0.067 A 
HETATM    3  C   UNL     1       3.697  30.848  58.344  1.00  0.00     0.082 A 
HETATM    4  C   UNL     1       4.927  31.505  58.465  1.00  0.00     0.050 A 
HETATM    5  C   UNL     1       5.657  31.737  57.292  1.00  0.00     0.021 A 
HETATM    6  C   UNL     1       5.156  31.347  56.044  1.00  0.00     0.030 A 
ENDROOT
BRANCH   1   7
HETATM    7  N   UNL     1       3.497  30.374  54.626  1.00  0.00    -0.333 N 
HETATM    8  H   UNL     1       2.736  30.942  54.259  1.00  0.00     0.168 HD
BRANCH   7   9
HETATM    9  C   UNL     1       3.897  29.450  53.718  1.00  0.00     0.179 C 
HETATM   10  S   UNL     1       4.522  29.994  52.265  1.00  0.00    -0.040 SA
BRANCH   9  11
HETATM   11  N   UNL     1       3.824  28.118  53.966  1.00  0.00    -0.299 N 
HETATM   12  C   UNL     1       4.907  27.298  54.239  1.00  0.00     0.257 C 
HETATM   13  O   UNL     1       4.968  26.154  53.794  1.00  0.00    -0.267 OA
HETATM   14  H   UNL     1       3.225  27.634  53.310  1.00  0.00     0.171 HD
BRANCH  12  15
HETATM   15  C   UNL     1       5.968  27.784  55.137  1.00  0.00     0.032 A 
HETATM   16  C   UNL     1       5.743  27.697  56.513  1.00  0.00     0.020 A 
HETATM   17  C   UNL     1       6.752  28.054  57.412  1.00  0.00     0.038 A 
HETATM   18  C   UNL     1       7.993  28.487  56.938  1.00  0.00     0.068 A 
HETATM   19  C   UNL     1       8.208  28.574  55.558  1.00  0.00     0.038 A 
HETATM   20  C   UNL     1       7.207  28.210  54.653  1.00  0.00     0.020 A 
BRANCH  18  21
HETATM   21  O   UNL     1       9.063  28.843  57.712  1.00  0.00    -0.351 OA
BRANCH  21  22
HETATM   22  C   UNL     1       9.120  30.207  58.134  1.00  0.00     0.175 C 
BRANCH  22  23
HETATM   23  C   UNL     1      10.472  30.779  57.719  1.00  0.00     0.022 C 
HETATM   24  C   UNL     1      11.363  29.717  57.097  1.00  0.00     0.007 C 
ENDBRANCH  22  23
ENDBRANCH  21  22
ENDBRANCH  18  21
ENDBRANCH  12  15
ENDBRANCH   9  11
ENDBRANCH   7   9
ENDBRANCH   1   7
BRANCH   3  25
HETATM   25  O   UNL     1       2.903  30.526  59.416  1.00  0.00    -0.360 OA
HETATM   26  H   UNL     1       2.394  31.313  59.683  1.00  0.00     0.217 HD
ENDBRANCH   3  25
BRANCH   4  27
HETATM   27  C   UNL     1       5.484  31.935  59.742  1.00  0.00     0.183 A 
HETATM   28  O   UNL     1       6.784  31.564  59.985  1.00  0.00    -0.288 OA
HETATM   29  C   UNL     1       7.046  32.065  61.229  1.00  0.00     0.112 A 
HETATM   30  C   UNL     1       5.909  32.724  61.661  1.00  0.00     0.094 A 
HETATM   31  C   UNL     1       8.235  31.950  61.948  1.00  0.00    -0.025 A 
HETATM   32  N   UNL     1       4.916  32.617  60.718  1.00  0.00    -0.221 NA
HETATM   33  C   UNL     1       5.925  33.360  62.908  1.00  0.00     0.041 A 
HETATM   34  C   UNL     1       7.095  33.282  63.687  1.00  0.00    -0.059 A 
HETATM   35  C   UNL     1       8.221  32.589  63.204  1.00  0.00     0.016 A 
HETATM   36  C   UNL     1       7.157  33.991  65.009  1.00  0.00     0.048 C 
HETATM   37  C   UNL     1       9.433  31.189  61.479  1.00  0.00     0.051 C 
ENDBRANCH   4  27
TORSDOF 9
ENDMDL
MODEL 2
REMARK VINA RESULT:      -8.7      3.931      9.397
REMARK  9 active torsions:
REMARK  status: ('A' for Active; 'I' for Inactive)
REMARK    1  A    between atoms: C_2  and  C_3 
REMARK    2  A    between atoms: C_3  and  O_4 
REMARK    3  A    between atoms: O_4  and  C_5 
REMARK    4  A    between atoms: C_8  and  C_9 
REMARK       I    between atoms: C_9  and  N_10 
REMARK    5  A    between atoms: N_10  and  C_11 
REMARK    6  A    between atoms: C_11  and  N_12 
REMARK    7  A    between atoms: N_12  and  C_13 
REMARK    8  A    between atoms: C_15  and  O_16 
REMARK    9  A    between atoms: C_17  and  C_18 
ROOT
HETATM    1  C   UNL     1       5.975  28.736  57.427  1.00  0.00     0.036 A 
HETATM    2  C   UNL     1       5.183  28.227  56.402  1.00  0.00     0.067 A 
HETATM    3  C   UNL     1       5.504  27.011  55.787  1.00  0.00     0.082 A 
HETATM    4  C   UNL     1       6.640  26.280  56.158  1.00  0.00     0.050 A 
HETATM    5  C   UNL     1       7.456  26.815  57.163  1.00  0.00     0.021 A 
HETATM    6  C   UNL     1       7.127  28.025  57.788  1.00  0.00     0.030 A 
ENDROOT
BRANCH   1   7
HETATM    7  N   UNL     1       5.733  29.935  58.129  1.00  0.00    -0.333 N 
HETATM    8  H   UNL     1       4.954  29.897  58.782  1.00  0.00     0.168 HD
BRANCH   7   9
HETATM    9  C   UNL     1       6.322  31.156  58.143  1.00  0.00     0.179 C 
HETATM   10  S   UNL     1       5.460  32.452  57.528  1.00  0.00    -0.040 SA
BRANCH   9  11
HETATM   11  N   UNL     1       7.562  31.353  58.657  1.00  0.00    -0.299 N 
HETATM   12  C   UNL     1       7.865  32.210  59.702  1.00  0.00     0.257 C 
HETATM   13  O   UNL     1       8.896  32.878  59.700  1.00  0.00    -0.267 OA
HETATM   14  H   UNL     1       8.263  31.478  57.939  1.00  0.00     0.171 HD
BRANCH  12  15
HETATM   15  C   UNL     1       6.967  32.265  60.870  1.00  0.00     0.032 A 
HETATM   16  C   UNL     1       7.405  31.662  62.051  1.00  0.00     0.020 A 
HETATM   17  C   UNL     1       6.638  31.767  63.216  1.00  0.00     0.038 A 
HETATM   18  C   UNL     1       5.439  32.484  63.205  1.00  0.00     0.068 A 
HETATM   19  C   UNL     1       5.008  33.081  62.014  1.00  0.00     0.038 A 
HETATM   20  C   UNL     1       5.774  32.989  60.849  1.00  0.00     0.020 A 
BRANCH  18  21
HETATM   21  O   UNL     1       4.613  32.675  64.278  1.00  0.00    -0.351 OA
BRANCH  21  22
HETATM   22  C   UNL     1       5.105  33.521  65.320  1.00  0.00     0.175 C 
BRANCH  22  23
HETATM   23  C   UNL     1       5.059  34.963  64.827  1.00  0.00     0.022 C 
HETATM   24  C   UNL     1       3.962  35.756  65.518  1.00  0.00     0.007 C 
ENDBRANCH  22  23
ENDBRANCH  21  22
ENDBRANCH  18  21
ENDBRANCH  12  15
ENDBRANCH   9  11
ENDBRANCH   7   9
ENDBRANCH   1   7
BRANCH   3  25
HETATM   25  O   UNL     1       4.645  26.619  54.791  1.00  0.00    -0.360 OA
HETATM   26  H   UNL     1       4.313  27.409  54.328  1.00  0.00     0.217 HD
ENDBRANCH   3  25
BRANCH   4  27
HETATM   27  C   UNL     1       7.016  25.015  55.540  1.00  0.00     0.183 A 
HETATM   28  O   UNL     1       7.328  23.993  56.402  1.00  0.00    -0.288 OA
HETATM   29  C   UNL     1       7.657  22.952  55.583  1.00  0.00     0.112 A 
HETATM   30  C   UNL     1       7.510  23.387  54.277  1.00  0.00     0.094 A 
HETATM   31  C   UNL     1       8.065  21.675  55.966  1.00  0.00    -0.025 A 
HETATM   32  N   UNL     1       7.122  24.705  54.261  1.00  0.00    -0.221 NA
HETATM   33  C   UNL     1       7.758  22.492  53.230  1.00  0.00     0.041 A 
HETATM   34  C   UNL     1       8.174  21.185  53.549  1.00  0.00    -0.059 A 
HETATM   35  C   UNL     1       8.319  20.797  54.894  1.00  0.00     0.016 A 
HETATM   36  C   UNL     1       8.406  20.189  52.448  1.00  0.00     0.048 C 
HETATM   37  C   UNL     1       8.264  21.246  57.384  1.00  0.00     0.051 C 
ENDBRANCH   4  27
TORSDOF 9
ENDMDL
MODEL 3
REMARK VINA RESULT:      -8.7      3.183      7.703
REMARK  9 active torsions:
REMARK  status: ('A' for Active; 'I' for Inactive)
REMARK    1  A    between atoms: C_2  and  C_3 
REMARK    2  A    between atoms: C_3  and  O_4 
REMARK    3  A    between atoms: O_4  and  C_5 
REMARK    4  A    between atoms: C_8  and  C_9 
REMARK       I    between atoms: C_9  and  N_10 
REMARK    5  A    between atoms: N_10  and  C_11 
REMARK    6  A    between atoms: C_11  and  N_12 
REMARK    7  A    between atoms: N_12  and  C_13 
REMARK    8  A    between atoms: C_15  and  O_16 
REMARK    9  A    between atoms: C_17  and  C_18 
ROOT
HETATM    1  C   UNL     1       4.152  29.589  55.072  1.00  0.00     0.036 A 
HETATM    2  C   UNL     1       4.020  28.583  56.024  1.00  0.00     0.067 A 
HETATM    3  C   UNL     1       4.643  27.341  55.844  1.00  0.00     0.082 A 
HETATM    4  C   UNL     1       5.394  27.060  54.696  1.00  0.00     0.050 A 
HETATM    5  C   UNL     1       5.492  28.061  53.722  1.00  0.00     0.021 A 
HETATM    6  C   UNL     1       4.880  29.307  53.909  1.00  0.00     0.030 A 
ENDROOT
BRANCH   1   7
HETATM    7  N   UNL     1       3.589  30.878  55.162  1.00  0.00    -0.333 N 
HETATM    8  H   UNL     1       2.770  31.028  54.576  1.00  0.00     0.168 HD
BRANCH   7   9
HETATM    9  C   UNL     1       3.887  31.992  55.876  1.00  0.00     0.179 C 
HETATM   10  S   UNL     1       4.808  33.177  55.136  1.00  0.00    -0.040 SA
BRANCH   9  11
HETATM   11  N   UNL     1       3.445  32.175  57.145  1.00  0.00    -0.299 N 
HETATM   12  C   UNL     1       3.949  31.533  58.265  1.00  0.00     0.257 C 
HETATM   13  O   UNL     1       3.209  31.157  59.171  1.00  0.00    -0.267 OA
HETATM   14  H   UNL     1       2.436  32.164  57.210  1.00  0.00     0.171 HD
BRANCH  12  15
HETATM   15  C   UNL     1       5.407  31.364  58.401  1.00  0.00     0.032 A 
HETATM   16  C   UNL     1       6.098  32.302  59.171  1.00  0.00     0.020 A 
HETATM   17  C   UNL     1       7.465  32.138  59.413  1.00  0.00     0.038 A 
HETATM   18  C   UNL     1       8.141  31.030  58.898  1.00  0.00     0.068 A 
HETATM   19  C   UNL     1       7.440  30.097  58.124  1.00  0.00     0.038 A 
HETATM   20  C   UNL     1       6.071  30.250  57.886  1.00  0.00     0.020 A 
BRANCH  18  21
HETATM   21  O   UNL     1       9.467  30.747  59.081  1.00  0.00    -0.351 OA
BRANCH  21  22
HETATM   22  C   UNL     1      10.359  31.176  58.051  1.00  0.00     0.175 C 
BRANCH  22  23
HETATM   23  C   UNL     1      10.923  29.938  57.361  1.00  0.00     0.022 C 
HETATM   24  C   UNL     1      10.322  29.743  55.980  1.00  0.00     0.007 C 
ENDBRANCH  22  23
ENDBRANCH  21  22
ENDBRANCH  18  21
ENDBRANCH  12  15
ENDBRANCH   9  11
ENDBRANCH   7   9
ENDBRANCH   1   7
BRANCH   3  25
HETATM   25  O   UNL     1       4.435  26.435  56.853  1.00  0.00    -0.360 OA
HETATM   26  H   UNL     1       3.655  26.708  57.370  1.00  0.00     0.217 HD
ENDBRANCH   3  25
BRANCH   4  27
HETATM   27  C   UNL     1       6.053  25.779  54.463  1.00  0.00     0.183 A 
HETATM   28  O   UNL     1       6.718  25.242  55.537  1.00  0.00    -0.288 OA
HETATM   29  C   UNL     1       7.249  24.081  55.054  1.00  0.00     0.112 A 
HETATM   30  C   UNL     1       6.864  23.966  53.730  1.00  0.00     0.094 A 
HETATM   31  C   UNL     1       8.034  23.161  55.749  1.00  0.00    -0.025 A 
HETATM   32  N   UNL     1       6.122  25.060  53.359  1.00  0.00    -0.221 NA
HETATM   33  C   UNL     1       7.256  22.836  53.004  1.00  0.00     0.041 A 
HETATM   34  C   UNL     1       8.051  21.867  53.646  1.00  0.00    -0.059 A 
HETATM   35  C   UNL     1       8.424  22.038  54.992  1.00  0.00     0.016 A 
HETATM   36  C   UNL     1       8.451  20.623  52.906  1.00  0.00     0.048 C 
HETATM   37  C   UNL     1       8.478  23.334  57.165  1.00  0.00     0.051 C 
ENDBRANCH   4  27
TORSDOF 9
ENDMDL
MODEL 4
REMARK VINA RESULT:      -8.6      3.942      9.109
REMARK  9 active torsions:
REMARK  status: ('A' for Active; 'I' for Inactive)
REMARK    1  A    between atoms: C_2  and  C_3 
REMARK    2  A    between atoms: C_3  and  O_4 
REMARK    3  A    between atoms: O_4  and  C_5 
REMARK    4  A    between atoms: C_8  and  C_9 
REMARK       I    between atoms: C_9  and  N_10 
REMARK    5  A    between atoms: N_10  and  C_11 
REMARK    6  A    between atoms: C_11  and  N_12 
REMARK    7  A    between atoms: N_12  and  C_13 
REMARK    8  A    between atoms: C_15  and  O_16 
REMARK    9  A    between atoms: C_17  and  C_18 
ROOT
HETATM    1  C   UNL     1       5.646  28.770  57.445  1.00  0.00     0.036 A 
HETATM    2  C   UNL     1       6.896  28.236  57.743  1.00  0.00     0.067 A 
HETATM    3  C   UNL     1       7.322  27.039  57.153  1.00  0.00     0.082 A 
HETATM    4  C   UNL     1       6.502  26.327  56.269  1.00  0.00     0.050 A 
HETATM    5  C   UNL     1       5.229  26.847  56.002  1.00  0.00     0.021 A 
HETATM    6  C   UNL     1       4.809  28.051  56.581  1.00  0.00     0.030 A 
ENDROOT
BRANCH   1   7
HETATM    7  N   UNL     1       5.128  29.974  57.961  1.00  0.00    -0.333 N 
HETATM    8  H   UNL     1       4.197  29.900  58.366  1.00  0.00     0.168 HD
BRANCH   7   9
HETATM    9  C   UNL     1       5.600  31.242  58.057  1.00  0.00     0.179 C 
HETATM   10  S   UNL     1       7.125  31.466  58.707  1.00  0.00    -0.040 SA
BRANCH   9  11
HETATM   11  N   UNL     1       4.885  32.312  57.626  1.00  0.00    -0.299 N 
HETATM   12  C   UNL     1       3.870  32.932  58.337  1.00  0.00     0.257 C 
HETATM   13  O   UNL     1       2.861  33.347  57.774  1.00  0.00    -0.267 OA
HETATM   14  H   UNL     1       4.578  32.212  56.668  1.00  0.00     0.171 HD
BRANCH  12  15
HETATM   15  C   UNL     1       4.040  33.158  59.783  1.00  0.00     0.032 A 
HETATM   16  C   UNL     1       3.628  32.143  60.649  1.00  0.00     0.020 A 
HETATM   17  C   UNL     1       3.852  32.263  62.024  1.00  0.00     0.038 A 
HETATM   18  C   UNL     1       4.500  33.390  62.534  1.00  0.00     0.068 A 
HETATM   19  C   UNL     1       4.905  34.404  61.657  1.00  0.00     0.038 A 
HETATM   20  C   UNL     1       4.693  34.287  60.281  1.00  0.00     0.020 A 
BRANCH  18  21
HETATM   21  O   UNL     1       4.794  33.614  63.851  1.00  0.00    -0.351 OA
BRANCH  21  22
HETATM   22  C   UNL     1       6.002  34.328  64.123  1.00  0.00     0.175 C 
BRANCH  22  23
HETATM   23  C   UNL     1       6.995  33.361  64.760  1.00  0.00     0.022 C 
HETATM   24  C   UNL     1       7.911  32.734  63.723  1.00  0.00     0.007 C 
ENDBRANCH  22  23
ENDBRANCH  21  22
ENDBRANCH  18  21
ENDBRANCH  12  15
ENDBRANCH   9  11
ENDBRANCH   7   9
ENDBRANCH   1   7
BRANCH   3  25
HETATM   25  O   UNL     1       8.573  26.619  57.529  1.00  0.00    -0.360 OA
HETATM   26  H   UNL     1       9.240  27.098  57.005  1.00  0.00     0.217 HD
ENDBRANCH   3  25
BRANCH   4  27
HETATM   27  C   UNL     1       6.901  25.074  55.639  1.00  0.00     0.183 A 
HETATM   28  O   UNL     1       7.263  24.061  56.491  1.00  0.00    -0.288 OA
HETATM   29  C   UNL     1       7.603  23.031  55.662  1.00  0.00     0.112 A 
HETATM   30  C   UNL     1       7.412  23.464  54.361  1.00  0.00     0.094 A 
HETATM   31  C   UNL     1       8.056  21.766  56.033  1.00  0.00    -0.025 A 
HETATM   32  N   UNL     1       6.987  24.769  54.358  1.00  0.00    -0.221 NA
HETATM   33  C   UNL     1       7.663  22.578  53.307  1.00  0.00     0.041 A 
HETATM   34  C   UNL     1       8.124  21.283  53.612  1.00  0.00    -0.059 A 
HETATM   35  C   UNL     1       8.311  20.897  54.953  1.00  0.00     0.016 A 
HETATM   36  C   UNL     1       8.359  20.297  52.504  1.00  0.00     0.048 C 
HETATM   37  C   UNL     1       8.301  21.340  57.444  1.00  0.00     0.051 C 
ENDBRANCH   4  27
TORSDOF 9
ENDMDL
MODEL 5
REMARK VINA RESULT:      -8.6      2.964      4.538
REMARK  9 active torsions:
REMARK  status: ('A' for Active; 'I' for Inactive)
REMARK    1  A    between atoms: C_2  and  C_3 
REMARK    2  A    between atoms: C_3  and  O_4 
REMARK    3  A    between atoms: O_4  and  C_5 
REMARK    4  A    between atoms: C_8  and  C_9 
REMARK       I    between atoms: C_9  and  N_10 
REMARK    5  A    between atoms: N_10  and  C_11 
REMARK    6  A    between atoms: C_11  and  N_12 
REMARK    7  A    between atoms: N_12  and  C_13 
REMARK    8  A    between atoms: C_15  and  O_16 
REMARK    9  A    between atoms: C_17  and  C_18 
ROOT
HETATM    1  C   UNL     1       6.632  30.269  56.923  1.00  0.00     0.036 A 
HETATM    2  C   UNL     1       7.571  29.848  57.858  1.00  0.00     0.067 A 
HETATM    3  C   UNL     1       7.620  30.425  59.134  1.00  0.00     0.082 A 
HETATM    4  C   UNL     1       6.749  31.458  59.502  1.00  0.00     0.050 A 
HETATM    5  C   UNL     1       5.832  31.907  58.544  1.00  0.00     0.021 A 
HETATM    6  C   UNL     1       5.774  31.320  57.274  1.00  0.00     0.030 A 
ENDROOT
BRANCH   1   7
HETATM    7  N   UNL     1       6.480  29.744  55.623  1.00  0.00    -0.333 N 
HETATM    8  H   UNL     1       7.274  29.897  55.005  1.00  0.00     0.168 HD
BRANCH   7   9
HETATM    9  C   UNL     1       5.499  29.052  54.992  1.00  0.00     0.179 C 
HETATM   10  S   UNL     1       4.563  28.008  55.903  1.00  0.00    -0.040 SA
BRANCH   9  11
HETATM   11  N   UNL     1       5.249  29.203  53.667  1.00  0.00    -0.299 N 
HETATM   12  C   UNL     1       5.901  28.522  52.651  1.00  0.00     0.257 C 
HETATM   13  O   UNL     1       6.193  29.081  51.596  1.00  0.00    -0.267 OA
HETATM   14  H   UNL     1       5.177  30.173  53.394  1.00  0.00     0.171 HD
BRANCH  12  15
HETATM   15  C   UNL     1       6.184  27.086  52.814  1.00  0.00     0.032 A 
HETATM   16  C   UNL     1       5.146  26.188  52.552  1.00  0.00     0.020 A 
HETATM   17  C   UNL     1       5.384  24.811  52.597  1.00  0.00     0.038 A 
HETATM   18  C   UNL     1       6.662  24.329  52.892  1.00  0.00     0.068 A 
HETATM   19  C   UNL     1       7.694  25.237  53.157  1.00  0.00     0.038 A 
HETATM   20  C   UNL     1       7.465  26.614  53.104  1.00  0.00     0.020 A 
BRANCH  18  21
HETATM   21  O   UNL     1       7.025  23.011  52.946  1.00  0.00    -0.351 OA
BRANCH  21  22
HETATM   22  C   UNL     1       7.659  22.572  54.149  1.00  0.00     0.175 C 
BRANCH  22  23
HETATM   23  C   UNL     1       8.912  21.789  53.770  1.00  0.00     0.022 C 
HETATM   24  C   UNL     1       8.567  20.447  53.147  1.00  0.00     0.007 C 
ENDBRANCH  22  23
ENDBRANCH  21  22
ENDBRANCH  18  21
ENDBRANCH  12  15
ENDBRANCH   9  11
ENDBRANCH   7   9
ENDBRANCH   1   7
BRANCH   3  25
HETATM   25  O   UNL     1       8.590  29.922  59.963  1.00  0.00    -0.360 OA
HETATM   26  H   UNL     1       9.379  30.493  59.913  1.00  0.00     0.217 HD
ENDBRANCH   3  25
BRANCH   4  27
HETATM   27  C   UNL     1       6.770  32.093  60.815  1.00  0.00     0.183 A 
HETATM   28  O   UNL     1       6.133  33.306  60.905  1.00  0.00    -0.288 OA
HETATM   29  C   UNL     1       6.314  33.683  62.205  1.00  0.00     0.112 A 
HETATM   30  C   UNL     1       7.028  32.678  62.834  1.00  0.00     0.094 A 
HETATM   31  C   UNL     1       5.868  34.856  62.811  1.00  0.00    -0.025 A 
HETATM   32  N   UNL     1       7.330  31.683  61.937  1.00  0.00    -0.221 NA
HETATM   33  C   UNL     1       7.324  32.805  64.196  1.00  0.00     0.041 A 
HETATM   34  C   UNL     1       6.902  33.967  64.869  1.00  0.00    -0.059 A 
HETATM   35  C   UNL     1       6.187  34.964  64.179  1.00  0.00     0.016 A 
HETATM   36  C   UNL     1       7.166  34.112  66.341  1.00  0.00     0.048 C 
HETATM   37  C   UNL     1       5.141  35.949  62.096  1.00  0.00     0.051 C 
ENDBRANCH   4  27
TORSDOF 9
ENDMDL
MODEL 6
REMARK VINA RESULT:      -8.4      4.221      9.586
REMARK  9 active torsions:
REMARK  status: ('A' for Active; 'I' for Inactive)
REMARK    1  A    between atoms: C_2  and  C_3 
REMARK    2  A    between atoms: C_3  and  O_4 
REMARK    3  A    between atoms: O_4  and  C_5 
REMARK    4  A    between atoms: C_8  and  C_9 
REMARK       I    between atoms: C_9  and  N_10 
REMARK    5  A    between atoms: N_10  and  C_11 
REMARK    6  A    between atoms: C_11  and  N_12 
REMARK    7  A    between atoms: N_12  and  C_13 
REMARK    8  A    between atoms: C_15  and  O_16 
REMARK    9  A    between atoms: C_17  and  C_18 
ROOT
HETATM    1  C   UNL     1       7.244  29.090  57.902  1.00  0.00     0.036 A 
HETATM    2  C   UNL     1       6.101  28.424  57.471  1.00  0.00     0.067 A 
HETATM    3  C   UNL     1       6.197  27.187  56.820  1.00  0.00     0.082 A 
HETATM    4  C   UNL     1       7.437  26.593  56.558  1.00  0.00     0.050 A 
HETATM    5  C   UNL     1       8.587  27.285  56.958  1.00  0.00     0.021 A 
HETATM    6  C   UNL     1       8.490  28.515  57.621  1.00  0.00     0.030 A 
ENDROOT
BRANCH   1   7
HETATM    7  N   UNL     1       7.262  30.324  58.584  1.00  0.00    -0.333 N 
HETATM    8  H   UNL     1       6.540  30.981  58.297  1.00  0.00     0.168 HD
BRANCH   7   9
HETATM    9  C   UNL     1       8.033  30.848  59.569  1.00  0.00     0.179 C 
HETATM   10  S   UNL     1       9.235  31.928  59.136  1.00  0.00    -0.040 SA
BRANCH   9  11
HETATM   11  N   UNL     1       7.840  30.540  60.876  1.00  0.00    -0.299 N 
HETATM   12  C   UNL     1       7.565  31.456  61.879  1.00  0.00     0.257 C 
HETATM   13  O   UNL     1       8.052  31.338  63.000  1.00  0.00    -0.267 OA
HETATM   14  H   UNL     1       8.533  29.893  61.228  1.00  0.00     0.171 HD
BRANCH  12  15
HETATM   15  C   UNL     1       6.615  32.550  61.612  1.00  0.00     0.032 A 
HETATM   16  C   UNL     1       5.563  32.292  60.730  1.00  0.00     0.020 A 
HETATM   17  C   UNL     1       4.578  33.261  60.513  1.00  0.00     0.038 A 
HETATM   18  C   UNL     1       4.636  34.483  61.187  1.00  0.00     0.068 A 
HETATM   19  C   UNL     1       5.696  34.733  62.066  1.00  0.00     0.038 A 
HETATM   20  C   UNL     1       6.679  33.766  62.294  1.00  0.00     0.020 A 
BRANCH  18  21
HETATM   21  O   UNL     1       3.726  35.499  61.077  1.00  0.00    -0.351 OA
BRANCH  21  22
HETATM   22  C   UNL     1       2.930  35.771  62.231  1.00  0.00     0.175 C 
BRANCH  22  23
HETATM   23  C   UNL     1       1.850  34.698  62.330  1.00  0.00     0.022 C 
HETATM   24  C   UNL     1       0.967  34.675  61.094  1.00  0.00     0.007 C 
ENDBRANCH  22  23
ENDBRANCH  21  22
ENDBRANCH  18  21
ENDBRANCH  12  15
ENDBRANCH   9  11
ENDBRANCH   7   9
ENDBRANCH   1   7
BRANCH   3  25
HETATM   25  O   UNL     1       4.999  26.633  56.445  1.00  0.00    -0.360 OA
HETATM   26  H   UNL     1       5.060  25.663  56.516  1.00  0.00     0.217 HD
ENDBRANCH   3  25
BRANCH   4  27
HETATM   27  C   UNL     1       7.584  25.312  55.877  1.00  0.00     0.183 A 
HETATM   28  O   UNL     1       7.760  24.217  56.687  1.00  0.00    -0.288 OA
HETATM   29  C   UNL     1       7.889  23.174  55.815  1.00  0.00     0.112 A 
HETATM   30  C   UNL     1       7.765  23.683  54.534  1.00  0.00     0.094 A 
HETATM   31  C   UNL     1       8.101  21.833  56.133  1.00  0.00    -0.025 A 
HETATM   32  N   UNL     1       7.593  25.045  54.585  1.00  0.00    -0.221 NA
HETATM   33  C   UNL     1       7.829  22.807  53.445  1.00  0.00     0.041 A 
HETATM   34  C   UNL     1       8.042  21.438  53.697  1.00  0.00    -0.059 A 
HETATM   35  C   UNL     1       8.172  20.973  55.019  1.00  0.00     0.016 A 
HETATM   36  C   UNL     1       8.072  20.467  52.551  1.00  0.00     0.048 C 
HETATM   37  C   UNL     1       8.281  21.316  57.524  1.00  0.00     0.051 C 
ENDBRANCH   4  27
TORSDOF 9
ENDMDL
MODEL 7
REMARK VINA RESULT:      -8.2      3.651      9.380
REMARK  9 active torsions:
REMARK  status: ('A' for Active; 'I' for Inactive)
REMARK    1  A    between atoms: C_2  and  C_3 
REMARK    2  A    between atoms: C_3  and  O_4 
REMARK    3  A    between atoms: O_4  and  C_5 
REMARK    4  A    between atoms: C_8  and  C_9 
REMARK       I    between atoms: C_9  and  N_10 
REMARK    5  A    between atoms: N_10  and  C_11 
REMARK    6  A    between atoms: C_11  and  N_12 
REMARK    7  A    between atoms: N_12  and  C_13 
REMARK    8  A    between atoms: C_15  and  O_16 
REMARK    9  A    between atoms: C_17  and  C_18 
ROOT
HETATM    1  C   UNL     1       6.221  29.664  57.785  1.00  0.00     0.036 A 
HETATM    2  C   UNL     1       5.314  29.101  56.892  1.00  0.00     0.067 A 
HETATM    3  C   UNL     1       5.560  27.846  56.319  1.00  0.00     0.082 A 
HETATM    4  C   UNL     1       6.730  27.130  56.601  1.00  0.00     0.050 A 
HETATM    5  C   UNL     1       7.658  27.718  57.469  1.00  0.00     0.021 A 
HETATM    6  C   UNL     1       7.406  28.966  58.053  1.00  0.00     0.030 A 
ENDROOT
BRANCH   1   7
HETATM    7  N   UNL     1       6.064  30.905  58.435  1.00  0.00    -0.333 N 
HETATM    8  H   UNL     1       6.898  31.249  58.906  1.00  0.00     0.168 HD
BRANCH   7   9
HETATM    9  C   UNL     1       5.034  31.776  58.573  1.00  0.00     0.179 C 
HETATM   10  S   UNL     1       3.502  31.149  58.816  1.00  0.00    -0.040 SA
BRANCH   9  11
HETATM   11  N   UNL     1       5.217  33.120  58.542  1.00  0.00    -0.299 N 
HETATM   12  C   UNL     1       4.673  34.019  59.445  1.00  0.00     0.257 C 
HETATM   13  O   UNL     1       4.256  35.116  59.080  1.00  0.00    -0.267 OA
HETATM   14  H   UNL     1       5.104  33.505  57.614  1.00  0.00     0.171 HD
BRANCH  12  15
HETATM   15  C   UNL     1       4.661  33.680  60.879  1.00  0.00     0.032 A 
HETATM   16  C   UNL     1       5.893  33.529  61.519  1.00  0.00     0.020 A 
HETATM   17  C   UNL     1       5.942  33.302  62.898  1.00  0.00     0.038 A 
HETATM   18  C   UNL     1       4.762  33.237  63.641  1.00  0.00     0.068 A 
HETATM   19  C   UNL     1       3.531  33.386  62.989  1.00  0.00     0.038 A 
HETATM   20  C   UNL     1       3.475  33.622  61.613  1.00  0.00     0.020 A 
BRANCH  18  21
HETATM   21  O   UNL     1       4.678  33.041  64.992  1.00  0.00    -0.351 OA
BRANCH  21  22
HETATM   22  C   UNL     1       4.559  34.212  65.802  1.00  0.00     0.175 C 
BRANCH  22  23
HETATM   23  C   UNL     1       5.759  34.269  66.741  1.00  0.00     0.022 C 
HETATM   24  C   UNL     1       5.330  34.308  68.198  1.00  0.00     0.007 C 
ENDBRANCH  22  23
ENDBRANCH  21  22
ENDBRANCH  18  21
ENDBRANCH  12  15
ENDBRANCH   9  11
ENDBRANCH   7   9
ENDBRANCH   1   7
BRANCH   3  25
HETATM   25  O   UNL     1       4.590  27.402  55.456  1.00  0.00    -0.360 OA
HETATM   26  H   UNL     1       3.845  28.030  55.465  1.00  0.00     0.217 HD
ENDBRANCH   3  25
BRANCH   4  27
HETATM   27  C   UNL     1       7.030  25.826  56.022  1.00  0.00     0.183 A 
HETATM   28  O   UNL     1       7.250  25.807  54.667  1.00  0.00    -0.288 OA
HETATM   29  C   UNL     1       7.484  24.491  54.385  1.00  0.00     0.112 A 
HETATM   30  C   UNL     1       7.414  23.791  55.577  1.00  0.00     0.094 A 
HETATM   31  C   UNL     1       7.752  23.933  53.136  1.00  0.00    -0.025 A 
HETATM   32  N   UNL     1       7.105  24.645  56.606  1.00  0.00    -0.221 NA
HETATM   33  C   UNL     1       7.649  22.412  55.569  1.00  0.00     0.041 A 
HETATM   34  C   UNL     1       7.925  21.784  54.339  1.00  0.00    -0.059 A 
HETATM   35  C   UNL     1       7.974  22.542  53.154  1.00  0.00     0.016 A 
HETATM   36  C   UNL     1       8.224  20.312  54.305  1.00  0.00     0.048 C 
HETATM   37  C   UNL     1       7.773  24.705  51.856  1.00  0.00     0.051 C 
ENDBRANCH   4  27
TORSDOF 9
ENDMDL
MODEL 8
REMARK VINA RESULT:      -8.0      3.673      9.306
REMARK  9 active torsions:
REMARK  status: ('A' for Active; 'I' for Inactive)
REMARK    1  A    between atoms: C_2  and  C_3 
REMARK    2  A    between atoms: C_3  and  O_4 
REMARK    3  A    between atoms: O_4  and  C_5 
REMARK    4  A    between atoms: C_8  and  C_9 
REMARK       I    between atoms: C_9  and  N_10 
REMARK    5  A    between atoms: N_10  and  C_11 
REMARK    6  A    between atoms: C_11  and  N_12 
REMARK    7  A    between atoms: N_12  and  C_13 
REMARK    8  A    between atoms: C_15  and  O_16 
REMARK    9  A    between atoms: C_17  and  C_18 
ROOT
HETATM    1  C   UNL     1       6.100  29.709  57.789  1.00  0.00     0.036 A 
HETATM    2  C   UNL     1       5.187  29.128  56.915  1.00  0.00     0.067 A 
HETATM    3  C   UNL     1       5.446  27.878  56.338  1.00  0.00     0.082 A 
HETATM    4  C   UNL     1       6.634  27.184  56.597  1.00  0.00     0.050 A 
HETATM    5  C   UNL     1       7.568  27.791  57.447  1.00  0.00     0.021 A 
HETATM    6  C   UNL     1       7.303  29.034  58.034  1.00  0.00     0.030 A 
ENDROOT
BRANCH   1   7
HETATM    7  N   UNL     1       5.932  30.948  58.442  1.00  0.00    -0.333 N 
HETATM    8  H   UNL     1       6.755  31.284  58.939  1.00  0.00     0.168 HD
BRANCH   7   9
HETATM    9  C   UNL     1       4.904  31.825  58.554  1.00  0.00     0.179 C 
HETATM   10  S   UNL     1       4.912  33.175  57.566  1.00  0.00    -0.040 SA
BRANCH   9  11
HETATM   11  N   UNL     1       3.877  31.625  59.417  1.00  0.00    -0.299 N 
HETATM   12  C   UNL     1       3.885  31.969  60.759  1.00  0.00     0.257 C 
HETATM   13  O   UNL     1       3.366  31.245  61.605  1.00  0.00    -0.267 OA
HETATM   14  H   UNL     1       3.476  30.701  59.336  1.00  0.00     0.171 HD
BRANCH  12  15
HETATM   15  C   UNL     1       4.467  33.260  61.167  1.00  0.00     0.032 A 
HETATM   16  C   UNL     1       3.720  34.413  60.918  1.00  0.00     0.020 A 
HETATM   17  C   UNL     1       4.178  35.655  61.369  1.00  0.00     0.038 A 
HETATM   18  C   UNL     1       5.376  35.744  62.081  1.00  0.00     0.068 A 
HETATM   19  C   UNL     1       6.119  34.582  62.323  1.00  0.00     0.038 A 
HETATM   20  C   UNL     1       5.663  33.337  61.883  1.00  0.00     0.020 A 
BRANCH  18  21
HETATM   21  O   UNL     1       5.919  36.892  62.591  1.00  0.00    -0.351 OA
BRANCH  21  22
HETATM   22  C   UNL     1       5.083  37.664  63.455  1.00  0.00     0.175 C 
BRANCH  22  23
HETATM   23  C   UNL     1       5.123  37.038  64.845  1.00  0.00     0.022 C 
HETATM   24  C   UNL     1       3.931  36.127  65.084  1.00  0.00     0.007 C 
ENDBRANCH  22  23
ENDBRANCH  21  22
ENDBRANCH  18  21
ENDBRANCH  12  15
ENDBRANCH   9  11
ENDBRANCH   7   9
ENDBRANCH   1   7
BRANCH   3  25
HETATM   25  O   UNL     1       4.468  27.415  55.493  1.00  0.00    -0.360 OA
HETATM   26  H   UNL     1       4.853  27.273  54.609  1.00  0.00     0.217 HD
ENDBRANCH   3  25
BRANCH   4  27
HETATM   27  C   UNL     1       6.948  25.886  56.012  1.00  0.00     0.183 A 
HETATM   28  O   UNL     1       7.165  25.874  54.657  1.00  0.00    -0.288 OA
HETATM   29  C   UNL     1       7.413  24.562  54.370  1.00  0.00     0.112 A 
HETATM   30  C   UNL     1       7.353  23.857  55.560  1.00  0.00     0.094 A 
HETATM   31  C   UNL     1       7.684  24.011  53.118  1.00  0.00    -0.025 A 
HETATM   32  N   UNL     1       7.037  24.704  56.593  1.00  0.00    -0.221 NA
HETATM   33  C   UNL     1       7.604  22.480  55.547  1.00  0.00     0.041 A 
HETATM   34  C   UNL     1       7.884  21.860  54.314  1.00  0.00    -0.059 A 
HETATM   35  C   UNL     1       7.922  22.622  53.132  1.00  0.00     0.016 A 
HETATM   36  C   UNL     1       8.200  20.392  54.275  1.00  0.00     0.048 C 
HETATM   37  C   UNL     1       7.694  24.787  51.841  1.00  0.00     0.051 C 
ENDBRANCH   4  27
TORSDOF 9
ENDMDL
MODEL 9
REMARK VINA RESULT:      -7.9      3.087      4.365
REMARK  9 active torsions:
REMARK  status: ('A' for Active; 'I' for Inactive)
REMARK    1  A    between atoms: C_2  and  C_3 
REMARK    2  A    between atoms: C_3  and  O_4 
REMARK    3  A    between atoms: O_4  and  C_5 
REMARK    4  A    between atoms: C_8  and  C_9 
REMARK       I    between atoms: C_9  and  N_10 
REMARK    5  A    between atoms: N_10  and  C_11 
REMARK    6  A    between atoms: C_11  and  N_12 
REMARK    7  A    between atoms: N_12  and  C_13 
REMARK    8  A    between atoms: C_15  and  O_16 
REMARK    9  A    between atoms: C_17  and  C_18 
ROOT
HETATM    1  C   UNL     1       5.489  29.964  57.116  1.00  0.00     0.036 A 
HETATM    2  C   UNL     1       4.287  30.541  57.515  1.00  0.00     0.067 A 
HETATM    3  C   UNL     1       4.258  31.499  58.537  1.00  0.00     0.082 A 
HETATM    4  C   UNL     1       5.424  31.889  59.207  1.00  0.00     0.050 A 
HETATM    5  C   UNL     1       6.626  31.277  58.829  1.00  0.00     0.021 A 
HETATM    6  C   UNL     1       6.657  30.329  57.798  1.00  0.00     0.030 A 
ENDROOT
BRANCH   1   7
HETATM    7  N   UNL     1       5.636  29.010  56.088  1.00  0.00    -0.333 N 
HETATM    8  H   UNL     1       6.406  29.188  55.447  1.00  0.00     0.168 HD
BRANCH   7   9
HETATM    9  C   UNL     1       4.977  27.873  55.753  1.00  0.00     0.179 C 
HETATM   10  S   UNL     1       5.296  26.490  56.638  1.00  0.00    -0.040 SA
BRANCH   9  11
HETATM   11  N   UNL     1       4.065  27.838  54.749  1.00  0.00    -0.299 N 
HETATM   12  C   UNL     1       4.351  27.564  53.421  1.00  0.00     0.257 C 
HETATM   13  O   UNL     1       3.785  28.165  52.511  1.00  0.00    -0.267 OA
HETATM   14  H   UNL     1       3.430  28.624  54.774  1.00  0.00     0.171 HD
BRANCH  12  15
HETATM   15  C   UNL     1       5.300  26.485  53.098  1.00  0.00     0.032 A 
HETATM   16  C   UNL     1       6.630  26.841  52.862  1.00  0.00     0.020 A 
HETATM   17  C   UNL     1       7.592  25.850  52.645  1.00  0.00     0.038 A 
HETATM   18  C   UNL     1       7.230  24.501  52.677  1.00  0.00     0.068 A 
HETATM   19  C   UNL     1       5.894  24.155  52.912  1.00  0.00     0.038 A 
HETATM   20  C   UNL     1       4.929  25.139  53.138  1.00  0.00     0.020 A 
BRANCH  18  21
HETATM   21  O   UNL     1       8.079  23.443  52.502  1.00  0.00    -0.351 OA
BRANCH  21  22
HETATM   22  C   UNL     1       8.316  22.618  53.645  1.00  0.00     0.175 C 
BRANCH  22  23
HETATM   23  C   UNL     1       8.243  21.159  53.205  1.00  0.00     0.022 C 
HETATM   24  C   UNL     1       8.431  20.211  54.376  1.00  0.00     0.007 C 
ENDBRANCH  22  23
ENDBRANCH  21  22
ENDBRANCH  18  21
ENDBRANCH  12  15
ENDBRANCH   9  11
ENDBRANCH   7   9
ENDBRANCH   1   7
BRANCH   3  25
HETATM   25  O   UNL     1       3.013  31.991  58.837  1.00  0.00    -0.360 OA
HETATM   26  H   UNL     1       3.017  32.959  58.719  1.00  0.00     0.217 HD
ENDBRANCH   3  25
BRANCH   4  27
HETATM   27  C   UNL     1       5.439  32.876  60.280  1.00  0.00     0.183 A 
HETATM   28  O   UNL     1       6.289  32.613  61.326  1.00  0.00    -0.288 OA
HETATM   29  C   UNL     1       6.098  33.659  62.183  1.00  0.00     0.112 A 
HETATM   30  C   UNL     1       5.165  34.504  61.607  1.00  0.00     0.094 A 
HETATM   31  C   UNL     1       6.720  33.863  63.414  1.00  0.00    -0.025 A 
HETATM   32  N   UNL     1       4.738  33.987  60.409  1.00  0.00    -0.221 NA
HETATM   33  C   UNL     1       4.810  35.681  62.276  1.00  0.00     0.041 A 
HETATM   34  C   UNL     1       5.401  35.947  63.526  1.00  0.00    -0.059 A 
HETATM   35  C   UNL     1       6.337  35.049  64.072  1.00  0.00     0.016 A 
HETATM   36  C   UNL     1       5.073  37.223  64.247  1.00  0.00     0.048 C 
HETATM   37  C   UNL     1       7.688  32.909  64.036  1.00  0.00     0.051 C 
ENDBRANCH   4  27
TORSDOF 9
ENDMDL
MODEL 10
REMARK VINA RESULT:      -7.9      2.855      4.203
REMARK  9 active torsions:
REMARK  status: ('A' for Active; 'I' for Inactive)
REMARK    1  A    between atoms: C_2  and  C_3 
REMARK    2  A    between atoms: C_3  and  O_4 
REMARK    3  A    between atoms: O_4  and  C_5 
REMARK    4  A    between atoms: C_8  and  C_9 
REMARK       I    between atoms: C_9  and  N_10 
REMARK    5  A    between atoms: N_10  and  C_11 
REMARK    6  A    between atoms: C_11  and  N_12 
REMARK    7  A    between atoms: N_12  and  C_13 
REMARK    8  A    between atoms: C_15  and  O_16 
REMARK    9  A    between atoms: C_17  and  C_18 
ROOT
HETATM    1  C   UNL     1       4.329  29.216  54.191  1.00  0.00     0.036 A 
HETATM    2  C   UNL     1       5.459  28.762  54.864  1.00  0.00     0.067 A 
HETATM    3  C   UNL     1       5.870  29.364  56.060  1.00  0.00     0.082 A 
HETATM    4  C   UNL     1       5.180  30.455  56.604  1.00  0.00     0.050 A 
HETATM    5  C   UNL     1       4.067  30.935  55.902  1.00  0.00     0.021 A 
HETATM    6  C   UNL     1       3.648  30.323  54.714  1.00  0.00     0.030 A 
ENDROOT
BRANCH   1   7
HETATM    7  N   UNL     1       3.815  28.671  52.997  1.00  0.00    -0.333 N 
HETATM    8  H   UNL     1       2.849  28.356  53.052  1.00  0.00     0.168 HD
BRANCH   7   9
HETATM    9  C   UNL     1       4.320  28.474  51.754  1.00  0.00     0.179 C 
HETATM   10  S   UNL     1       5.477  29.547  51.196  1.00  0.00    -0.040 SA
BRANCH   9  11
HETATM   11  N   UNL     1       3.932  27.434  50.974  1.00  0.00    -0.299 N 
HETATM   12  C   UNL     1       4.708  26.323  50.685  1.00  0.00     0.257 C 
HETATM   13  O   UNL     1       4.695  25.810  49.569  1.00  0.00    -0.267 OA
HETATM   14  H   UNL     1       3.489  27.735  50.117  1.00  0.00     0.171 HD
BRANCH  12  15
HETATM   15  C   UNL     1       5.508  25.705  51.757  1.00  0.00     0.032 A 
HETATM   16  C   UNL     1       6.888  25.614  51.565  1.00  0.00     0.020 A 
HETATM   17  C   UNL     1       7.707  25.126  52.587  1.00  0.00     0.038 A 
HETATM   18  C   UNL     1       7.150  24.739  53.808  1.00  0.00     0.068 A 
HETATM   19  C   UNL     1       5.764  24.831  53.990  1.00  0.00     0.038 A 
HETATM   20  C   UNL     1       4.941  25.327  52.976  1.00  0.00     0.020 A 
BRANCH  18  21
HETATM   21  O   UNL     1       7.843  24.267  54.889  1.00  0.00    -0.351 OA
BRANCH  21  22
HETATM   22  C   UNL     1       7.365  23.054  55.474  1.00  0.00     0.175 C 
BRANCH  22  23
HETATM   23  C   UNL     1       7.877  21.886  54.637  1.00  0.00     0.022 C 
HETATM   24  C   UNL     1       7.881  20.589  55.428  1.00  0.00     0.007 C 
ENDBRANCH  22  23
ENDBRANCH  21  22
ENDBRANCH  18  21
ENDBRANCH  12  15
ENDBRANCH   9  11
ENDBRANCH   7   9
ENDBRANCH   1   7
BRANCH   3  25
HETATM   25  O   UNL     1       6.997  28.824  56.626  1.00  0.00    -0.360 OA
HETATM   26  H   UNL     1       7.518  28.378  55.933  1.00  0.00     0.217 HD
ENDBRANCH   3  25
BRANCH   4  27
HETATM   27  C   UNL     1       5.577  31.118  57.841  1.00  0.00     0.183 A 
HETATM   28  O   UNL     1       6.927  31.186  58.080  1.00  0.00    -0.288 OA
HETATM   29  C   UNL     1       7.021  31.823  59.284  1.00  0.00     0.112 A 
HETATM   30  C   UNL     1       5.735  32.122  59.699  1.00  0.00     0.094 A 
HETATM   31  C   UNL     1       8.187  32.130  59.984  1.00  0.00    -0.025 A 
HETATM   32  N   UNL     1       4.825  31.652  58.785  1.00  0.00    -0.221 NA
HETATM   33  C   UNL     1       5.553  32.810  60.904  1.00  0.00     0.041 A 
HETATM   34  C   UNL     1       6.690  33.151  61.661  1.00  0.00    -0.059 A 
HETATM   35  C   UNL     1       7.975  32.813  61.199  1.00  0.00     0.016 A 
HETATM   36  C   UNL     1       6.528  33.928  62.937  1.00  0.00     0.048 C 
HETATM   37  C   UNL     1       9.562  31.751  59.538  1.00  0.00     0.051 C 
ENDBRANCH   4  27
TORSDOF 9
ENDMDL
