MODEL 1
REMARK VINA RESULT:      -8.8      0.000      0.000
REMARK  4 active torsions:
REMARK  status: ('A' for Active; 'I' for Inactive)
REMARK    1  A    between atoms: C_8  and  N_9 
REMARK    2  A    between atoms: C_11  and  C_12 
REMARK    3  A    between atoms: C_13  and  O_14 
REMARK    4  A    between atoms: O_14  and  C_15 
ROOT
HETATM    1  C   UNL     1       3.409  38.136  61.355  1.00  0.00     0.002 A 
HETATM    2  C   UNL     1       3.104  37.311  60.266  1.00  0.00     0.034 A 
HETATM    3  C   UNL     1       3.164  35.921  60.438  1.00  0.00     0.103 A 
HETATM    4  C   UNL     1       3.524  35.400  61.677  1.00  0.00     0.083 A 
HETATM    5  N   UNL     1       3.500  34.049  61.465  1.00  0.00    -0.151 N 
HETATM    6  C   UNL     1       3.092  33.785  60.182  1.00  0.00     0.734 A 
HETATM    7  N   UNL     1       2.914  32.530  59.713  1.00  0.00    -0.033 NA
HETATM    8  C   UNL     1       3.043  31.542  60.522  1.00  0.00     0.193 C 
HETATM    9  N   UNL     1       3.411  31.658  61.866  1.00  0.00    -0.338 N 
HETATM   10  C   UNL     1       3.777  32.971  62.391  1.00  0.00     0.246 C 
HETATM   11  N   UNL     1       2.908  34.917  59.539  1.00  0.00    -0.060 NA
HETATM   12  C   UNL     1       3.831  36.203  62.781  1.00  0.00     0.033 A 
HETATM   13  C   UNL     1       3.765  37.588  62.590  1.00  0.00     0.002 A 
HETATM   14  H   UNL     1       3.543  30.846  62.446  1.00  0.00     0.164 HD
ENDROOT
BRANCH  10  15
HETATM   15  C   UNL     1       5.237  32.892  62.832  1.00  0.00     0.020 A 
HETATM   16  C   UNL     1       5.565  33.125  64.189  1.00  0.00     0.085 A 
HETATM   17  C   UNL     1       6.902  33.099  64.603  1.00  0.00     0.039 A 
HETATM   18  C   UNL     1       7.917  32.809  63.689  1.00  0.00     0.022 A 
HETATM   19  C   UNL     1       7.600  32.531  62.365  1.00  0.00     0.011 A 
HETATM   20 BR   UNL     1       8.976  32.121  61.137  1.00  0.00    -0.051 Br
HETATM   21  C   UNL     1       6.275  32.562  61.936  1.00  0.00     0.033 A 
BRANCH  16  22
HETATM   22  O   UNL     1       4.498  33.339  65.021  1.00  0.00    -0.289 OA
BRANCH  22  23
HETATM   23  C   UNL     1       4.630  34.333  66.033  1.00  0.00     0.505 C 
HETATM   24  F   UNL     1       3.579  35.180  65.952  1.00  0.00    -0.184 F 
HETATM   25  F   UNL     1       4.530  33.686  67.219  1.00  0.00    -0.184 F 
ENDBRANCH  22  23
ENDBRANCH  16  22
ENDBRANCH  10  15
BRANCH   8  26
HETATM   26  N   UNL     1       2.843  30.260  60.152  1.00  0.00    -0.272 NA
HETATM   27  H   UNL     1       2.694  29.670  60.968  1.00  0.00     0.127 HD
HETATM   28  H   UNL     1       3.544  29.856  59.544  1.00  0.00     0.127 HD
ENDBRANCH   8  26
TORSDOF 4
ENDMDL
MODEL 2
REMARK VINA RESULT:      -7.9      3.528      6.019
REMARK  4 active torsions:
REMARK  status: ('A' for Active; 'I' for Inactive)
REMARK    1  A    between atoms: C_8  and  N_9 
REMARK    2  A    between atoms: C_11  and  C_12 
REMARK    3  A    between atoms: C_13  and  O_14 
REMARK    4  A    between atoms: O_14  and  C_15 
ROOT
HETATM    1  C   UNL     1       8.253  32.311  62.164  1.00  0.00     0.002 A 
HETATM    2  C   UNL     1       8.086  32.442  63.548  1.00  0.00     0.034 A 
HETATM    3  C   UNL     1       6.963  33.130  64.028  1.00  0.00     0.103 A 
HETATM    4  C   UNL     1       6.050  33.665  63.123  1.00  0.00     0.083 A 
HETATM    5  N   UNL     1       5.127  34.268  63.933  1.00  0.00    -0.151 N 
HETATM    6  C   UNL     1       5.450  34.053  65.249  1.00  0.00     0.734 A 
HETATM    7  N   UNL     1       4.678  34.482  66.273  1.00  0.00    -0.033 NA
HETATM    8  C   UNL     1       3.549  35.034  66.009  1.00  0.00     0.193 C 
HETATM    9  N   UNL     1       3.067  35.280  64.720  1.00  0.00    -0.338 N 
HETATM   10  C   UNL     1       3.925  34.990  63.573  1.00  0.00     0.246 C 
HETATM   11  N   UNL     1       6.579  33.384  65.320  1.00  0.00    -0.060 NA
HETATM   12  C   UNL     1       6.192  33.545  61.737  1.00  0.00     0.033 A 
HETATM   13  C   UNL     1       7.319  32.854  61.277  1.00  0.00     0.002 A 
HETATM   14  H   UNL     1       2.195  35.759  64.569  1.00  0.00     0.164 HD
ENDROOT
BRANCH  10  15
HETATM   15  C   UNL     1       4.188  36.314  62.858  1.00  0.00     0.020 A 
HETATM   16  C   UNL     1       3.409  36.658  61.727  1.00  0.00     0.085 A 
HETATM   17  C   UNL     1       3.665  37.846  61.034  1.00  0.00     0.039 A 
HETATM   18  C   UNL     1       4.663  38.718  61.472  1.00  0.00     0.022 A 
HETATM   19  C   UNL     1       5.400  38.412  62.610  1.00  0.00     0.011 A 
HETATM   20 BR   UNL     1       6.739  39.603  63.209  1.00  0.00    -0.051 Br
HETATM   21  C   UNL     1       5.165  37.229  63.306  1.00  0.00     0.033 A 
BRANCH  16  22
HETATM   22  O   UNL     1       2.414  35.772  61.411  1.00  0.00    -0.289 OA
BRANCH  22  23
HETATM   23  C   UNL     1       2.576  34.975  60.241  1.00  0.00     0.505 C 
HETATM   24  F   UNL     1       3.886  34.961  59.903  1.00  0.00    -0.184 F 
HETATM   25  F   UNL     1       2.241  33.710  60.591  1.00  0.00    -0.184 F 
ENDBRANCH  22  23
ENDBRANCH  16  22
ENDBRANCH  10  15
BRANCH   8  26
HETATM   26  N   UNL     1       2.697  35.453  66.967  1.00  0.00    -0.272 NA
HETATM   27  H   UNL     1       2.154  36.251  66.640  1.00  0.00     0.127 HD
HETATM   28  H   UNL     1       3.104  35.648  67.872  1.00  0.00     0.127 HD
ENDBRANCH   8  26
TORSDOF 4
ENDMDL
MODEL 3
REMARK VINA RESULT:      -7.7      1.701      2.334
REMARK  4 active torsions:
REMARK  status: ('A' for Active; 'I' for Inactive)
REMARK    1  A    between atoms: C_8  and  N_9 
REMARK    2  A    between atoms: C_11  and  C_12 
REMARK    3  A    between atoms: C_13  and  O_14 
REMARK    4  A    between atoms: O_14  and  C_15 
ROOT
HETATM    1  C   UNL     1       6.494  39.808  62.208  1.00  0.00     0.002 A 
HETATM    2  C   UNL     1       5.812  39.335  61.081  1.00  0.00     0.034 A 
HETATM    3  C   UNL     1       5.205  38.073  61.143  1.00  0.00     0.103 A 
HETATM    4  C   UNL     1       5.297  37.326  62.315  1.00  0.00     0.083 A 
HETATM    5  N   UNL     1       4.627  36.175  62.003  1.00  0.00    -0.151 N 
HETATM    6  C   UNL     1       4.119  36.260  60.732  1.00  0.00     0.734 A 
HETATM    7  N   UNL     1       3.356  35.290  60.181  1.00  0.00    -0.033 NA
HETATM    8  C   UNL     1       3.013  34.286  60.902  1.00  0.00     0.193 C 
HETATM    9  N   UNL     1       3.416  34.084  62.226  1.00  0.00    -0.338 N 
HETATM   10  C   UNL     1       4.374  35.011  62.825  1.00  0.00     0.246 C 
HETATM   11  N   UNL     1       4.486  37.400  60.188  1.00  0.00    -0.060 NA
HETATM   12  C   UNL     1       5.969  37.778  63.455  1.00  0.00     0.033 A 
HETATM   13  C   UNL     1       6.568  39.041  63.373  1.00  0.00     0.002 A 
HETATM   14  H   UNL     1       3.156  33.255  62.733  1.00  0.00     0.164 HD
ENDROOT
BRANCH  10  15
HETATM   15  C   UNL     1       5.628  34.209  63.168  1.00  0.00     0.020 A 
HETATM   16  C   UNL     1       6.080  34.167  64.508  1.00  0.00     0.085 A 
HETATM   17  C   UNL     1       7.251  33.472  64.832  1.00  0.00     0.039 A 
HETATM   18  C   UNL     1       7.961  32.786  63.845  1.00  0.00     0.022 A 
HETATM   19  C   UNL     1       7.498  32.782  62.535  1.00  0.00     0.011 A 
HETATM   20 BR   UNL     1       8.452  31.838  61.205  1.00  0.00    -0.051 Br
HETATM   21  C   UNL     1       6.339  33.476  62.194  1.00  0.00     0.033 A 
BRANCH  16  22
HETATM   22  O   UNL     1       5.285  34.816  65.415  1.00  0.00    -0.289 OA
BRANCH  22  23
HETATM   23  C   UNL     1       4.357  34.039  66.165  1.00  0.00     0.505 C 
HETATM   24  F   UNL     1       4.899  33.759  67.373  1.00  0.00    -0.184 F 
HETATM   25  F   UNL     1       3.282  34.833  66.385  1.00  0.00    -0.184 F 
ENDBRANCH  22  23
ENDBRANCH  16  22
ENDBRANCH  10  15
BRANCH   8  26
HETATM   26  N   UNL     1       2.219  33.294  60.449  1.00  0.00    -0.272 NA
HETATM   27  H   UNL     1       1.290  33.360  60.862  1.00  0.00     0.127 HD
HETATM   28  H   UNL     1       2.583  32.354  60.541  1.00  0.00     0.127 HD
ENDBRANCH   8  26
TORSDOF 4
ENDMDL
MODEL 4
REMARK VINA RESULT:      -7.7      6.392      8.341
REMARK  4 active torsions:
REMARK  status: ('A' for Active; 'I' for Inactive)
REMARK    1  A    between atoms: C_8  and  N_9 
REMARK    2  A    between atoms: C_11  and  C_12 
REMARK    3  A    between atoms: C_13  and  O_14 
REMARK    4  A    between atoms: O_14  and  C_15 
ROOT
HETATM    1  C   UNL     1       5.084  27.145  54.922  1.00  0.00     0.002 A 
HETATM    2  C   UNL     1       6.253  27.598  54.298  1.00  0.00     0.034 A 
HETATM    3  C   UNL     1       7.231  28.228  55.080  1.00  0.00     0.103 A 
HETATM    4  C   UNL     1       7.017  28.387  56.446  1.00  0.00     0.083 A 
HETATM    5  N   UNL     1       8.142  29.046  56.861  1.00  0.00    -0.151 N 
HETATM    6  C   UNL     1       9.000  29.218  55.805  1.00  0.00     0.734 A 
HETATM    7  N   UNL     1      10.220  29.784  55.936  1.00  0.00    -0.033 NA
HETATM    8  C   UNL     1      10.637  30.094  57.109  1.00  0.00     0.193 C 
HETATM    9  N   UNL     1       9.894  29.937  58.283  1.00  0.00    -0.338 N 
HETATM   10  C   UNL     1       8.508  29.485  58.192  1.00  0.00     0.246 C 
HETATM   11  N   UNL     1       8.446  28.747  54.709  1.00  0.00    -0.060 NA
HETATM   12  C   UNL     1       5.861  27.940  57.093  1.00  0.00     0.033 A 
HETATM   13  C   UNL     1       4.896  27.313  56.296  1.00  0.00     0.002 A 
HETATM   14  H   UNL     1      10.251  30.240  59.175  1.00  0.00     0.164 HD
ENDROOT
BRANCH  10  15
HETATM   15  C   UNL     1       7.628  30.607  58.739  1.00  0.00     0.020 A 
HETATM   16  C   UNL     1       7.694  30.932  60.114  1.00  0.00     0.085 A 
HETATM   17  C   UNL     1       6.863  31.927  60.642  1.00  0.00     0.039 A 
HETATM   18  C   UNL     1       5.991  32.632  59.809  1.00  0.00     0.022 A 
HETATM   19  C   UNL     1       5.954  32.353  58.449  1.00  0.00     0.011 A 
HETATM   20 BR   UNL     1       4.785  33.321  57.324  1.00  0.00    -0.051 Br
HETATM   21  C   UNL     1       6.768  31.358  57.910  1.00  0.00     0.033 A 
BRANCH  16  22
HETATM   22  O   UNL     1       8.623  30.231  60.838  1.00  0.00    -0.289 OA
BRANCH  22  23
HETATM   23  C   UNL     1       9.373  30.937  61.821  1.00  0.00     0.505 C 
HETATM   24  F   UNL     1      10.251  30.083  62.395  1.00  0.00    -0.184 F 
HETATM   25  F   UNL     1      10.099  31.866  61.153  1.00  0.00    -0.184 F 
ENDBRANCH  22  23
ENDBRANCH  16  22
ENDBRANCH  10  15
BRANCH   8  26
HETATM   26  N   UNL     1      11.856  30.623  57.338  1.00  0.00    -0.272 NA
HETATM   27  H   UNL     1      12.031  31.407  56.711  1.00  0.00     0.127 HD
HETATM   28  H   UNL     1      12.634  29.976  57.324  1.00  0.00     0.127 HD
ENDBRANCH   8  26
TORSDOF 4
ENDMDL
MODEL 5
REMARK VINA RESULT:      -7.6      8.578     10.852
REMARK  4 active torsions:
REMARK  status: ('A' for Active; 'I' for Inactive)
REMARK    1  A    between atoms: C_8  and  N_9 
REMARK    2  A    between atoms: C_11  and  C_12 
REMARK    3  A    between atoms: C_13  and  O_14 
REMARK    4  A    between atoms: O_14  and  C_15 
ROOT
HETATM    1  C   UNL     1       8.103  23.540  57.007  1.00  0.00     0.002 A 
HETATM    2  C   UNL     1       7.170  23.486  55.965  1.00  0.00     0.034 A 
HETATM    3  C   UNL     1       6.909  24.654  55.236  1.00  0.00     0.103 A 
HETATM    4  C   UNL     1       7.578  25.830  55.564  1.00  0.00     0.083 A 
HETATM    5  N   UNL     1       7.062  26.738  54.680  1.00  0.00    -0.151 N 
HETATM    6  C   UNL     1       6.176  26.117  53.837  1.00  0.00     0.734 A 
HETATM    7  N   UNL     1       5.560  26.759  52.820  1.00  0.00    -0.033 NA
HETATM    8  C   UNL     1       5.881  27.976  52.569  1.00  0.00     0.193 C 
HETATM    9  N   UNL     1       6.800  28.724  53.312  1.00  0.00    -0.338 N 
HETATM   10  C   UNL     1       7.376  28.142  54.522  1.00  0.00     0.246 C 
HETATM   11  N   UNL     1       6.054  24.854  54.181  1.00  0.00    -0.060 NA
HETATM   12  C   UNL     1       8.517  25.908  56.598  1.00  0.00     0.033 A 
HETATM   13  C   UNL     1       8.764  24.732  57.314  1.00  0.00     0.002 A 
HETATM   14  H   UNL     1       6.982  29.691  53.100  1.00  0.00     0.164 HD
ENDROOT
BRANCH  10  15
HETATM   15  C   UNL     1       6.937  29.012  55.697  1.00  0.00     0.020 A 
HETATM   16  C   UNL     1       7.917  29.570  56.553  1.00  0.00     0.085 A 
HETATM   17  C   UNL     1       7.530  30.334  57.660  1.00  0.00     0.039 A 
HETATM   18  C   UNL     1       6.179  30.582  57.908  1.00  0.00     0.022 A 
HETATM   19  C   UNL     1       5.212  30.080  57.046  1.00  0.00     0.011 A 
HETATM   20 BR   UNL     1       3.385  30.433  57.377  1.00  0.00    -0.051 Br
HETATM   21  C   UNL     1       5.580  29.309  55.945  1.00  0.00     0.033 A 
BRANCH  16  22
HETATM   22  O   UNL     1       9.216  29.324  56.193  1.00  0.00    -0.289 OA
BRANCH  22  23
HETATM   23  C   UNL     1      10.240  29.652  57.127  1.00  0.00     0.505 C 
HETATM   24  F   UNL     1      11.346  28.933  56.831  1.00  0.00    -0.184 F 
HETATM   25  F   UNL     1      10.544  30.956  56.918  1.00  0.00    -0.184 F 
ENDBRANCH  22  23
ENDBRANCH  16  22
ENDBRANCH  10  15
BRANCH   8  26
HETATM   26  N   UNL     1       5.350  28.680  51.548  1.00  0.00    -0.272 NA
HETATM   27  H   UNL     1       5.803  29.588  51.464  1.00  0.00     0.127 HD
HETATM   28  H   UNL     1       4.344  28.784  51.554  1.00  0.00     0.127 HD
ENDBRANCH   8  26
TORSDOF 4
ENDMDL
MODEL 6
REMARK VINA RESULT:      -7.5      3.670      6.008
REMARK  4 active torsions:
REMARK  status: ('A' for Active; 'I' for Inactive)
REMARK    1  A    between atoms: C_8  and  N_9 
REMARK    2  A    between atoms: C_11  and  C_12 
REMARK    3  A    between atoms: C_13  and  O_14 
REMARK    4  A    between atoms: O_14  and  C_15 
ROOT
HETATM    1  C   UNL     1       8.758  32.259  62.280  1.00  0.00     0.002 A 
HETATM    2  C   UNL     1       8.043  32.644  63.420  1.00  0.00     0.034 A 
HETATM    3  C   UNL     1       6.674  32.921  63.293  1.00  0.00     0.103 A 
HETATM    4  C   UNL     1       6.066  32.809  62.046  1.00  0.00     0.083 A 
HETATM    5  N   UNL     1       4.771  33.171  62.298  1.00  0.00    -0.151 N 
HETATM    6  C   UNL     1       4.611  33.430  63.636  1.00  0.00     0.734 A 
HETATM    7  N   UNL     1       3.417  33.751  64.182  1.00  0.00    -0.033 NA
HETATM    8  C   UNL     1       2.369  33.723  63.442  1.00  0.00     0.193 C 
HETATM    9  N   UNL     1       2.370  33.434  62.074  1.00  0.00    -0.338 N 
HETATM   10  C   UNL     1       3.646  33.241  61.390  1.00  0.00     0.246 C 
HETATM   11  N   UNL     1       5.768  33.307  64.248  1.00  0.00    -0.060 NA
HETATM   12  C   UNL     1       6.758  32.422  60.893  1.00  0.00     0.033 A 
HETATM   13  C   UNL     1       8.123  32.149  61.041  1.00  0.00     0.002 A 
HETATM   14  H   UNL     1       1.524  33.471  61.529  1.00  0.00     0.164 HD
ENDROOT
BRANCH  10  15
HETATM   15  C   UNL     1       3.767  34.342  60.337  1.00  0.00     0.020 A 
HETATM   16  C   UNL     1       3.495  34.038  58.982  1.00  0.00     0.085 A 
HETATM   17  C   UNL     1       3.642  35.023  57.999  1.00  0.00     0.039 A 
HETATM   18  C   UNL     1       4.022  36.319  58.350  1.00  0.00     0.022 A 
HETATM   19  C   UNL     1       4.245  36.639  59.684  1.00  0.00     0.011 A 
HETATM   20 BR   UNL     1       4.743  38.399  60.157  1.00  0.00    -0.051 Br
HETATM   21  C   UNL     1       4.112  35.668  60.674  1.00  0.00     0.033 A 
BRANCH  16  22
HETATM   22  O   UNL     1       3.068  32.759  58.743  1.00  0.00    -0.289 OA
BRANCH  22  23
HETATM   23  C   UNL     1       3.882  31.926  57.923  1.00  0.00     0.505 C 
HETATM   24  F   UNL     1       5.169  32.325  58.039  1.00  0.00    -0.184 F 
HETATM   25  F   UNL     1       3.803  30.679  58.446  1.00  0.00    -0.184 F 
ENDBRANCH  22  23
ENDBRANCH  16  22
ENDBRANCH  10  15
BRANCH   8  26
HETATM   26  N   UNL     1       1.132  33.986  63.912  1.00  0.00    -0.272 NA
HETATM   27  H   UNL     1       0.426  33.754  63.215  1.00  0.00     0.127 HD
HETATM   28  H   UNL     1       0.981  34.919  64.273  1.00  0.00     0.127 HD
ENDBRANCH   8  26
TORSDOF 4
ENDMDL
MODEL 7
REMARK VINA RESULT:      -7.5      3.412      5.757
REMARK  4 active torsions:
REMARK  status: ('A' for Active; 'I' for Inactive)
REMARK    1  A    between atoms: C_8  and  N_9 
REMARK    2  A    between atoms: C_11  and  C_12 
REMARK    3  A    between atoms: C_13  and  O_14 
REMARK    4  A    between atoms: O_14  and  C_15 
ROOT
HETATM    1  C   UNL     1       7.025  31.941  59.603  1.00  0.00     0.002 A 
HETATM    2  C   UNL     1       7.883  31.906  60.708  1.00  0.00     0.034 A 
HETATM    3  C   UNL     1       7.446  32.467  61.916  1.00  0.00     0.103 A 
HETATM    4  C   UNL     1       6.180  33.040  61.986  1.00  0.00     0.083 A 
HETATM    5  N   UNL     1       6.114  33.492  63.276  1.00  0.00    -0.151 N 
HETATM    6  C   UNL     1       7.260  33.153  63.948  1.00  0.00     0.734 A 
HETATM    7  N   UNL     1       7.445  33.418  65.261  1.00  0.00    -0.033 NA
HETATM    8  C   UNL     1       6.477  33.925  65.934  1.00  0.00     0.193 C 
HETATM    9  N   UNL     1       5.237  34.281  65.396  1.00  0.00    -0.338 N 
HETATM   10  C   UNL     1       5.031  34.174  63.953  1.00  0.00     0.246 C 
HETATM   11  N   UNL     1       8.090  32.551  63.125  1.00  0.00    -0.060 NA
HETATM   12  C   UNL     1       5.302  33.084  60.897  1.00  0.00     0.033 A 
HETATM   13  C   UNL     1       5.757  32.519  59.700  1.00  0.00     0.002 A 
HETATM   14  H   UNL     1       4.527  34.719  65.959  1.00  0.00     0.164 HD
ENDROOT
BRANCH  10  15
HETATM   15  C   UNL     1       4.760  35.583  63.428  1.00  0.00     0.020 A 
HETATM   16  C   UNL     1       3.551  35.846  62.742  1.00  0.00     0.085 A 
HETATM   17  C   UNL     1       3.305  37.120  62.217  1.00  0.00     0.039 A 
HETATM   18  C   UNL     1       4.233  38.148  62.396  1.00  0.00     0.022 A 
HETATM   19  C   UNL     1       5.401  37.911  63.110  1.00  0.00     0.011 A 
HETATM   20 BR   UNL     1       6.645  39.310  63.365  1.00  0.00    -0.051 Br
HETATM   21  C   UNL     1       5.665  36.646  63.631  1.00  0.00     0.033 A 
BRANCH  16  22
HETATM   22  O   UNL     1       2.677  34.794  62.671  1.00  0.00    -0.289 OA
BRANCH  22  23
HETATM   23  C   UNL     1       1.724  34.789  61.611  1.00  0.00     0.505 C 
HETATM   24  F   UNL     1       2.008  33.764  60.775  1.00  0.00    -0.184 F 
HETATM   25  F   UNL     1       0.523  34.520  62.178  1.00  0.00    -0.184 F 
ENDBRANCH  22  23
ENDBRANCH  16  22
ENDBRANCH  10  15
BRANCH   8  26
HETATM   26  N   UNL     1       6.558  34.181  67.255  1.00  0.00    -0.272 NA
HETATM   27  H   UNL     1       5.642  34.420  67.631  1.00  0.00     0.127 HD
HETATM   28  H   UNL     1       7.247  34.867  67.535  1.00  0.00     0.127 HD
ENDBRANCH   8  26
TORSDOF 4
ENDMDL
MODEL 8
REMARK VINA RESULT:      -7.4      8.208     10.307
REMARK  4 active torsions:
REMARK  status: ('A' for Active; 'I' for Inactive)
REMARK    1  A    between atoms: C_8  and  N_9 
REMARK    2  A    between atoms: C_11  and  C_12 
REMARK    3  A    between atoms: C_13  and  O_14 
REMARK    4  A    between atoms: O_14  and  C_15 
ROOT
HETATM    1  C   UNL     1       5.446  27.122  51.668  1.00  0.00     0.002 A 
HETATM    2  C   UNL     1       6.314  26.051  51.913  1.00  0.00     0.034 A 
HETATM    3  C   UNL     1       6.718  25.802  53.232  1.00  0.00     0.103 A 
HETATM    4  C   UNL     1       6.250  26.619  54.257  1.00  0.00     0.083 A 
HETATM    5  N   UNL     1       6.859  26.103  55.369  1.00  0.00    -0.151 N 
HETATM    6  C   UNL     1       7.603  25.003  55.024  1.00  0.00     0.734 A 
HETATM    7  N   UNL     1       8.264  24.253  55.933  1.00  0.00    -0.033 NA
HETATM    8  C   UNL     1       8.121  24.520  57.181  1.00  0.00     0.193 C 
HETATM    9  N   UNL     1       7.361  25.579  57.684  1.00  0.00    -0.338 N 
HETATM   10  C   UNL     1       6.756  26.526  56.749  1.00  0.00     0.246 C 
HETATM   11  N   UNL     1       7.546  24.824  53.723  1.00  0.00    -0.060 NA
HETATM   12  C   UNL     1       5.380  27.693  54.038  1.00  0.00     0.033 A 
HETATM   13  C   UNL     1       4.988  27.925  52.715  1.00  0.00     0.002 A 
HETATM   14  H   UNL     1       7.319  25.773  58.671  1.00  0.00     0.164 HD
ENDROOT
BRANCH  10  15
HETATM   15  C   UNL     1       7.374  27.895  57.026  1.00  0.00     0.020 A 
HETATM   16  C   UNL     1       6.533  28.976  57.382  1.00  0.00     0.085 A 
HETATM   17  C   UNL     1       7.077  30.247  57.597  1.00  0.00     0.039 A 
HETATM   18  C   UNL     1       8.455  30.451  57.499  1.00  0.00     0.022 A 
HETATM   19  C   UNL     1       9.293  29.385  57.198  1.00  0.00     0.011 A 
HETATM   20 BR   UNL     1      11.159  29.661  57.082  1.00  0.00    -0.051 Br
HETATM   21  C   UNL     1       8.766  28.115  56.971  1.00  0.00     0.033 A 
BRANCH  16  22
HETATM   22  O   UNL     1       5.205  28.666  57.516  1.00  0.00    -0.289 OA
BRANCH  22  23
HETATM   23  C   UNL     1       4.250  29.601  57.025  1.00  0.00     0.505 C 
HETATM   24  F   UNL     1       3.297  28.931  56.337  1.00  0.00    -0.184 F 
HETATM   25  F   UNL     1       3.649  30.141  58.113  1.00  0.00    -0.184 F 
ENDBRANCH  22  23
ENDBRANCH  16  22
ENDBRANCH  10  15
BRANCH   8  26
HETATM   26  N   UNL     1       8.708  23.798  58.157  1.00  0.00    -0.272 NA
HETATM   27  H   UNL     1       9.689  23.630  57.939  1.00  0.00     0.127 HD
HETATM   28  H   UNL     1       8.248  22.934  58.412  1.00  0.00     0.127 HD
ENDBRANCH   8  26
TORSDOF 4
ENDMDL
MODEL 9
REMARK VINA RESULT:      -7.4      6.732      8.963
REMARK  4 active torsions:
REMARK  status: ('A' for Active; 'I' for Inactive)
REMARK    1  A    between atoms: C_8  and  N_9 
REMARK    2  A    between atoms: C_11  and  C_12 
REMARK    3  A    between atoms: C_13  and  O_14 
REMARK    4  A    between atoms: O_14  and  C_15 
ROOT
HETATM    1  C   UNL     1      10.336  29.821  57.541  1.00  0.00     0.002 A 
HETATM    2  C   UNL     1       9.772  30.952  58.143  1.00  0.00     0.034 A 
HETATM    3  C   UNL     1       8.378  31.021  58.272  1.00  0.00     0.103 A 
HETATM    4  C   UNL     1       7.594  29.972  57.798  1.00  0.00     0.083 A 
HETATM    5  N   UNL     1       6.320  30.391  58.065  1.00  0.00    -0.151 N 
HETATM    6  C   UNL     1       6.352  31.600  58.713  1.00  0.00     0.734 A 
HETATM    7  N   UNL     1       5.238  32.224  59.156  1.00  0.00    -0.033 NA
HETATM    8  C   UNL     1       4.108  31.625  59.052  1.00  0.00     0.193 C 
HETATM    9  N   UNL     1       3.925  30.373  58.456  1.00  0.00    -0.338 N 
HETATM   10  C   UNL     1       5.063  29.720  57.811  1.00  0.00     0.246 C 
HETATM   11  N   UNL     1       7.598  32.007  58.822  1.00  0.00    -0.060 NA
HETATM   12  C   UNL     1       8.134  28.831  57.196  1.00  0.00     0.033 A 
HETATM   13  C   UNL     1       9.527  28.781  57.077  1.00  0.00     0.002 A 
HETATM   14  H   UNL     1       3.009  29.967  58.358  1.00  0.00     0.164 HD
ENDROOT
BRANCH  10  15
HETATM   15  C   UNL     1       4.724  29.580  56.328  1.00  0.00     0.020 A 
HETATM   16  C   UNL     1       4.690  28.292  55.743  1.00  0.00     0.085 A 
HETATM   17  C   UNL     1       4.423  28.148  54.377  1.00  0.00     0.039 A 
HETATM   18  C   UNL     1       4.154  29.269  53.589  1.00  0.00     0.022 A 
HETATM   19  C   UNL     1       4.137  30.533  54.164  1.00  0.00     0.011 A 
HETATM   20 BR   UNL     1       3.754  32.045  53.098  1.00  0.00    -0.051 Br
HETATM   21  C   UNL     1       4.409  30.694  55.521  1.00  0.00     0.033 A 
BRANCH  16  22
HETATM   22  O   UNL     1       4.905  27.251  56.607  1.00  0.00    -0.289 OA
BRANCH  22  23
HETATM   23  C   UNL     1       5.410  26.032  56.070  1.00  0.00     0.505 C 
HETATM   24  F   UNL     1       6.750  26.144  55.923  1.00  0.00    -0.184 F 
HETATM   25  F   UNL     1       5.190  25.081  57.009  1.00  0.00    -0.184 F 
ENDBRANCH  22  23
ENDBRANCH  16  22
ENDBRANCH  10  15
BRANCH   8  26
HETATM   26  N   UNL     1       2.953  32.153  59.505  1.00  0.00    -0.272 NA
HETATM   27  H   UNL     1       2.617  31.638  60.317  1.00  0.00     0.127 HD
HETATM   28  H   UNL     1       2.214  32.262  58.823  1.00  0.00     0.127 HD
ENDBRANCH   8  26
TORSDOF 4
ENDMDL
MODEL 10
REMARK VINA RESULT:      -7.4      3.770      6.245
REMARK  4 active torsions:
REMARK  status: ('A' for Active; 'I' for Inactive)
REMARK    1  A    between atoms: C_8  and  N_9 
REMARK    2  A    between atoms: C_11  and  C_12 
REMARK    3  A    between atoms: C_13  and  O_14 
REMARK    4  A    between atoms: O_14  and  C_15 
ROOT
HETATM    1  C   UNL     1       9.456  31.543  60.237  1.00  0.00     0.002 A 
HETATM    2  C   UNL     1       9.537  31.881  61.593  1.00  0.00     0.034 A 
HETATM    3  C   UNL     1       8.368  32.282  62.256  1.00  0.00     0.103 A 
HETATM    4  C   UNL     1       7.167  32.334  61.555  1.00  0.00     0.083 A 
HETATM    5  N   UNL     1       6.278  32.778  62.495  1.00  0.00    -0.151 N 
HETATM    6  C   UNL     1       6.911  32.927  63.703  1.00  0.00     0.734 A 
HETATM    7  N   UNL     1       6.262  33.294  64.830  1.00  0.00    -0.033 NA
HETATM    8  C   UNL     1       4.985  33.422  64.797  1.00  0.00     0.193 C 
HETATM    9  N   UNL     1       4.200  33.259  63.652  1.00  0.00    -0.338 N 
HETATM   10  C   UNL     1       4.857  33.025  62.367  1.00  0.00     0.246 C 
HETATM   11  N   UNL     1       8.190  32.652  63.565  1.00  0.00    -0.060 NA
HETATM   12  C   UNL     1       7.060  31.998  60.201  1.00  0.00     0.033 A 
HETATM   13  C   UNL     1       8.238  31.601  59.557  1.00  0.00     0.002 A 
HETATM   14  H   UNL     1       3.206  33.417  63.670  1.00  0.00     0.164 HD
ENDROOT
BRANCH  10  15
HETATM   15  C   UNL     1       4.511  34.203  61.459  1.00  0.00     0.020 A 
HETATM   16  C   UNL     1       3.902  33.957  60.206  1.00  0.00     0.085 A 
HETATM   17  C   UNL     1       3.617  35.021  59.343  1.00  0.00     0.039 A 
HETATM   18  C   UNL     1       3.898  36.334  59.725  1.00  0.00     0.022 A 
HETATM   19  C   UNL     1       4.452  36.589  60.973  1.00  0.00     0.011 A 
HETATM   20 BR   UNL     1       4.814  38.369  61.493  1.00  0.00    -0.051 Br
HETATM   21  C   UNL     1       4.750  35.540  61.841  1.00  0.00     0.033 A 
BRANCH  16  22
HETATM   22  O   UNL     1       3.607  32.644  59.946  1.00  0.00    -0.289 OA
BRANCH  22  23
HETATM   23  C   UNL     1       3.572  32.226  58.585  1.00  0.00     0.505 C 
HETATM   24  F   UNL     1       4.824  32.292  58.076  1.00  0.00    -0.184 F 
HETATM   25  F   UNL     1       3.215  30.919  58.596  1.00  0.00    -0.184 F 
ENDBRANCH  22  23
ENDBRANCH  16  22
ENDBRANCH  10  15
BRANCH   8  26
HETATM   26  N   UNL     1       4.252  33.743  65.883  1.00  0.00    -0.272 NA
HETATM   27  H   UNL     1       4.257  34.750  66.034  1.00  0.00     0.127 HD
HETATM   28  H   UNL     1       4.482  33.254  66.738  1.00  0.00     0.127 HD
ENDBRANCH   8  26
TORSDOF 4
ENDMDL
