MODEL 1
REMARK VINA RESULT:     -11.1      0.000      0.000
REMARK  6 active torsions:
REMARK  status: ('A' for Active; 'I' for Inactive)
REMARK    1  A    between atoms: C_4  and  C_5 
REMARK    2  A    between atoms: C_8  and  C_9 
REMARK    3  A    between atoms: C_9  and  N_10 
REMARK       I    between atoms: N_10  and  C_11 
REMARK       I    between atoms: C_11  and  N_12 
REMARK    4  A    between atoms: N_12  and  C_13 
REMARK    5  A    between atoms: C_15  and  C_16 
REMARK    6  A    between atoms: C_30  and  C_31 
ROOT
HETATM    1  C   UNL     1       5.116  31.698  57.714  1.00  0.00     0.068 C 
HETATM    2  C   UNL     1       4.179  30.453  57.789  1.00  0.00     0.001 C 
HETATM    3  C   UNL     1       4.906  29.147  57.390  1.00  0.00     0.040 C 
HETATM    4  C   UNL     1       5.547  29.275  55.998  1.00  0.00     0.206 C 
HETATM    5  N   UNL     1       5.163  30.653  55.464  1.00  0.00    -0.065 N 
HETATM    6  H   UNL     1       5.607  30.740  54.522  1.00  0.00     0.280 HD
HETATM    7  C   UNL     1       5.706  31.794  56.297  1.00  0.00     0.246 C 
HETATM    8  C   UNL     1       3.062  30.666  56.735  1.00  0.00     0.033 C 
HETATM    9  C   UNL     1       3.664  30.768  55.327  1.00  0.00     0.236 C 
ENDROOT
BRANCH   4  10
HETATM   10  C   UNL     1       7.078  29.011  55.994  1.00  0.00     0.157 C 
BRANCH  10  11
HETATM   11  N   UNL     1       7.550  27.957  55.093  1.00  0.00    -0.341 N 
HETATM   12  C   UNL     1       7.474  26.613  55.382  1.00  0.00     0.320 C 
HETATM   13  N   UNL     1       7.853  25.839  54.316  1.00  0.00    -0.309 N 
HETATM   14  O   UNL     1       7.144  26.221  56.495  1.00  0.00    -0.247 OA
HETATM   15  H   UNL     1       8.234  26.323  53.515  1.00  0.00     0.170 HD
HETATM   16  H   UNL     1       7.476  28.177  54.108  1.00  0.00     0.164 HD
BRANCH  13  17
HETATM   17  C   UNL     1       7.872  24.429  54.239  1.00  0.00     0.037 A 
HETATM   18  C   UNL     1       8.058  23.591  55.341  1.00  0.00     0.045 A 
HETATM   19  C   UNL     1       8.069  22.191  55.195  1.00  0.00     0.050 A 
HETATM   20  C   UNL     1       7.892  21.638  53.918  1.00  0.00     0.016 A 
HETATM   21  C   UNL     1       7.698  22.466  52.816  1.00  0.00     0.003 A 
HETATM   22  C   UNL     1       7.686  23.854  52.977  1.00  0.00     0.029 A 
BRANCH  19  23
HETATM   23  C   UNL     1       8.302  21.293  56.385  1.00  0.00     0.417 C 
HETATM   24  F   UNL     1       7.337  20.341  56.537  1.00  0.00    -0.166 F 
HETATM   25  F   UNL     1       9.482  20.620  56.319  1.00  0.00    -0.166 F 
HETATM   26  F   UNL     1       8.325  21.987  57.557  1.00  0.00    -0.166 F 
ENDBRANCH  19  23
ENDBRANCH  13  17
ENDBRANCH  10  11
ENDBRANCH   4  10
BRANCH   1  27
HETATM   27  C   UNL     1       6.221  31.781  58.749  1.00  0.00     0.045 A 
HETATM   28  N   UNL     1       7.492  31.661  58.328  1.00  0.00    -0.238 NA
HETATM   29  C   UNL     1       8.465  31.768  59.253  1.00  0.00     0.123 A 
HETATM   30  C   UNL     1       9.881  31.565  58.814  1.00  0.00     0.093 C 
HETATM   31  N   UNL     1       8.253  32.068  60.540  1.00  0.00    -0.233 NA
HETATM   32  C   UNL     1       6.975  32.223  60.941  1.00  0.00     0.077 A 
HETATM   33  C   UNL     1       5.915  32.068  60.068  1.00  0.00     0.060 A 
BRANCH  32  34
HETATM   34  C   UNL     1       6.838  32.600  62.360  1.00  0.00     0.033 A 
HETATM   35  S   UNL     1       5.304  32.915  63.076  1.00  0.00    -0.100 SA
HETATM   36  C   UNL     1       5.993  33.282  64.594  1.00  0.00     0.050 A 
HETATM   37  C   UNL     1       7.363  33.171  64.577  1.00  0.00     0.008 A 
HETATM   38  C   UNL     1       7.846  32.778  63.297  1.00  0.00     0.021 A 
ENDBRANCH  32  34
ENDBRANCH   1  27
TORSDOF 6
ENDMDL
MODEL 2
REMARK VINA RESULT:     -10.7      5.482     10.613
REMARK  6 active torsions:
REMARK  status: ('A' for Active; 'I' for Inactive)
REMARK    1  A    between atoms: C_4  and  C_5 
REMARK    2  A    between atoms: C_8  and  C_9 
REMARK    3  A    between atoms: C_9  and  N_10 
REMARK       I    between atoms: N_10  and  C_11 
REMARK       I    between atoms: C_11  and  N_12 
REMARK    4  A    between atoms: N_12  and  C_13 
REMARK    5  A    between atoms: C_15  and  C_16 
REMARK    6  A    between atoms: C_30  and  C_31 
ROOT
HETATM    1  C   UNL     1       6.768  25.633  52.182  1.00  0.00     0.068 C 
HETATM    2  C   UNL     1       6.115  24.416  52.907  1.00  0.00     0.001 C 
HETATM    3  C   UNL     1       5.298  24.844  54.150  1.00  0.00     0.040 C 
HETATM    4  C   UNL     1       6.159  25.671  55.119  1.00  0.00     0.206 C 
HETATM    5  N   UNL     1       7.568  25.711  54.529  1.00  0.00    -0.065 N 
HETATM    6  H   UNL     1       8.147  26.279  55.186  1.00  0.00     0.280 HD
HETATM    7  C   UNL     1       7.638  26.406  53.187  1.00  0.00     0.246 C 
HETATM    8  C   UNL     1       7.274  23.531  53.435  1.00  0.00     0.033 C 
HETATM    9  C   UNL     1       8.138  24.317  54.431  1.00  0.00     0.236 C 
ENDROOT
BRANCH   4  10
HETATM   10  C   UNL     1       5.573  27.078  55.424  1.00  0.00     0.157 C 
BRANCH  10  11
HETATM   11  N   UNL     1       6.497  28.048  56.014  1.00  0.00    -0.341 N 
HETATM   12  C   UNL     1       6.168  28.882  57.058  1.00  0.00     0.320 C 
HETATM   13  N   UNL     1       7.253  29.589  57.510  1.00  0.00    -0.309 N 
HETATM   14  O   UNL     1       5.014  28.970  57.460  1.00  0.00    -0.247 OA
HETATM   15  H   UNL     1       8.106  29.504  56.975  1.00  0.00     0.170 HD
HETATM   16  H   UNL     1       7.472  27.775  55.989  1.00  0.00     0.164 HD
BRANCH  13  17
HETATM   17  C   UNL     1       7.296  30.510  58.580  1.00  0.00     0.037 A 
HETATM   18  C   UNL     1       8.211  30.439  59.632  1.00  0.00     0.045 A 
HETATM   19  C   UNL     1       8.199  31.389  60.671  1.00  0.00     0.050 A 
HETATM   20  C   UNL     1       7.246  32.417  60.641  1.00  0.00     0.016 A 
HETATM   21  C   UNL     1       6.335  32.500  59.591  1.00  0.00     0.003 A 
HETATM   22  C   UNL     1       6.362  31.552  58.566  1.00  0.00     0.029 A 
BRANCH  19  23
HETATM   23  C   UNL     1       9.171  31.288  61.821  1.00  0.00     0.417 C 
HETATM   24  F   UNL     1       9.568  30.008  62.077  1.00  0.00    -0.166 F 
HETATM   25  F   UNL     1      10.313  31.998  61.614  1.00  0.00    -0.166 F 
HETATM   26  F   UNL     1       8.641  31.752  62.986  1.00  0.00    -0.166 F 
ENDBRANCH  19  23
ENDBRANCH  13  17
ENDBRANCH  10  11
ENDBRANCH   4  10
BRANCH   1  27
HETATM   27  C   UNL     1       5.829  26.582  51.463  1.00  0.00     0.045 A 
HETATM   28  N   UNL     1       5.879  27.885  51.785  1.00  0.00    -0.238 NA
HETATM   29  C   UNL     1       5.060  28.722  51.118  1.00  0.00     0.123 A 
HETATM   30  C   UNL     1       5.051  30.165  51.514  1.00  0.00     0.093 C 
HETATM   31  N   UNL     1       4.269  28.353  50.104  1.00  0.00    -0.233 NA
HETATM   32  C   UNL     1       4.256  27.048  49.766  1.00  0.00     0.077 A 
HETATM   33  C   UNL     1       5.019  26.114  50.442  1.00  0.00     0.060 A 
BRANCH  32  34
HETATM   34  C   UNL     1       3.395  26.740  48.609  1.00  0.00     0.033 A 
HETATM   35  S   UNL     1       2.002  27.679  48.233  1.00  0.00    -0.100 SA
HETATM   36  C   UNL     1       1.603  26.706  46.890  1.00  0.00     0.050 A 
HETATM   37  C   UNL     1       2.502  25.681  46.713  1.00  0.00     0.008 A 
HETATM   38  C   UNL     1       3.530  25.703  47.698  1.00  0.00     0.021 A 
ENDBRANCH  32  34
ENDBRANCH   1  27
TORSDOF 6
ENDMDL
MODEL 3
REMARK VINA RESULT:     -10.6      4.983     10.133
REMARK  6 active torsions:
REMARK  status: ('A' for Active; 'I' for Inactive)
REMARK    1  A    between atoms: C_4  and  C_5 
REMARK    2  A    between atoms: C_8  and  C_9 
REMARK    3  A    between atoms: C_9  and  N_10 
REMARK       I    between atoms: N_10  and  C_11 
REMARK       I    between atoms: C_11  and  N_12 
REMARK    4  A    between atoms: N_12  and  C_13 
REMARK    5  A    between atoms: C_15  and  C_16 
REMARK    6  A    between atoms: C_30  and  C_31 
ROOT
HETATM    1  C   UNL     1       5.217  26.167  54.679  1.00  0.00     0.068 C 
HETATM    2  C   UNL     1       5.480  26.979  53.373  1.00  0.00     0.001 C 
HETATM    3  C   UNL     1       6.549  28.079  53.571  1.00  0.00     0.040 C 
HETATM    4  C   UNL     1       6.173  29.010  54.736  1.00  0.00     0.206 C 
HETATM    5  N   UNL     1       4.808  28.549  55.243  1.00  0.00    -0.065 N 
HETATM    6  H   UNL     1       4.560  29.178  56.039  1.00  0.00     0.280 HD
HETATM    7  C   UNL     1       4.818  27.141  55.800  1.00  0.00     0.246 C 
HETATM    8  C   UNL     1       4.160  27.714  53.026  1.00  0.00     0.033 C 
HETATM    9  C   UNL     1       3.769  28.677  54.155  1.00  0.00     0.236 C 
ENDROOT
BRANCH   4  10
HETATM   10  C   UNL     1       7.257  29.084  55.847  1.00  0.00     0.157 C 
BRANCH  10  11
HETATM   11  N   UNL     1       7.121  30.178  56.811  1.00  0.00    -0.341 N 
HETATM   12  C   UNL     1       7.560  30.109  58.113  1.00  0.00     0.320 C 
HETATM   13  N   UNL     1       7.440  31.313  58.758  1.00  0.00    -0.309 N 
HETATM   14  O   UNL     1       7.957  29.054  58.594  1.00  0.00    -0.247 OA
HETATM   15  H   UNL     1       6.960  32.050  58.259  1.00  0.00     0.170 HD
HETATM   16  H   UNL     1       7.157  31.106  56.407  1.00  0.00     0.164 HD
BRANCH  13  17
HETATM   17  C   UNL     1       7.816  31.622  60.084  1.00  0.00     0.037 A 
HETATM   18  C   UNL     1       6.916  32.005  61.080  1.00  0.00     0.045 A 
HETATM   19  C   UNL     1       7.358  32.302  62.383  1.00  0.00     0.050 A 
HETATM   20  C   UNL     1       8.726  32.211  62.675  1.00  0.00     0.016 A 
HETATM   21  C   UNL     1       9.629  31.820  61.690  1.00  0.00     0.003 A 
HETATM   22  C   UNL     1       9.176  31.526  60.402  1.00  0.00     0.029 A 
BRANCH  19  23
HETATM   23  C   UNL     1       6.383  32.746  63.446  1.00  0.00     0.417 C 
HETATM   24  F   UNL     1       6.948  32.854  64.682  1.00  0.00    -0.166 F 
HETATM   25  F   UNL     1       5.828  33.960  63.182  1.00  0.00    -0.166 F 
HETATM   26  F   UNL     1       5.345  31.877  63.588  1.00  0.00    -0.166 F 
ENDBRANCH  19  23
ENDBRANCH  13  17
ENDBRANCH  10  11
ENDBRANCH   4  10
BRANCH   1  27
HETATM   27  C   UNL     1       6.333  25.255  55.150  1.00  0.00     0.045 A 
HETATM   28  N   UNL     1       6.924  25.533  56.324  1.00  0.00    -0.238 NA
HETATM   29  C   UNL     1       7.893  24.697  56.745  1.00  0.00     0.123 A 
HETATM   30  C   UNL     1       8.611  25.032  58.015  1.00  0.00     0.093 C 
HETATM   31  N   UNL     1       8.242  23.569  56.116  1.00  0.00    -0.233 NA
HETATM   32  C   UNL     1       7.615  23.282  54.957  1.00  0.00     0.077 A 
HETATM   33  C   UNL     1       6.653  24.120  54.424  1.00  0.00     0.060 A 
BRANCH  32  34
HETATM   34  C   UNL     1       8.026  21.999  54.358  1.00  0.00     0.033 A 
HETATM   35  S   UNL     1       8.701  20.727  55.302  1.00  0.00    -0.100 SA
HETATM   36  C   UNL     1       8.908  19.714  53.944  1.00  0.00     0.050 A 
HETATM   37  C   UNL     1       8.476  20.315  52.785  1.00  0.00     0.008 A 
HETATM   38  C   UNL     1       7.969  21.623  53.024  1.00  0.00     0.021 A 
ENDBRANCH  32  34
ENDBRANCH   1  27
TORSDOF 6
ENDMDL
MODEL 4
REMARK VINA RESULT:     -10.6      4.633      9.569
REMARK  6 active torsions:
REMARK  status: ('A' for Active; 'I' for Inactive)
REMARK    1  A    between atoms: C_4  and  C_5 
REMARK    2  A    between atoms: C_8  and  C_9 
REMARK    3  A    between atoms: C_9  and  N_10 
REMARK       I    between atoms: N_10  and  C_11 
REMARK       I    between atoms: C_11  and  N_12 
REMARK    4  A    between atoms: N_12  and  C_13 
REMARK    5  A    between atoms: C_15  and  C_16 
REMARK    6  A    between atoms: C_30  and  C_31 
ROOT
HETATM    1  C   UNL     1       5.208  26.268  52.630  1.00  0.00     0.068 C 
HETATM    2  C   UNL     1       6.067  27.430  52.043  1.00  0.00     0.001 C 
HETATM    3  C   UNL     1       6.297  28.565  53.069  1.00  0.00     0.040 C 
HETATM    4  C   UNL     1       4.962  29.088  53.623  1.00  0.00     0.206 C 
HETATM    5  N   UNL     1       3.856  28.333  52.888  1.00  0.00    -0.065 N 
HETATM    6  H   UNL     1       2.952  28.685  53.273  1.00  0.00     0.280 HD
HETATM    7  C   UNL     1       3.876  26.841  53.143  1.00  0.00     0.246 C 
HETATM    8  C   UNL     1       5.248  28.054  50.883  1.00  0.00     0.033 C 
HETATM    9  C   UNL     1       3.919  28.615  51.407  1.00  0.00     0.236 C 
ENDROOT
BRANCH   4  10
HETATM   10  C   UNL     1       4.855  28.998  55.171  1.00  0.00     0.157 C 
BRANCH  10  11
HETATM   11  N   UNL     1       6.121  28.958  55.905  1.00  0.00    -0.341 N 
HETATM   12  C   UNL     1       6.526  29.937  56.784  1.00  0.00     0.320 C 
HETATM   13  N   UNL     1       7.679  29.589  57.440  1.00  0.00    -0.309 N 
HETATM   14  O   UNL     1       5.912  30.993  56.886  1.00  0.00    -0.247 OA
HETATM   15  H   UNL     1       8.138  28.742  57.136  1.00  0.00     0.170 HD
HETATM   16  H   UNL     1       6.448  28.028  56.136  1.00  0.00     0.164 HD
BRANCH  13  17
HETATM   17  C   UNL     1       8.364  30.329  58.429  1.00  0.00     0.037 A 
HETATM   18  C   UNL     1       7.998  30.356  59.776  1.00  0.00     0.045 A 
HETATM   19  C   UNL     1       8.723  31.118  60.711  1.00  0.00     0.050 A 
HETATM   20  C   UNL     1       9.829  31.861  60.273  1.00  0.00     0.016 A 
HETATM   21  C   UNL     1      10.206  31.833  58.933  1.00  0.00     0.003 A 
HETATM   22  C   UNL     1       9.478  31.069  58.017  1.00  0.00     0.029 A 
BRANCH  19  23
HETATM   23  C   UNL     1       8.302  31.167  62.160  1.00  0.00     0.417 C 
HETATM   24  F   UNL     1       8.788  30.126  62.896  1.00  0.00    -0.166 F 
HETATM   25  F   UNL     1       8.714  32.297  62.794  1.00  0.00    -0.166 F 
HETATM   26  F   UNL     1       6.949  31.122  62.304  1.00  0.00    -0.166 F 
ENDBRANCH  19  23
ENDBRANCH  13  17
ENDBRANCH  10  11
ENDBRANCH   4  10
BRANCH   1  27
HETATM   27  C   UNL     1       5.858  25.415  53.702  1.00  0.00     0.045 A 
HETATM   28  N   UNL     1       5.683  25.771  54.986  1.00  0.00    -0.238 NA
HETATM   29  C   UNL     1       6.241  24.988  55.929  1.00  0.00     0.123 A 
HETATM   30  C   UNL     1       6.117  25.409  57.360  1.00  0.00     0.093 C 
HETATM   31  N   UNL     1       6.880  23.840  55.675  1.00  0.00    -0.233 NA
HETATM   32  C   UNL     1       7.017  23.475  54.384  1.00  0.00     0.077 A 
HETATM   33  C   UNL     1       6.528  24.255  53.352  1.00  0.00     0.060 A 
BRANCH  32  34
HETATM   34  C   UNL     1       7.689  22.176  54.199  1.00  0.00     0.033 A 
HETATM   35  S   UNL     1       8.037  21.132  55.524  1.00  0.00    -0.100 SA
HETATM   36  C   UNL     1       8.784  19.970  54.523  1.00  0.00     0.050 A 
HETATM   37  C   UNL     1       8.777  20.350  53.201  1.00  0.00     0.008 A 
HETATM   38  C   UNL     1       8.147  21.613  53.017  1.00  0.00     0.021 A 
ENDBRANCH  32  34
ENDBRANCH   1  27
TORSDOF 6
ENDMDL
MODEL 5
REMARK VINA RESULT:     -10.5      5.526      8.969
REMARK  6 active torsions:
REMARK  status: ('A' for Active; 'I' for Inactive)
REMARK    1  A    between atoms: C_4  and  C_5 
REMARK    2  A    between atoms: C_8  and  C_9 
REMARK    3  A    between atoms: C_9  and  N_10 
REMARK       I    between atoms: N_10  and  C_11 
REMARK       I    between atoms: C_11  and  N_12 
REMARK    4  A    between atoms: N_12  and  C_13 
REMARK    5  A    between atoms: C_15  and  C_16 
REMARK    6  A    between atoms: C_30  and  C_31 
ROOT
HETATM    1  C   UNL     1       7.828  27.280  56.085  1.00  0.00     0.068 C 
HETATM    2  C   UNL     1       7.197  27.652  57.463  1.00  0.00     0.001 C 
HETATM    3  C   UNL     1       5.715  28.076  57.332  1.00  0.00     0.040 C 
HETATM    4  C   UNL     1       5.556  29.224  56.322  1.00  0.00     0.206 C 
HETATM    5  N   UNL     1       6.962  29.593  55.853  1.00  0.00    -0.065 N 
HETATM    6  H   UNL     1       6.850  30.368  55.162  1.00  0.00     0.280 HD
HETATM    7  C   UNL     1       7.668  28.470  55.124  1.00  0.00     0.246 C 
HETATM    8  C   UNL     1       7.960  28.896  57.986  1.00  0.00     0.033 C 
HETATM    9  C   UNL     1       7.797  30.073  57.015  1.00  0.00     0.236 C 
ENDROOT
BRANCH   4  10
HETATM   10  C   UNL     1       4.579  28.896  55.159  1.00  0.00     0.157 C 
BRANCH  10  11
HETATM   11  N   UNL     1       5.185  28.714  53.838  1.00  0.00    -0.341 N 
HETATM   12  C   UNL     1       4.461  28.512  52.686  1.00  0.00     0.320 C 
HETATM   13  N   UNL     1       5.261  28.512  51.572  1.00  0.00    -0.309 N 
HETATM   14  O   UNL     1       3.252  28.313  52.722  1.00  0.00    -0.247 OA
HETATM   15  H   UNL     1       6.259  28.548  51.729  1.00  0.00     0.170 HD
HETATM   16  H   UNL     1       6.059  29.207  53.701  1.00  0.00     0.164 HD
BRANCH  13  17
HETATM   17  C   UNL     1       4.862  28.365  50.225  1.00  0.00     0.037 A 
HETATM   18  C   UNL     1       4.080  27.308  49.755  1.00  0.00     0.045 A 
HETATM   19  C   UNL     1       3.720  27.219  48.397  1.00  0.00     0.050 A 
HETATM   20  C   UNL     1       4.160  28.211  47.510  1.00  0.00     0.016 A 
HETATM   21  C   UNL     1       4.933  29.273  47.972  1.00  0.00     0.003 A 
HETATM   22  C   UNL     1       5.280  29.350  49.323  1.00  0.00     0.029 A 
BRANCH  19  23
HETATM   23  C   UNL     1       2.901  26.056  47.891  1.00  0.00     0.417 C 
HETATM   24  F   UNL     1       3.129  24.900  48.577  1.00  0.00    -0.166 F 
HETATM   25  F   UNL     1       1.561  26.277  47.969  1.00  0.00    -0.166 F 
HETATM   26  F   UNL     1       3.164  25.771  46.586  1.00  0.00    -0.166 F 
ENDBRANCH  19  23
ENDBRANCH  13  17
ENDBRANCH  10  11
ENDBRANCH   4  10
BRANCH   1  27
HETATM   27  C   UNL     1       7.331  26.006  55.430  1.00  0.00     0.045 A 
HETATM   28  N   UNL     1       6.425  26.115  54.444  1.00  0.00    -0.238 NA
HETATM   29  C   UNL     1       6.014  24.978  53.850  1.00  0.00     0.123 A 
HETATM   30  C   UNL     1       4.952  25.074  52.800  1.00  0.00     0.093 C 
HETATM   31  N   UNL     1       6.510  23.765  54.118  1.00  0.00    -0.233 NA
HETATM   32  C   UNL     1       7.447  23.674  55.084  1.00  0.00     0.077 A 
HETATM   33  C   UNL     1       7.878  24.785  55.786  1.00  0.00     0.060 A 
BRANCH  32  34
HETATM   34  C   UNL     1       7.973  22.310  55.279  1.00  0.00     0.033 A 
HETATM   35  S   UNL     1       8.087  21.183  53.983  1.00  0.00    -0.100 SA
HETATM   36  C   UNL     1       8.708  19.955  54.992  1.00  0.00     0.050 A 
HETATM   37  C   UNL     1       8.835  20.377  56.295  1.00  0.00     0.008 A 
HETATM   38  C   UNL     1       8.415  21.727  56.457  1.00  0.00     0.021 A 
ENDBRANCH  32  34
ENDBRANCH   1  27
TORSDOF 6
ENDMDL
MODEL 6
REMARK VINA RESULT:     -10.5      1.750      2.548
REMARK  6 active torsions:
REMARK  status: ('A' for Active; 'I' for Inactive)
REMARK    1  A    between atoms: C_4  and  C_5 
REMARK    2  A    between atoms: C_8  and  C_9 
REMARK    3  A    between atoms: C_9  and  N_10 
REMARK       I    between atoms: N_10  and  C_11 
REMARK       I    between atoms: C_11  and  N_12 
REMARK    4  A    between atoms: N_12  and  C_13 
REMARK    5  A    between atoms: C_15  and  C_16 
REMARK    6  A    between atoms: C_30  and  C_31 
ROOT
HETATM    1  C   UNL     1       4.184  32.302  56.553  1.00  0.00     0.068 C 
HETATM    2  C   UNL     1       2.932  31.437  56.210  1.00  0.00     0.001 C 
HETATM    3  C   UNL     1       3.112  29.957  56.623  1.00  0.00     0.040 C 
HETATM    4  C   UNL     1       4.385  29.360  56.001  1.00  0.00     0.206 C 
HETATM    5  N   UNL     1       4.991  30.448  55.115  1.00  0.00    -0.065 N 
HETATM    6  H   UNL     1       5.859  30.042  54.701  1.00  0.00     0.280 HD
HETATM    7  C   UNL     1       5.421  31.679  55.884  1.00  0.00     0.246 C 
HETATM    8  C   UNL     1       2.790  31.442  54.667  1.00  0.00     0.033 C 
HETATM    9  C   UNL     1       4.033  30.824  54.012  1.00  0.00     0.236 C 
ENDROOT
BRANCH   4  10
HETATM   10  C   UNL     1       5.379  28.787  57.049  1.00  0.00     0.157 C 
BRANCH  10  11
HETATM   11  N   UNL     1       6.458  27.948  56.525  1.00  0.00    -0.341 N 
HETATM   12  C   UNL     1       6.311  26.616  56.214  1.00  0.00     0.320 C 
HETATM   13  N   UNL     1       7.431  26.104  55.612  1.00  0.00    -0.309 N 
HETATM   14  O   UNL     1       5.291  26.004  56.510  1.00  0.00    -0.247 OA
HETATM   15  H   UNL     1       8.241  26.708  55.569  1.00  0.00     0.170 HD
HETATM   16  H   UNL     1       7.135  28.438  55.953  1.00  0.00     0.164 HD
BRANCH  13  17
HETATM   17  C   UNL     1       7.627  24.790  55.132  1.00  0.00     0.037 A 
HETATM   18  C   UNL     1       7.805  23.677  55.957  1.00  0.00     0.045 A 
HETATM   19  C   UNL     1       7.998  22.394  55.413  1.00  0.00     0.050 A 
HETATM   20  C   UNL     1       8.013  22.240  54.020  1.00  0.00     0.016 A 
HETATM   21  C   UNL     1       7.828  23.343  53.190  1.00  0.00     0.003 A 
HETATM   22  C   UNL     1       7.634  24.610  53.744  1.00  0.00     0.029 A 
BRANCH  19  23
HETATM   23  C   UNL     1       8.221  21.201  56.311  1.00  0.00     0.417 C 
HETATM   24  F   UNL     1       7.216  20.282  56.243  1.00  0.00    -0.166 F 
HETATM   25  F   UNL     1       9.365  20.525  56.021  1.00  0.00    -0.166 F 
HETATM   26  F   UNL     1       8.311  21.555  57.623  1.00  0.00    -0.166 F 
ENDBRANCH  19  23
ENDBRANCH  13  17
ENDBRANCH  10  11
ENDBRANCH   4  10
BRANCH   1  27
HETATM   27  C   UNL     1       4.455  32.555  58.024  1.00  0.00     0.045 A 
HETATM   28  N   UNL     1       3.441  32.996  58.787  1.00  0.00    -0.238 NA
HETATM   29  C   UNL     1       3.687  33.187  60.097  1.00  0.00     0.123 A 
HETATM   30  C   UNL     1       2.589  33.747  60.947  1.00  0.00     0.093 C 
HETATM   31  N   UNL     1       4.843  32.887  60.699  1.00  0.00    -0.233 NA
HETATM   32  C   UNL     1       5.842  32.409  59.928  1.00  0.00     0.077 A 
HETATM   33  C   UNL     1       5.691  32.243  58.564  1.00  0.00     0.060 A 
BRANCH  32  34
HETATM   34  C   UNL     1       7.060  32.059  60.681  1.00  0.00     0.033 A 
HETATM   35  S   UNL     1       8.212  30.930  60.078  1.00  0.00    -0.100 SA
HETATM   36  C   UNL     1       9.201  31.071  61.462  1.00  0.00     0.050 A 
HETATM   37  C   UNL     1       8.682  31.956  62.376  1.00  0.00     0.008 A 
HETATM   38  C   UNL     1       7.456  32.524  61.927  1.00  0.00     0.021 A 
ENDBRANCH  32  34
ENDBRANCH   1  27
TORSDOF 6
ENDMDL
MODEL 7
REMARK VINA RESULT:     -10.0      4.541      9.438
REMARK  6 active torsions:
REMARK  status: ('A' for Active; 'I' for Inactive)
REMARK    1  A    between atoms: C_4  and  C_5 
REMARK    2  A    between atoms: C_8  and  C_9 
REMARK    3  A    between atoms: C_9  and  N_10 
REMARK       I    between atoms: N_10  and  C_11 
REMARK       I    between atoms: C_11  and  N_12 
REMARK    4  A    between atoms: N_12  and  C_13 
REMARK    5  A    between atoms: C_15  and  C_16 
REMARK    6  A    between atoms: C_30  and  C_31 
ROOT
HETATM    1  C   UNL     1       6.755  25.667  52.208  1.00  0.00     0.068 C 
HETATM    2  C   UNL     1       6.107  24.418  52.883  1.00  0.00     0.001 C 
HETATM    3  C   UNL     1       5.289  24.791  54.141  1.00  0.00     0.040 C 
HETATM    4  C   UNL     1       6.147  25.580  55.144  1.00  0.00     0.206 C 
HETATM    5  N   UNL     1       7.555  25.649  54.557  1.00  0.00    -0.065 N 
HETATM    6  H   UNL     1       8.132  26.193  55.236  1.00  0.00     0.280 HD
HETATM    7  C   UNL     1       7.622  26.401  53.244  1.00  0.00     0.246 C 
HETATM    8  C   UNL     1       7.269  23.517  53.373  1.00  0.00     0.033 C 
HETATM    9  C   UNL     1       8.131  24.263  54.400  1.00  0.00     0.236 C 
ENDROOT
BRANCH   4  10
HETATM   10  C   UNL     1       5.555  26.970  55.508  1.00  0.00     0.157 C 
BRANCH  10  11
HETATM   11  N   UNL     1       6.489  27.938  56.087  1.00  0.00    -0.341 N 
HETATM   12  C   UNL     1       6.156  28.816  57.093  1.00  0.00     0.320 C 
HETATM   13  N   UNL     1       7.246  29.512  57.547  1.00  0.00    -0.309 N 
HETATM   14  O   UNL     1       4.994  28.946  57.462  1.00  0.00    -0.247 OA
HETATM   15  H   UNL     1       8.110  29.387  57.037  1.00  0.00     0.170 HD
HETATM   16  H   UNL     1       7.457  27.640  56.096  1.00  0.00     0.164 HD
BRANCH  13  17
HETATM   17  C   UNL     1       7.287  30.468  58.586  1.00  0.00     0.037 A 
HETATM   18  C   UNL     1       8.218  30.450  59.626  1.00  0.00     0.045 A 
HETATM   19  C   UNL     1       8.201  31.433  60.633  1.00  0.00     0.050 A 
HETATM   20  C   UNL     1       7.229  32.442  60.583  1.00  0.00     0.016 A 
HETATM   21  C   UNL     1       6.303  32.473  59.544  1.00  0.00     0.003 A 
HETATM   22  C   UNL     1       6.333  31.492  58.550  1.00  0.00     0.029 A 
BRANCH  19  23
HETATM   23  C   UNL     1       9.191  31.388  61.771  1.00  0.00     0.417 C 
HETATM   24  F   UNL     1       9.542  30.119  62.128  1.00  0.00    -0.166 F 
HETATM   25  F   UNL     1      10.356  32.031  61.487  1.00  0.00    -0.166 F 
HETATM   26  F   UNL     1       8.702  31.969  62.902  1.00  0.00    -0.166 F 
ENDBRANCH  19  23
ENDBRANCH  13  17
ENDBRANCH  10  11
ENDBRANCH   4  10
BRANCH   1  27
HETATM   27  C   UNL     1       5.812  26.640  51.530  1.00  0.00     0.045 A 
HETATM   28  N   UNL     1       5.213  26.252  50.391  1.00  0.00    -0.238 NA
HETATM   29  C   UNL     1       4.354  27.114  49.815  1.00  0.00     0.123 A 
HETATM   30  C   UNL     1       3.734  26.727  48.509  1.00  0.00     0.093 C 
HETATM   31  N   UNL     1       3.996  28.290  50.346  1.00  0.00    -0.233 NA
HETATM   32  C   UNL     1       4.576  28.651  51.508  1.00  0.00     0.077 A 
HETATM   33  C   UNL     1       5.515  27.851  52.132  1.00  0.00     0.060 A 
BRANCH  32  34
HETATM   34  C   UNL     1       4.087  29.935  52.044  1.00  0.00     0.033 A 
HETATM   35  S   UNL     1       3.795  30.170  53.725  1.00  0.00    -0.100 SA
HETATM   36  C   UNL     1       3.263  31.775  53.495  1.00  0.00     0.050 A 
HETATM   37  C   UNL     1       3.301  32.144  52.171  1.00  0.00     0.008 A 
HETATM   38  C   UNL     1       3.775  31.089  51.341  1.00  0.00     0.021 A 
ENDBRANCH  32  34
ENDBRANCH   1  27
TORSDOF 6
ENDMDL
MODEL 8
REMARK VINA RESULT:      -9.8      5.584     10.178
REMARK  6 active torsions:
REMARK  status: ('A' for Active; 'I' for Inactive)
REMARK    1  A    between atoms: C_4  and  C_5 
REMARK    2  A    between atoms: C_8  and  C_9 
REMARK    3  A    between atoms: C_9  and  N_10 
REMARK       I    between atoms: N_10  and  C_11 
REMARK       I    between atoms: C_11  and  N_12 
REMARK    4  A    between atoms: N_12  and  C_13 
REMARK    5  A    between atoms: C_15  and  C_16 
REMARK    6  A    between atoms: C_30  and  C_31 
ROOT
HETATM    1  C   UNL     1       6.425  26.167  51.995  1.00  0.00     0.068 C 
HETATM    2  C   UNL     1       5.875  24.760  52.384  1.00  0.00     0.001 C 
HETATM    3  C   UNL     1       5.164  24.768  53.758  1.00  0.00     0.040 C 
HETATM    4  C   UNL     1       6.087  25.324  54.854  1.00  0.00     0.206 C 
HETATM    5  N   UNL     1       7.434  25.606  54.191  1.00  0.00    -0.065 N 
HETATM    6  H   UNL     1       8.056  25.991  54.936  1.00  0.00     0.280 HD
HETATM    7  C   UNL     1       7.363  26.662  53.109  1.00  0.00     0.246 C 
HETATM    8  C   UNL     1       7.100  23.822  52.536  1.00  0.00     0.033 C 
HETATM    9  C   UNL     1       8.031  24.332  53.645  1.00  0.00     0.236 C 
ENDROOT
BRANCH   4  10
HETATM   10  C   UNL     1       5.494  26.551  55.602  1.00  0.00     0.157 C 
BRANCH  10  11
HETATM   11  N   UNL     1       6.247  27.024  56.765  1.00  0.00    -0.341 N 
HETATM   12  C   UNL     1       7.112  28.093  56.733  1.00  0.00     0.320 C 
HETATM   13  N   UNL     1       7.577  28.413  57.983  1.00  0.00    -0.309 N 
HETATM   14  O   UNL     1       7.427  28.623  55.674  1.00  0.00    -0.247 OA
HETATM   15  H   UNL     1       7.328  27.785  58.735  1.00  0.00     0.170 HD
HETATM   16  H   UNL     1       5.781  26.891  57.655  1.00  0.00     0.164 HD
BRANCH  13  17
HETATM   17  C   UNL     1       8.452  29.465  58.334  1.00  0.00     0.037 A 
HETATM   18  C   UNL     1       8.380  30.170  59.537  1.00  0.00     0.045 A 
HETATM   19  C   UNL     1       9.283  31.211  59.824  1.00  0.00     0.050 A 
HETATM   20  C   UNL     1      10.265  31.540  58.879  1.00  0.00     0.016 A 
HETATM   21  C   UNL     1      10.349  30.836  57.680  1.00  0.00     0.003 A 
HETATM   22  C   UNL     1       9.449  29.803  57.411  1.00  0.00     0.029 A 
BRANCH  19  23
HETATM   23  C   UNL     1       9.179  31.989  61.113  1.00  0.00     0.417 C 
HETATM   24  F   UNL     1       8.486  33.156  60.981  1.00  0.00    -0.166 F 
HETATM   25  F   UNL     1       8.555  31.295  62.102  1.00  0.00    -0.166 F 
HETATM   26  F   UNL     1      10.400  32.338  61.604  1.00  0.00    -0.166 F 
ENDBRANCH  19  23
ENDBRANCH  13  17
ENDBRANCH  10  11
ENDBRANCH   4  10
BRANCH   1  27
HETATM   27  C   UNL     1       5.398  27.231  51.662  1.00  0.00     0.045 A 
HETATM   28  N   UNL     1       5.268  28.269  52.505  1.00  0.00    -0.238 NA
HETATM   29  C   UNL     1       4.374  29.224  52.181  1.00  0.00     0.123 A 
HETATM   30  C   UNL     1       4.164  30.350  53.145  1.00  0.00     0.093 C 
HETATM   31  N   UNL     1       3.675  29.247  51.041  1.00  0.00    -0.233 NA
HETATM   32  C   UNL     1       3.843  28.218  50.186  1.00  0.00     0.077 A 
HETATM   33  C   UNL     1       4.694  27.167  50.471  1.00  0.00     0.060 A 
BRANCH  32  34
HETATM   34  C   UNL     1       3.072  28.350  48.936  1.00  0.00     0.033 A 
HETATM   35  S   UNL     1       3.346  29.639  47.827  1.00  0.00    -0.100 SA
HETATM   36  C   UNL     1       2.118  29.104  46.770  1.00  0.00     0.050 A 
HETATM   37  C   UNL     1       1.501  27.966  47.233  1.00  0.00     0.008 A 
HETATM   38  C   UNL     1       2.050  27.534  48.473  1.00  0.00     0.021 A 
ENDBRANCH  32  34
ENDBRANCH   1  27
TORSDOF 6
ENDMDL
MODEL 9
REMARK VINA RESULT:      -9.8      2.308      3.295
REMARK  6 active torsions:
REMARK  status: ('A' for Active; 'I' for Inactive)
REMARK    1  A    between atoms: C_4  and  C_5 
REMARK    2  A    between atoms: C_8  and  C_9 
REMARK    3  A    between atoms: C_9  and  N_10 
REMARK       I    between atoms: N_10  and  C_11 
REMARK       I    between atoms: C_11  and  N_12 
REMARK    4  A    between atoms: N_12  and  C_13 
REMARK    5  A    between atoms: C_15  and  C_16 
REMARK    6  A    between atoms: C_30  and  C_31 
ROOT
HETATM    1  C   UNL     1       4.133  33.007  56.518  1.00  0.00     0.068 C 
HETATM    2  C   UNL     1       2.813  32.365  55.991  1.00  0.00     0.001 C 
HETATM    3  C   UNL     1       2.704  30.866  56.356  1.00  0.00     0.040 C 
HETATM    4  C   UNL     1       3.934  30.086  55.863  1.00  0.00     0.206 C 
HETATM    5  N   UNL     1       4.810  31.083  55.106  1.00  0.00    -0.065 N 
HETATM    6  H   UNL     1       5.648  30.552  54.780  1.00  0.00     0.280 HD
HETATM    7  C   UNL     1       5.329  32.208  55.974  1.00  0.00     0.246 C 
HETATM    8  C   UNL     1       2.867  32.431  54.443  1.00  0.00     0.033 C 
HETATM    9  C   UNL     1       4.068  31.637  53.913  1.00  0.00     0.236 C 
ENDROOT
BRANCH   4  10
HETATM   10  C   UNL     1       4.686  29.334  56.996  1.00  0.00     0.157 C 
BRANCH  10  11
HETATM   11  N   UNL     1       4.797  27.881  56.844  1.00  0.00    -0.341 N 
HETATM   12  C   UNL     1       5.957  27.237  56.478  1.00  0.00     0.320 C 
HETATM   13  N   UNL     1       5.828  25.874  56.546  1.00  0.00    -0.309 N 
HETATM   14  O   UNL     1       6.940  27.864  56.100  1.00  0.00    -0.247 OA
HETATM   15  H   UNL     1       4.903  25.514  56.740  1.00  0.00     0.170 HD
HETATM   16  H   UNL     1       4.197  27.344  57.456  1.00  0.00     0.164 HD
BRANCH  13  17
HETATM   17  C   UNL     1       6.814  24.900  56.274  1.00  0.00     0.037 A 
HETATM   18  C   UNL     1       6.889  24.178  55.081  1.00  0.00     0.045 A 
HETATM   19  C   UNL     1       7.898  23.219  54.875  1.00  0.00     0.050 A 
HETATM   20  C   UNL     1       8.837  22.989  55.891  1.00  0.00     0.016 A 
HETATM   21  C   UNL     1       8.775  23.711  57.080  1.00  0.00     0.003 A 
HETATM   22  C   UNL     1       7.770  24.663  57.269  1.00  0.00     0.029 A 
BRANCH  19  23
HETATM   23  C   UNL     1       7.953  22.420  53.596  1.00  0.00     0.417 C 
HETATM   24  F   UNL     1       9.225  22.181  53.166  1.00  0.00    -0.166 F 
HETATM   25  F   UNL     1       7.361  21.201  53.706  1.00  0.00    -0.166 F 
HETATM   26  F   UNL     1       7.328  23.055  52.566  1.00  0.00    -0.166 F 
ENDBRANCH  19  23
ENDBRANCH  13  17
ENDBRANCH  10  11
ENDBRANCH   4  10
BRANCH   1  27
HETATM   27  C   UNL     1       4.255  33.176  58.020  1.00  0.00     0.045 A 
HETATM   28  N   UNL     1       3.177  33.604  58.698  1.00  0.00    -0.238 NA
HETATM   29  C   UNL     1       3.289  33.720  60.035  1.00  0.00     0.123 A 
HETATM   30  C   UNL     1       2.121  34.264  60.797  1.00  0.00     0.093 C 
HETATM   31  N   UNL     1       4.370  33.359  60.735  1.00  0.00    -0.233 NA
HETATM   32  C   UNL     1       5.433  32.896  60.046  1.00  0.00     0.077 A 
HETATM   33  C   UNL     1       5.422  32.804  58.667  1.00  0.00     0.060 A 
BRANCH  32  34
HETATM   34  C   UNL     1       6.560  32.475  60.899  1.00  0.00     0.033 A 
HETATM   35  S   UNL     1       6.328  31.951  62.523  1.00  0.00    -0.100 SA
HETATM   36  C   UNL     1       7.999  31.707  62.773  1.00  0.00     0.050 A 
HETATM   37  C   UNL     1       8.735  32.012  61.652  1.00  0.00     0.008 A 
HETATM   38  C   UNL     1       7.909  32.450  60.579  1.00  0.00     0.021 A 
ENDBRANCH  32  34
ENDBRANCH   1  27
TORSDOF 6
ENDMDL
MODEL 10
REMARK VINA RESULT:      -9.7      4.815      7.254
REMARK  6 active torsions:
REMARK  status: ('A' for Active; 'I' for Inactive)
REMARK    1  A    between atoms: C_4  and  C_5 
REMARK    2  A    between atoms: C_8  and  C_9 
REMARK    3  A    between atoms: C_9  and  N_10 
REMARK       I    between atoms: N_10  and  C_11 
REMARK       I    between atoms: C_11  and  N_12 
REMARK    4  A    between atoms: N_12  and  C_13 
REMARK    5  A    between atoms: C_15  and  C_16 
REMARK    6  A    between atoms: C_30  and  C_31 
ROOT
HETATM    1  C   UNL     1       4.604  30.447  49.190  1.00  0.00     0.068 C 
HETATM    2  C   UNL     1       3.625  29.762  48.188  1.00  0.00     0.001 C 
HETATM    3  C   UNL     1       3.154  28.374  48.685  1.00  0.00     0.040 C 
HETATM    4  C   UNL     1       4.353  27.464  48.999  1.00  0.00     0.206 C 
HETATM    5  N   UNL     1       5.609  28.250  48.627  1.00  0.00    -0.065 N 
HETATM    6  H   UNL     1       6.421  27.632  48.850  1.00  0.00     0.280 HD
HETATM    7  C   UNL     1       5.795  29.509  49.447  1.00  0.00     0.246 C 
HETATM    8  C   UNL     1       4.422  29.507  46.883  1.00  0.00     0.033 C 
HETATM    9  C   UNL     1       5.612  28.575  47.154  1.00  0.00     0.236 C 
ENDROOT
BRANCH   4  10
HETATM   10  C   UNL     1       4.362  26.932  50.459  1.00  0.00     0.157 C 
BRANCH  10  11
HETATM   11  N   UNL     1       5.649  26.446  50.962  1.00  0.00    -0.341 N 
HETATM   12  C   UNL     1       5.776  25.545  51.994  1.00  0.00     0.320 C 
HETATM   13  N   UNL     1       7.077  25.152  52.172  1.00  0.00    -0.309 N 
HETATM   14  O   UNL     1       4.808  25.210  52.667  1.00  0.00    -0.247 OA
HETATM   15  H   UNL     1       7.777  25.632  51.623  1.00  0.00     0.170 HD
HETATM   16  H   UNL     1       6.382  26.389  50.266  1.00  0.00     0.164 HD
BRANCH  13  17
HETATM   17  C   UNL     1       7.575  24.221  53.111  1.00  0.00     0.037 A 
HETATM   18  C   UNL     1       7.727  22.858  52.852  1.00  0.00     0.045 A 
HETATM   19  C   UNL     1       8.228  21.983  53.834  1.00  0.00     0.050 A 
HETATM   20  C   UNL     1       8.575  22.498  55.091  1.00  0.00     0.016 A 
HETATM   21  C   UNL     1       8.436  23.858  55.355  1.00  0.00     0.003 A 
HETATM   22  C   UNL     1       7.941  24.715  54.369  1.00  0.00     0.029 A 
BRANCH  19  23
HETATM   23  C   UNL     1       8.358  20.505  53.557  1.00  0.00     0.417 C 
HETATM   24  F   UNL     1       8.475  19.754  54.690  1.00  0.00    -0.166 F 
HETATM   25  F   UNL     1       7.293  19.997  52.881  1.00  0.00    -0.166 F 
HETATM   26  F   UNL     1       9.458  20.217  52.807  1.00  0.00    -0.166 F 
ENDBRANCH  19  23
ENDBRANCH  13  17
ENDBRANCH  10  11
ENDBRANCH   4  10
BRANCH   1  27
HETATM   27  C   UNL     1       4.013  30.916  50.506  1.00  0.00     0.045 A 
HETATM   28  N   UNL     1       3.118  31.917  50.475  1.00  0.00    -0.238 NA
HETATM   29  C   UNL     1       2.578  32.303  51.647  1.00  0.00     0.123 A 
HETATM   30  C   UNL     1       1.633  33.464  51.641  1.00  0.00     0.093 C 
HETATM   31  N   UNL     1       2.810  31.702  52.820  1.00  0.00    -0.233 NA
HETATM   32  C   UNL     1       3.683  30.674  52.830  1.00  0.00     0.077 A 
HETATM   33  C   UNL     1       4.328  30.256  51.681  1.00  0.00     0.060 A 
BRANCH  32  34
HETATM   34  C   UNL     1       3.841  30.040  54.152  1.00  0.00     0.033 A 
HETATM   35  S   UNL     1       4.364  28.408  54.325  1.00  0.00    -0.100 SA
HETATM   36  C   UNL     1       4.250  28.462  56.026  1.00  0.00     0.050 A 
HETATM   37  C   UNL     1       3.825  29.691  56.474  1.00  0.00     0.008 A 
HETATM   38  C   UNL     1       3.593  30.595  55.399  1.00  0.00     0.021 A 
ENDBRANCH  32  34
ENDBRANCH   1  27
TORSDOF 6
ENDMDL
