MODEL 1
REMARK VINA RESULT:      -9.3      0.000      0.000
REMARK  2 active torsions:
REMARK  status: ('A' for Active; 'I' for Inactive)
REMARK    1  A    between atoms: C_9  and  O_10 
REMARK    2  A    between atoms: C_9  and  C_11 
ROOT
HETATM    1  C   UNL     1      11.324  29.845  57.208  1.00  0.00     0.048 C 
HETATM    2  C   UNL     1       9.840  29.653  57.336  1.00  0.00    -0.061 A 
HETATM    3  C   UNL     1       9.128  28.936  56.363  1.00  0.00     0.020 A 
HETATM    4  C   UNL     1       7.760  28.769  56.529  1.00  0.00     0.018 A 
HETATM    5  C   UNL     1       7.112  29.322  57.634  1.00  0.00     0.045 A 
HETATM    6  N   UNL     1       5.752  29.059  57.582  1.00  0.00    -0.323 N 
HETATM    7  C   UNL     1       5.418  28.312  56.450  1.00  0.00     0.266 A 
HETATM    8  O   UNL     1       4.279  27.972  56.169  1.00  0.00    -0.269 OA
HETATM    9  C   UNL     1       6.745  28.077  55.640  1.00  0.00     0.199 A 
HETATM   10  C   UNL     1       7.782  30.032  58.607  1.00  0.00     0.031 A 
HETATM   11  C   UNL     1       9.161  30.193  58.452  1.00  0.00     0.009 A 
HETATM   12  H   UNL     1       5.065  29.350  58.260  1.00  0.00     0.169 HD
ENDROOT
BRANCH   9  13
HETATM   13  O   UNL     1       6.682  28.744  54.383  1.00  0.00    -0.371 OA
HETATM   14  H   UNL     1       6.900  28.081  53.709  1.00  0.00     0.212 HD
ENDBRANCH   9  13
BRANCH   9  15
HETATM   15  C   UNL     1       7.171  26.625  55.553  1.00  0.00     0.025 A 
HETATM   16  C   UNL     1       7.343  25.869  54.330  1.00  0.00     0.003 A 
HETATM   17  C   UNL     1       7.771  24.588  54.674  1.00  0.00     0.043 A 
HETATM   18  C   UNL     1       7.189  26.159  52.956  1.00  0.00     0.014 A 
HETATM   19  C   UNL     1       8.050  23.592  53.729  1.00  0.00     0.030 A 
HETATM   20  N   UNL     1       7.842  24.543  56.041  1.00  0.00    -0.359 N 
HETATM   21  C   UNL     1       7.889  23.912  52.379  1.00  0.00     0.002 A 
HETATM   22  C   UNL     1       7.464  25.179  51.995  1.00  0.00     0.001 A 
HETATM   23  H   UNL     1       8.119  23.725  56.565  1.00  0.00     0.166 HD
HETATM   24  C   UNL     1       7.508  25.754  56.591  1.00  0.00     0.016 A 
HETATM   25  C   UNL     1       7.555  25.937  58.068  1.00  0.00     0.069 C 
ENDBRANCH   9  15
TORSDOF 2
ENDMDL
MODEL 2
REMARK VINA RESULT:      -8.8      2.501      3.822
REMARK  2 active torsions:
REMARK  status: ('A' for Active; 'I' for Inactive)
REMARK    1  A    between atoms: C_9  and  O_10 
REMARK    2  A    between atoms: C_9  and  C_11 
ROOT
HETATM    1  C   UNL     1       8.499  29.101  55.990  1.00  0.00     0.048 C 
HETATM    2  C   UNL     1       7.383  28.389  55.282  1.00  0.00    -0.061 A 
HETATM    3  C   UNL     1       7.598  27.131  54.698  1.00  0.00     0.020 A 
HETATM    4  C   UNL     1       6.534  26.501  54.067  1.00  0.00     0.018 A 
HETATM    5  C   UNL     1       5.287  27.121  54.002  1.00  0.00     0.045 A 
HETATM    6  N   UNL     1       4.386  26.330  53.304  1.00  0.00    -0.323 N 
HETATM    7  C   UNL     1       4.977  25.140  52.873  1.00  0.00     0.266 A 
HETATM    8  O   UNL     1       4.395  24.288  52.220  1.00  0.00    -0.269 OA
HETATM    9  C   UNL     1       6.480  25.173  53.335  1.00  0.00     0.199 A 
HETATM   10  C   UNL     1       5.042  28.355  54.565  1.00  0.00     0.031 A 
HETATM   11  C   UNL     1       6.105  28.989  55.212  1.00  0.00     0.009 A 
HETATM   12  H   UNL     1       3.421  26.553  53.119  1.00  0.00     0.169 HD
ENDROOT
BRANCH   9  13
HETATM   13  O   UNL     1       7.344  25.218  52.205  1.00  0.00    -0.371 OA
HETATM   14  H   UNL     1       8.248  25.123  52.546  1.00  0.00     0.212 HD
ENDBRANCH   9  13
BRANCH   9  15
HETATM   15  C   UNL     1       6.840  24.109  54.352  1.00  0.00     0.025 A 
HETATM   16  C   UNL     1       7.467  22.838  54.056  1.00  0.00     0.003 A 
HETATM   17  C   UNL     1       7.659  22.163  55.260  1.00  0.00     0.043 A 
HETATM   18  C   UNL     1       7.904  22.201  52.872  1.00  0.00     0.014 A 
HETATM   19  C   UNL     1       8.259  20.900  55.344  1.00  0.00     0.030 A 
HETATM   20  N   UNL     1       7.160  22.964  56.252  1.00  0.00    -0.359 N 
HETATM   21  C   UNL     1       8.682  20.299  54.157  1.00  0.00     0.002 A 
HETATM   22  C   UNL     1       8.508  20.939  52.935  1.00  0.00     0.001 A 
HETATM   23  H   UNL     1       7.162  22.716  57.232  1.00  0.00     0.166 HD
HETATM   24  C   UNL     1       6.682  24.143  55.740  1.00  0.00     0.016 A 
HETATM   25  C   UNL     1       6.126  25.178  56.653  1.00  0.00     0.069 C 
ENDBRANCH   9  15
TORSDOF 2
ENDMDL
MODEL 3
REMARK VINA RESULT:      -8.5      1.907      5.646
REMARK  2 active torsions:
REMARK  status: ('A' for Active; 'I' for Inactive)
REMARK    1  A    between atoms: C_9  and  O_10 
REMARK    2  A    between atoms: C_9  and  C_11 
ROOT
HETATM    1  C   UNL     1       7.837  21.116  55.611  1.00  0.00     0.048 C 
HETATM    2  C   UNL     1       7.681  22.274  54.668  1.00  0.00    -0.061 A 
HETATM    3  C   UNL     1       6.864  23.363  55.006  1.00  0.00     0.020 A 
HETATM    4  C   UNL     1       6.760  24.419  54.112  1.00  0.00     0.018 A 
HETATM    5  C   UNL     1       7.443  24.381  52.896  1.00  0.00     0.045 A 
HETATM    6  N   UNL     1       7.173  25.520  52.152  1.00  0.00    -0.323 N 
HETATM    7  C   UNL     1       6.305  26.380  52.829  1.00  0.00     0.266 A 
HETATM    8  O   UNL     1       5.902  27.438  52.372  1.00  0.00    -0.269 OA
HETATM    9  C   UNL     1       5.942  25.693  54.196  1.00  0.00     0.199 A 
HETATM   10  C   UNL     1       8.253  23.328  52.533  1.00  0.00     0.031 A 
HETATM   11  C   UNL     1       8.371  22.267  53.435  1.00  0.00     0.009 A 
HETATM   12  H   UNL     1       7.542  25.732  51.238  1.00  0.00     0.169 HD
ENDROOT
BRANCH   9  13
HETATM   13  O   UNL     1       4.557  25.367  54.232  1.00  0.00    -0.371 OA
HETATM   14  H   UNL     1       4.258  25.537  55.140  1.00  0.00     0.212 HD
ENDBRANCH   9  13
BRANCH   9  15
HETATM   15  C   UNL     1       6.437  26.441  55.417  1.00  0.00     0.025 A 
HETATM   16  C   UNL     1       7.479  27.447  55.425  1.00  0.00     0.003 A 
HETATM   17  C   UNL     1       7.615  27.913  56.731  1.00  0.00     0.043 A 
HETATM   18  C   UNL     1       8.313  28.016  54.437  1.00  0.00     0.014 A 
HETATM   19  C   UNL     1       8.530  28.909  57.099  1.00  0.00     0.030 A 
HETATM   20  N   UNL     1       6.718  27.221  57.500  1.00  0.00    -0.359 N 
HETATM   21  C   UNL     1       9.338  29.453  56.098  1.00  0.00     0.002 A 
HETATM   22  C   UNL     1       9.233  29.014  54.783  1.00  0.00     0.001 A 
HETATM   23  H   UNL     1       6.607  27.354  58.496  1.00  0.00     0.166 HD
HETATM   24  C   UNL     1       5.986  26.348  56.736  1.00  0.00     0.016 A 
HETATM   25  C   UNL     1       4.924  25.518  57.369  1.00  0.00     0.069 C 
ENDBRANCH   9  15
TORSDOF 2
ENDMDL
MODEL 4
REMARK VINA RESULT:      -8.5      1.121      2.440
REMARK  2 active torsions:
REMARK  status: ('A' for Active; 'I' for Inactive)
REMARK    1  A    between atoms: C_9  and  O_10 
REMARK    2  A    between atoms: C_9  and  C_11 
ROOT
HETATM    1  C   UNL     1      11.198  29.886  56.895  1.00  0.00     0.048 C 
HETATM    2  C   UNL     1       9.735  29.635  57.124  1.00  0.00    -0.061 A 
HETATM    3  C   UNL     1       8.929  29.129  56.094  1.00  0.00     0.020 A 
HETATM    4  C   UNL     1       7.585  28.898  56.354  1.00  0.00     0.018 A 
HETATM    5  C   UNL     1       7.052  29.184  57.611  1.00  0.00     0.045 A 
HETATM    6  N   UNL     1       5.694  28.907  57.638  1.00  0.00    -0.323 N 
HETATM    7  C   UNL     1       5.248  28.414  56.409  1.00  0.00     0.266 A 
HETATM    8  O   UNL     1       4.086  28.116  56.176  1.00  0.00    -0.269 OA
HETATM    9  C   UNL     1       6.486  28.391  55.440  1.00  0.00     0.199 A 
HETATM   10  C   UNL     1       7.816  29.683  58.644  1.00  0.00     0.031 A 
HETATM   11  C   UNL     1       9.172  29.906  58.392  1.00  0.00     0.009 A 
HETATM   12  H   UNL     1       5.079  29.029  58.428  1.00  0.00     0.169 HD
ENDROOT
BRANCH   9  13
HETATM   13  O   UNL     1       6.294  29.311  54.371  1.00  0.00    -0.371 OA
HETATM   14  H   UNL     1       7.116  29.308  53.855  1.00  0.00     0.212 HD
ENDBRANCH   9  13
BRANCH   9  15
HETATM   15  C   UNL     1       6.902  27.002  54.999  1.00  0.00     0.025 A 
HETATM   16  C   UNL     1       7.509  25.995  55.844  1.00  0.00     0.003 A 
HETATM   17  C   UNL     1       7.709  24.852  55.073  1.00  0.00     0.043 A 
HETATM   18  C   UNL     1       7.895  25.944  57.202  1.00  0.00     0.014 A 
HETATM   19  C   UNL     1       8.268  23.672  55.581  1.00  0.00     0.030 A 
HETATM   20  N   UNL     1       7.268  25.138  53.809  1.00  0.00    -0.359 N 
HETATM   21  C   UNL     1       8.638  23.653  56.928  1.00  0.00     0.002 A 
HETATM   22  C   UNL     1       8.455  24.774  57.730  1.00  0.00     0.001 A 
HETATM   23  H   UNL     1       7.302  24.486  53.038  1.00  0.00     0.166 HD
HETATM   24  C   UNL     1       6.762  26.411  53.741  1.00  0.00     0.016 A 
HETATM   25  C   UNL     1       6.192  26.916  52.462  1.00  0.00     0.069 C 
ENDBRANCH   9  15
TORSDOF 2
ENDMDL
MODEL 5
REMARK VINA RESULT:      -8.3      6.729      9.065
REMARK  2 active torsions:
REMARK  status: ('A' for Active; 'I' for Inactive)
REMARK    1  A    between atoms: C_9  and  O_10 
REMARK    2  A    between atoms: C_9  and  C_11 
ROOT
HETATM    1  C   UNL     1       5.024  37.870  61.630  1.00  0.00     0.048 C 
HETATM    2  C   UNL     1       5.073  36.544  62.333  1.00  0.00    -0.061 A 
HETATM    3  C   UNL     1       4.788  35.359  61.639  1.00  0.00     0.020 A 
HETATM    4  C   UNL     1       4.860  34.154  62.325  1.00  0.00     0.018 A 
HETATM    5  C   UNL     1       5.190  34.133  63.680  1.00  0.00     0.045 A 
HETATM    6  N   UNL     1       5.174  32.834  64.165  1.00  0.00    -0.323 N 
HETATM    7  C   UNL     1       4.841  31.919  63.164  1.00  0.00     0.266 A 
HETATM    8  O   UNL     1       4.741  30.715  63.347  1.00  0.00    -0.269 OA
HETATM    9  C   UNL     1       4.582  32.741  61.849  1.00  0.00     0.199 A 
HETATM   10  C   UNL     1       5.475  35.279  64.391  1.00  0.00     0.031 A 
HETATM   11  C   UNL     1       5.416  36.494  63.703  1.00  0.00     0.009 A 
HETATM   12  H   UNL     1       5.375  32.552  65.111  1.00  0.00     0.169 HD
ENDROOT
BRANCH   9  13
HETATM   13  O   UNL     1       3.218  32.631  61.458  1.00  0.00    -0.371 OA
HETATM   14  H   UNL     1       3.153  33.021  60.571  1.00  0.00     0.212 HD
ENDBRANCH   9  13
BRANCH   9  15
HETATM   15  C   UNL     1       5.573  32.461  60.736  1.00  0.00     0.025 A 
HETATM   16  C   UNL     1       6.998  32.270  60.905  1.00  0.00     0.003 A 
HETATM   17  C   UNL     1       7.546  32.005  59.651  1.00  0.00     0.043 A 
HETATM   18  C   UNL     1       7.875  32.285  62.013  1.00  0.00     0.014 A 
HETATM   19  C   UNL     1       8.910  31.755  59.448  1.00  0.00     0.030 A 
HETATM   20  N   UNL     1       6.519  32.047  58.747  1.00  0.00    -0.359 N 
HETATM   21  C   UNL     1       9.750  31.775  60.564  1.00  0.00     0.002 A 
HETATM   22  C   UNL     1       9.241  32.036  61.831  1.00  0.00     0.001 A 
HETATM   23  H   UNL     1       6.635  31.897  57.754  1.00  0.00     0.166 HD
HETATM   24  C   UNL     1       5.324  32.298  59.371  1.00  0.00     0.016 A 
HETATM   25  C   UNL     1       4.067  32.350  58.575  1.00  0.00     0.069 C 
ENDBRANCH   9  15
TORSDOF 2
ENDMDL
MODEL 6
REMARK VINA RESULT:      -8.3      8.127     10.545
REMARK  2 active torsions:
REMARK  status: ('A' for Active; 'I' for Inactive)
REMARK    1  A    between atoms: C_9  and  O_10 
REMARK    2  A    between atoms: C_9  and  C_11 
ROOT
HETATM    1  C   UNL     1       6.907  38.758  61.539  1.00  0.00     0.048 C 
HETATM    2  C   UNL     1       5.987  37.886  62.344  1.00  0.00    -0.061 A 
HETATM    3  C   UNL     1       5.337  36.795  61.748  1.00  0.00     0.020 A 
HETATM    4  C   UNL     1       4.508  36.006  62.533  1.00  0.00     0.018 A 
HETATM    5  C   UNL     1       4.315  36.311  63.881  1.00  0.00     0.045 A 
HETATM    6  N   UNL     1       3.430  35.414  64.460  1.00  0.00    -0.323 N 
HETATM    7  C   UNL     1       2.991  34.461  63.539  1.00  0.00     0.266 A 
HETATM    8  O   UNL     1       2.191  33.577  63.803  1.00  0.00    -0.269 OA
HETATM    9  C   UNL     1       3.668  34.799  62.161  1.00  0.00     0.199 A 
HETATM   10  C   UNL     1       4.938  37.375  64.496  1.00  0.00     0.031 A 
HETATM   11  C   UNL     1       5.783  38.166  63.714  1.00  0.00     0.009 A 
HETATM   12  H   UNL     1       3.126  35.419  65.422  1.00  0.00     0.169 HD
ENDROOT
BRANCH   9  13
HETATM   13  O   UNL     1       2.682  35.183  61.208  1.00  0.00    -0.371 OA
HETATM   14  H   UNL     1       2.024  35.709  61.689  1.00  0.00     0.212 HD
ENDBRANCH   9  13
BRANCH   9  15
HETATM   15  C   UNL     1       4.633  33.741  61.667  1.00  0.00     0.025 A 
HETATM   16  C   UNL     1       5.837  33.314  62.348  1.00  0.00     0.003 A 
HETATM   17  C   UNL     1       6.426  32.306  61.587  1.00  0.00     0.043 A 
HETATM   18  C   UNL     1       6.478  33.683  63.552  1.00  0.00     0.014 A 
HETATM   19  C   UNL     1       7.607  31.652  61.962  1.00  0.00     0.030 A 
HETATM   20  N   UNL     1       5.640  32.127  60.481  1.00  0.00    -0.359 N 
HETATM   21  C   UNL     1       8.214  32.039  63.159  1.00  0.00     0.002 A 
HETATM   22  C   UNL     1       7.658  33.041  63.946  1.00  0.00     0.001 A 
HETATM   23  H   UNL     1       5.837  31.458  59.749  1.00  0.00     0.166 HD
HETATM   24  C   UNL     1       4.549  32.959  60.512  1.00  0.00     0.016 A 
HETATM   25  C   UNL     1       3.541  32.902  59.419  1.00  0.00     0.069 C 
ENDBRANCH   9  15
TORSDOF 2
ENDMDL
MODEL 7
REMARK VINA RESULT:      -8.0      7.700     10.608
REMARK  2 active torsions:
REMARK  status: ('A' for Active; 'I' for Inactive)
REMARK    1  A    between atoms: C_9  and  O_10 
REMARK    2  A    between atoms: C_9  and  C_11 
ROOT
HETATM    1  C   UNL     1       7.156  38.826  61.190  1.00  0.00     0.048 C 
HETATM    2  C   UNL     1       6.402  38.111  62.275  1.00  0.00    -0.061 A 
HETATM    3  C   UNL     1       6.088  36.750  62.146  1.00  0.00     0.020 A 
HETATM    4  C   UNL     1       5.404  36.125  63.179  1.00  0.00     0.018 A 
HETATM    5  C   UNL     1       5.023  36.848  64.310  1.00  0.00     0.045 A 
HETATM    6  N   UNL     1       4.329  36.036  65.194  1.00  0.00    -0.323 N 
HETATM    7  C   UNL     1       4.215  34.731  64.710  1.00  0.00     0.266 A 
HETATM    8  O   UNL     1       3.629  33.835  65.298  1.00  0.00    -0.269 OA
HETATM    9  C   UNL     1       4.913  34.695  63.301  1.00  0.00     0.199 A 
HETATM   10  C   UNL     1       5.316  38.185  64.468  1.00  0.00     0.031 A 
HETATM   11  C   UNL     1       6.015  38.817  63.437  1.00  0.00     0.009 A 
HETATM   12  H   UNL     1       3.947  36.319  66.083  1.00  0.00     0.169 HD
ENDROOT
BRANCH   9  13
HETATM   13  O   UNL     1       3.954  34.433  62.282  1.00  0.00    -0.371 OA
HETATM   14  H   UNL     1       3.790  35.279  61.834  1.00  0.00     0.212 HD
ENDBRANCH   9  13
BRANCH   9  15
HETATM   15  C   UNL     1       6.143  33.813  63.240  1.00  0.00     0.025 A 
HETATM   16  C   UNL     1       6.622  33.114  62.066  1.00  0.00     0.003 A 
HETATM   17  C   UNL     1       7.792  32.442  62.414  1.00  0.00     0.043 A 
HETATM   18  C   UNL     1       6.175  33.000  60.730  1.00  0.00     0.014 A 
HETATM   19  C   UNL     1       8.533  31.671  61.508  1.00  0.00     0.030 A 
HETATM   20  N   UNL     1       8.020  32.694  63.740  1.00  0.00    -0.359 N 
HETATM   21  C   UNL     1       8.065  31.581  60.195  1.00  0.00     0.002 A 
HETATM   22  C   UNL     1       6.901  32.236  59.808  1.00  0.00     0.001 A 
HETATM   23  H   UNL     1       8.803  32.321  64.259  1.00  0.00     0.166 HD
HETATM   24  C   UNL     1       7.060  33.528  64.255  1.00  0.00     0.016 A 
HETATM   25  C   UNL     1       7.138  33.961  65.677  1.00  0.00     0.069 C 
ENDBRANCH   9  15
TORSDOF 2
ENDMDL
MODEL 8
REMARK VINA RESULT:      -8.0      7.470     10.309
REMARK  2 active torsions:
REMARK  status: ('A' for Active; 'I' for Inactive)
REMARK    1  A    between atoms: C_9  and  O_10 
REMARK    2  A    between atoms: C_9  and  C_11 
ROOT
HETATM    1  C   UNL     1       4.719  37.879  58.298  1.00  0.00     0.048 C 
HETATM    2  C   UNL     1       4.193  37.329  59.592  1.00  0.00    -0.061 A 
HETATM    3  C   UNL     1       3.990  35.949  59.749  1.00  0.00     0.020 A 
HETATM    4  C   UNL     1       3.516  35.482  60.967  1.00  0.00     0.018 A 
HETATM    5  C   UNL     1       3.233  36.374  62.001  1.00  0.00     0.045 A 
HETATM    6  N   UNL     1       2.746  35.695  63.108  1.00  0.00    -0.323 N 
HETATM    7  C   UNL     1       2.686  34.319  62.879  1.00  0.00     0.266 A 
HETATM    8  O   UNL     1       2.272  33.510  63.696  1.00  0.00    -0.269 OA
HETATM    9  C   UNL     1       3.181  34.070  61.408  1.00  0.00     0.199 A 
HETATM   10  C   UNL     1       3.421  37.733  61.880  1.00  0.00     0.031 A 
HETATM   11  C   UNL     1       3.908  38.209  60.660  1.00  0.00     0.009 A 
HETATM   12  H   UNL     1       2.468  36.111  63.984  1.00  0.00     0.169 HD
ENDROOT
BRANCH   9  13
HETATM   13  O   UNL     1       2.117  33.563  60.608  1.00  0.00    -0.371 OA
HETATM   14  H   UNL     1       2.214  32.597  60.602  1.00  0.00     0.212 HD
ENDBRANCH   9  13
BRANCH   9  15
HETATM   15  C   UNL     1       4.466  33.274  61.311  1.00  0.00     0.025 A 
HETATM   16  C   UNL     1       5.541  33.287  62.281  1.00  0.00     0.003 A 
HETATM   17  C   UNL     1       6.524  32.400  61.845  1.00  0.00     0.043 A 
HETATM   18  C   UNL     1       5.766  33.963  63.501  1.00  0.00     0.014 A 
HETATM   19  C   UNL     1       7.706  32.154  62.556  1.00  0.00     0.030 A 
HETATM   20  N   UNL     1       6.092  31.876  60.656  1.00  0.00    -0.359 N 
HETATM   21  C   UNL     1       7.896  32.837  63.759  1.00  0.00     0.002 A 
HETATM   22  C   UNL     1       6.940  33.731  64.228  1.00  0.00     0.001 A 
HETATM   23  H   UNL     1       6.616  31.206  60.110  1.00  0.00     0.166 HD
HETATM   24  C   UNL     1       4.854  32.366  60.323  1.00  0.00     0.016 A 
HETATM   25  C   UNL     1       4.180  31.897  59.081  1.00  0.00     0.069 C 
ENDBRANCH   9  15
TORSDOF 2
ENDMDL
MODEL 9
REMARK VINA RESULT:      -7.9      7.079     10.640
REMARK  2 active torsions:
REMARK  status: ('A' for Active; 'I' for Inactive)
REMARK    1  A    between atoms: C_9  and  O_10 
REMARK    2  A    between atoms: C_9  and  C_11 
ROOT
HETATM    1  C   UNL     1       9.891  31.911  61.165  1.00  0.00     0.048 C 
HETATM    2  C   UNL     1       8.419  32.100  60.933  1.00  0.00    -0.061 A 
HETATM    3  C   UNL     1       7.573  32.469  61.989  1.00  0.00     0.020 A 
HETATM    4  C   UNL     1       6.222  32.648  61.727  1.00  0.00     0.018 A 
HETATM    5  C   UNL     1       5.722  32.444  60.441  1.00  0.00     0.045 A 
HETATM    6  N   UNL     1       4.350  32.649  60.414  1.00  0.00    -0.323 N 
HETATM    7  C   UNL     1       3.862  33.006  61.673  1.00  0.00     0.266 A 
HETATM    8  O   UNL     1       2.683  33.219  61.911  1.00  0.00    -0.269 OA
HETATM    9  C   UNL     1       5.085  33.012  62.662  1.00  0.00     0.199 A 
HETATM   10  C   UNL     1       6.525  32.082  59.381  1.00  0.00     0.031 A 
HETATM   11  C   UNL     1       7.888  31.911  59.636  1.00  0.00     0.009 A 
HETATM   12  H   UNL     1       3.753  32.563  59.607  1.00  0.00     0.169 HD
ENDROOT
BRANCH   9  13
HETATM   13  O   UNL     1       4.932  31.992  63.643  1.00  0.00    -0.371 OA
HETATM   14  H   UNL     1       4.940  31.147  63.165  1.00  0.00     0.212 HD
ENDBRANCH   9  13
BRANCH   9  15
HETATM   15  C   UNL     1       5.418  34.377  63.230  1.00  0.00     0.025 A 
HETATM   16  C   UNL     1       5.200  35.643  62.563  1.00  0.00     0.003 A 
HETATM   17  C   UNL     1       5.606  36.659  63.427  1.00  0.00     0.043 A 
HETATM   18  C   UNL     1       4.682  36.024  61.305  1.00  0.00     0.014 A 
HETATM   19  C   UNL     1       5.521  38.020  63.105  1.00  0.00     0.030 A 
HETATM   20  N   UNL     1       6.069  36.055  64.565  1.00  0.00    -0.359 N 
HETATM   21  C   UNL     1       5.002  38.362  61.855  1.00  0.00     0.002 A 
HETATM   22  C   UNL     1       4.587  37.379  60.964  1.00  0.00     0.001 A 
HETATM   23  H   UNL     1       6.436  36.558  65.362  1.00  0.00     0.166 HD
HETATM   24  C   UNL     1       5.950  34.691  64.483  1.00  0.00     0.016 A 
HETATM   25  C   UNL     1       6.362  33.839  65.631  1.00  0.00     0.069 C 
ENDBRANCH   9  15
TORSDOF 2
ENDMDL
MODEL 10
REMARK VINA RESULT:      -7.8      2.449      4.779
REMARK  2 active torsions:
REMARK  status: ('A' for Active; 'I' for Inactive)
REMARK    1  A    between atoms: C_9  and  O_10 
REMARK    2  A    between atoms: C_9  and  C_11 
ROOT
HETATM    1  C   UNL     1       7.473  23.037  53.640  1.00  0.00     0.048 C 
HETATM    2  C   UNL     1       7.677  24.186  54.584  1.00  0.00    -0.061 A 
HETATM    3  C   UNL     1       7.382  25.498  54.185  1.00  0.00     0.020 A 
HETATM    4  C   UNL     1       7.570  26.529  55.095  1.00  0.00     0.018 A 
HETATM    5  C   UNL     1       8.062  26.259  56.372  1.00  0.00     0.045 A 
HETATM    6  N   UNL     1       8.199  27.432  57.098  1.00  0.00    -0.323 N 
HETATM    7  C   UNL     1       7.800  28.545  56.354  1.00  0.00     0.266 A 
HETATM    8  O   UNL     1       7.847  29.693  56.767  1.00  0.00    -0.269 OA
HETATM    9  C   UNL     1       7.365  28.023  54.935  1.00  0.00     0.199 A 
HETATM   10  C   UNL     1       8.362  24.983  56.796  1.00  0.00     0.031 A 
HETATM   11  C   UNL     1       8.163  23.940  55.888  1.00  0.00     0.009 A 
HETATM   12  H   UNL     1       8.535  27.508  58.046  1.00  0.00     0.169 HD
ENDROOT
BRANCH   9  13
HETATM   13  O   UNL     1       8.248  28.519  53.934  1.00  0.00    -0.371 OA
HETATM   14  H   UNL     1       8.239  27.869  53.213  1.00  0.00     0.212 HD
ENDBRANCH   9  13
BRANCH   9  15
HETATM   15  C   UNL     1       5.896  28.224  54.624  1.00  0.00     0.025 A 
HETATM   16  C   UNL     1       5.340  28.479  53.311  1.00  0.00     0.003 A 
HETATM   17  C   UNL     1       3.955  28.571  53.443  1.00  0.00     0.043 A 
HETATM   18  C   UNL     1       5.885  28.627  52.016  1.00  0.00     0.014 A 
HETATM   19  C   UNL     1       3.095  28.799  52.360  1.00  0.00     0.030 A 
HETATM   20  N   UNL     1       3.667  28.401  54.770  1.00  0.00    -0.359 N 
HETATM   21  C   UNL     1       3.666  28.939  51.093  1.00  0.00     0.002 A 
HETATM   22  C   UNL     1       5.043  28.855  50.921  1.00  0.00     0.001 A 
HETATM   23  H   UNL     1       2.731  28.428  55.152  1.00  0.00     0.166 HD
HETATM   24  C   UNL     1       4.807  28.171  55.497  1.00  0.00     0.016 A 
HETATM   25  C   UNL     1       4.716  27.923  56.962  1.00  0.00     0.069 C 
ENDBRANCH   9  15
TORSDOF 2
ENDMDL
