MODEL 1
REMARK VINA RESULT:      -9.7      0.000      0.000
REMARK  3 active torsions:
REMARK  status: ('A' for Active; 'I' for Inactive)
REMARK    1  A    between atoms: C_5  and  N_6 
REMARK       I    between atoms: N_6  and  C_7 
REMARK    2  A    between atoms: C_7  and  C_8 
REMARK    3  A    between atoms: C_8  and  N_9 
ROOT
HETATM    1  N   UNL     1       7.176  24.348  52.549  1.00  0.00    -0.367 N 
HETATM    2  C   UNL     1       7.395  23.960  53.792  1.00  0.00     0.108 C 
HETATM    3  C   UNL     1       7.829  22.567  54.069  1.00  0.00     0.014 A 
HETATM    4  C   UNL     1       7.713  22.066  55.382  1.00  0.00    -0.042 A 
HETATM    5  C   UNL     1       8.098  20.753  55.684  1.00  0.00     0.008 A 
HETATM    6  C   UNL     1       8.634  19.940  54.692  1.00  0.00     0.001 A 
HETATM    7  C   UNL     1       8.783  20.428  53.397  1.00  0.00     0.001 A 
HETATM    8  C   UNL     1       8.386  21.732  53.087  1.00  0.00     0.016 A 
HETATM    9  C   UNL     1       7.133  22.952  56.455  1.00  0.00     0.069 C 
HETATM   10  C   UNL     1       7.499  24.431  56.226  1.00  0.00     0.028 C 
HETATM   11  C   UNL     1       6.608  25.325  57.096  1.00  0.00     0.038 C 
HETATM   12  C   UNL     1       8.973  24.726  56.526  1.00  0.00     0.038 C 
HETATM   13  N   UNL     1       7.244  24.803  54.807  1.00  0.00    -0.367 N 
HETATM   14  H   UNL     1       6.930  25.742  54.621  1.00  0.00     0.162 HD
HETATM   15  H   UNL     1       7.205  23.649  51.805  1.00  0.00     0.161 HD
ENDROOT
BRANCH   1  16
HETATM   16  C   UNL     1       6.869  25.707  52.077  1.00  0.00     0.224 C 
BRANCH  16  17
HETATM   17  C   UNL     1       5.506  25.651  51.391  1.00  0.00     0.239 C 
HETATM   18  N   UNL     1       5.448  26.383  50.220  1.00  0.00    -0.326 N 
HETATM   19  H   UNL     1       6.310  26.749  49.833  1.00  0.00     0.169 HD
HETATM   20  O   UNL     1       4.615  24.966  51.892  1.00  0.00    -0.271 OA
BRANCH  18  21
HETATM   21  C   UNL     1       4.308  26.624  49.424  1.00  0.00     0.034 A 
HETATM   22  C   UNL     1       3.774  25.702  48.526  1.00  0.00     0.030 A 
HETATM   23  C   UNL     1       2.611  26.008  47.807  1.00  0.00     0.009 A 
HETATM   24  C   UNL     1       1.971  27.240  47.972  1.00  0.00    -0.062 A 
HETATM   25  C   UNL     1       0.722  27.576  47.211  1.00  0.00     0.048 C 
HETATM   26  C   UNL     1       2.514  28.168  48.865  1.00  0.00     0.009 A 
HETATM   27  C   UNL     1       3.668  27.860  49.589  1.00  0.00     0.030 A 
ENDBRANCH  18  21
ENDBRANCH  16  17
ENDBRANCH   1  16
TORSDOF 3
ENDMDL
MODEL 2
REMARK VINA RESULT:      -9.6      4.624      8.579
REMARK  3 active torsions:
REMARK  status: ('A' for Active; 'I' for Inactive)
REMARK    1  A    between atoms: C_5  and  N_6 
REMARK       I    between atoms: N_6  and  C_7 
REMARK    2  A    between atoms: C_7  and  C_8 
REMARK    3  A    between atoms: C_8  and  N_9 
ROOT
HETATM    1  N   UNL     1       7.655  27.007  55.581  1.00  0.00    -0.367 N 
HETATM    2  C   UNL     1       7.301  26.221  54.582  1.00  0.00     0.108 C 
HETATM    3  C   UNL     1       7.805  24.825  54.521  1.00  0.00     0.014 A 
HETATM    4  C   UNL     1       7.721  24.123  53.301  1.00  0.00    -0.042 A 
HETATM    5  C   UNL     1       8.197  22.810  53.196  1.00  0.00     0.008 A 
HETATM    6  C   UNL     1       8.726  22.170  54.313  1.00  0.00     0.001 A 
HETATM    7  C   UNL     1       8.788  22.838  55.532  1.00  0.00     0.001 A 
HETATM    8  C   UNL     1       8.330  24.154  55.638  1.00  0.00     0.016 A 
HETATM    9  C   UNL     1       7.146  24.819  52.094  1.00  0.00     0.069 C 
HETATM   10  C   UNL     1       6.033  25.808  52.489  1.00  0.00     0.028 C 
HETATM   11  C   UNL     1       5.736  26.749  51.315  1.00  0.00     0.038 C 
HETATM   12  C   UNL     1       4.744  25.101  52.922  1.00  0.00     0.038 C 
HETATM   13  N   UNL     1       6.487  26.654  53.627  1.00  0.00    -0.367 N 
HETATM   14  H   UNL     1       6.161  27.608  53.657  1.00  0.00     0.162 HD
HETATM   15  H   UNL     1       8.360  26.674  56.241  1.00  0.00     0.161 HD
ENDROOT
BRANCH   1  16
HETATM   16  C   UNL     1       7.161  28.361  55.873  1.00  0.00     0.224 C 
BRANCH  16  17
HETATM   17  C   UNL     1       7.407  28.624  57.357  1.00  0.00     0.239 C 
HETATM   18  N   UNL     1       7.349  29.962  57.697  1.00  0.00    -0.326 N 
HETATM   19  H   UNL     1       7.004  30.623  57.010  1.00  0.00     0.169 HD
HETATM   20  O   UNL     1       7.598  27.667  58.106  1.00  0.00    -0.271 OA
BRANCH  18  21
HETATM   21  C   UNL     1       7.646  30.534  58.953  1.00  0.00     0.034 A 
HETATM   22  C   UNL     1       8.784  30.232  59.699  1.00  0.00     0.030 A 
HETATM   23  C   UNL     1       9.024  30.880  60.917  1.00  0.00     0.009 A 
HETATM   24  C   UNL     1       8.127  31.834  61.407  1.00  0.00    -0.062 A 
HETATM   25  C   UNL     1       8.376  32.539  62.708  1.00  0.00     0.048 C 
HETATM   26  C   UNL     1       6.981  32.128  60.663  1.00  0.00     0.009 A 
HETATM   27  C   UNL     1       6.747  31.490  59.444  1.00  0.00     0.030 A 
ENDBRANCH  18  21
ENDBRANCH  16  17
ENDBRANCH   1  16
TORSDOF 3
ENDMDL
MODEL 3
REMARK VINA RESULT:      -9.3      3.403      7.430
REMARK  3 active torsions:
REMARK  status: ('A' for Active; 'I' for Inactive)
REMARK    1  A    between atoms: C_5  and  N_6 
REMARK       I    between atoms: N_6  and  C_7 
REMARK    2  A    between atoms: C_7  and  C_8 
REMARK    3  A    between atoms: C_8  and  N_9 
ROOT
HETATM    1  N   UNL     1       5.903  25.237  56.141  1.00  0.00    -0.367 N 
HETATM    2  C   UNL     1       6.164  24.990  54.871  1.00  0.00     0.108 C 
HETATM    3  C   UNL     1       6.997  23.818  54.498  1.00  0.00     0.014 A 
HETATM    4  C   UNL     1       7.560  23.766  53.206  1.00  0.00    -0.042 A 
HETATM    5  C   UNL     1       8.363  22.686  52.818  1.00  0.00     0.008 A 
HETATM    6  C   UNL     1       8.584  21.632  53.699  1.00  0.00     0.001 A 
HETATM    7  C   UNL     1       8.012  21.653  54.967  1.00  0.00     0.001 A 
HETATM    8  C   UNL     1       7.222  22.736  55.365  1.00  0.00     0.016 A 
HETATM    9  C   UNL     1       7.317  24.909  52.254  1.00  0.00     0.069 C 
HETATM   10  C   UNL     1       5.921  25.528  52.460  1.00  0.00     0.028 C 
HETATM   11  C   UNL     1       5.850  26.889  51.757  1.00  0.00     0.038 C 
HETATM   12  C   UNL     1       4.794  24.624  51.948  1.00  0.00     0.038 C 
HETATM   13  N   UNL     1       5.681  25.770  53.910  1.00  0.00    -0.367 N 
HETATM   14  H   UNL     1       5.133  26.576  54.164  1.00  0.00     0.162 HD
HETATM   15  H   UNL     1       6.371  24.677  56.855  1.00  0.00     0.161 HD
ENDROOT
BRANCH   1  16
HETATM   16  C   UNL     1       5.002  26.264  56.686  1.00  0.00     0.224 C 
BRANCH  16  17
HETATM   17  C   UNL     1       5.789  27.571  56.745  1.00  0.00     0.239 C 
HETATM   18  N   UNL     1       7.049  27.432  57.296  1.00  0.00    -0.326 N 
HETATM   19  H   UNL     1       7.406  26.498  57.460  1.00  0.00     0.169 HD
HETATM   20  O   UNL     1       5.278  28.594  56.291  1.00  0.00    -0.271 OA
BRANCH  18  21
HETATM   21  C   UNL     1       7.966  28.464  57.594  1.00  0.00     0.034 A 
HETATM   22  C   UNL     1       9.185  28.637  56.941  1.00  0.00     0.030 A 
HETATM   23  C   UNL     1      10.015  29.716  57.269  1.00  0.00     0.009 A 
HETATM   24  C   UNL     1       9.641  30.631  58.258  1.00  0.00    -0.062 A 
HETATM   25  C   UNL     1      10.520  31.793  58.615  1.00  0.00     0.048 C 
HETATM   26  C   UNL     1       8.424  30.449  58.919  1.00  0.00     0.009 A 
HETATM   27  C   UNL     1       7.590  29.380  58.585  1.00  0.00     0.030 A 
ENDBRANCH  18  21
ENDBRANCH  16  17
ENDBRANCH   1  16
TORSDOF 3
ENDMDL
MODEL 4
REMARK VINA RESULT:      -9.2      4.781      8.533
REMARK  3 active torsions:
REMARK  status: ('A' for Active; 'I' for Inactive)
REMARK    1  A    between atoms: C_5  and  N_6 
REMARK       I    between atoms: N_6  and  C_7 
REMARK    2  A    between atoms: C_7  and  C_8 
REMARK    3  A    between atoms: C_8  and  N_9 
ROOT
HETATM    1  N   UNL     1       6.533  28.259  57.185  1.00  0.00    -0.367 N 
HETATM    2  C   UNL     1       6.508  29.480  57.685  1.00  0.00     0.108 C 
HETATM    3  C   UNL     1       7.777  30.160  58.049  1.00  0.00     0.014 A 
HETATM    4  C   UNL     1       7.727  31.288  58.895  1.00  0.00    -0.042 A 
HETATM    5  C   UNL     1       8.902  31.950  59.275  1.00  0.00     0.008 A 
HETATM    6  C   UNL     1      10.132  31.519  58.788  1.00  0.00     0.001 A 
HETATM    7  C   UNL     1      10.196  30.427  57.929  1.00  0.00     0.001 A 
HETATM    8  C   UNL     1       9.029  29.752  57.560  1.00  0.00     0.016 A 
HETATM    9  C   UNL     1       6.393  31.752  59.418  1.00  0.00     0.069 C 
HETATM   10  C   UNL     1       5.269  31.510  58.393  1.00  0.00     0.028 C 
HETATM   11  C   UNL     1       3.904  31.642  59.079  1.00  0.00     0.038 C 
HETATM   12  C   UNL     1       5.341  32.473  57.202  1.00  0.00     0.038 C 
HETATM   13  N   UNL     1       5.359  30.124  57.857  1.00  0.00    -0.367 N 
HETATM   14  H   UNL     1       4.497  29.655  57.629  1.00  0.00     0.162 HD
HETATM   15  H   UNL     1       7.424  27.758  57.160  1.00  0.00     0.161 HD
ENDROOT
BRANCH   1  16
HETATM   16  C   UNL     1       5.401  27.485  56.654  1.00  0.00     0.224 C 
BRANCH  16  17
HETATM   17  C   UNL     1       5.881  26.047  56.470  1.00  0.00     0.239 C 
HETATM   18  N   UNL     1       6.796  25.899  55.445  1.00  0.00    -0.326 N 
HETATM   19  H   UNL     1       7.188  26.731  55.020  1.00  0.00     0.169 HD
HETATM   20  O   UNL     1       5.459  25.178  57.231  1.00  0.00    -0.271 OA
BRANCH  18  21
HETATM   21  C   UNL     1       7.333  24.690  54.953  1.00  0.00     0.034 A 
HETATM   22  C   UNL     1       8.273  23.919  55.635  1.00  0.00     0.030 A 
HETATM   23  C   UNL     1       8.720  22.707  55.093  1.00  0.00     0.009 A 
HETATM   24  C   UNL     1       8.239  22.253  53.862  1.00  0.00    -0.062 A 
HETATM   25  C   UNL     1       8.706  20.955  53.274  1.00  0.00     0.048 C 
HETATM   26  C   UNL     1       7.305  23.033  53.174  1.00  0.00     0.009 A 
HETATM   27  C   UNL     1       6.851  24.236  53.719  1.00  0.00     0.030 A 
ENDBRANCH  18  21
ENDBRANCH  16  17
ENDBRANCH   1  16
TORSDOF 3
ENDMDL
MODEL 5
REMARK VINA RESULT:      -9.0      1.348      1.762
REMARK  3 active torsions:
REMARK  status: ('A' for Active; 'I' for Inactive)
REMARK    1  A    between atoms: C_5  and  N_6 
REMARK       I    between atoms: N_6  and  C_7 
REMARK    2  A    between atoms: C_7  and  C_8 
REMARK    3  A    between atoms: C_8  and  N_9 
ROOT
HETATM    1  N   UNL     1       6.371  25.742  52.227  1.00  0.00    -0.367 N 
HETATM    2  C   UNL     1       6.543  25.514  53.516  1.00  0.00     0.108 C 
HETATM    3  C   UNL     1       7.225  24.274  53.967  1.00  0.00     0.014 A 
HETATM    4  C   UNL     1       7.087  23.871  55.311  1.00  0.00    -0.042 A 
HETATM    5  C   UNL     1       7.701  22.700  55.774  1.00  0.00     0.008 A 
HETATM    6  C   UNL     1       8.487  21.940  54.914  1.00  0.00     0.001 A 
HETATM    7  C   UNL     1       8.658  22.339  53.592  1.00  0.00     0.001 A 
HETATM    8  C   UNL     1       8.034  23.498  53.121  1.00  0.00     0.016 A 
HETATM    9  C   UNL     1       6.236  24.698  56.240  1.00  0.00     0.069 C 
HETATM   10  C   UNL     1       6.311  26.197  55.891  1.00  0.00     0.028 C 
HETATM   11  C   UNL     1       5.175  26.950  56.593  1.00  0.00     0.038 C 
HETATM   12  C   UNL     1       7.657  26.824  56.272  1.00  0.00     0.038 C 
HETATM   13  N   UNL     1       6.125  26.387  54.426  1.00  0.00    -0.367 N 
HETATM   14  H   UNL     1       5.644  27.219  54.121  1.00  0.00     0.162 HD
HETATM   15  H   UNL     1       6.615  25.005  51.563  1.00  0.00     0.161 HD
ENDROOT
BRANCH   1  16
HETATM   16  C   UNL     1       5.839  26.960  51.597  1.00  0.00     0.224 C 
BRANCH  16  17
HETATM   17  C   UNL     1       4.806  26.520  50.563  1.00  0.00     0.239 C 
HETATM   18  N   UNL     1       4.358  27.550  49.758  1.00  0.00    -0.326 N 
HETATM   19  H   UNL     1       4.840  28.441  49.797  1.00  0.00     0.169 HD
HETATM   20  O   UNL     1       4.488  25.333  50.507  1.00  0.00    -0.271 OA
BRANCH  18  21
HETATM   21  C   UNL     1       3.327  27.492  48.795  1.00  0.00     0.034 A 
HETATM   22  C   UNL     1       3.237  26.512  47.808  1.00  0.00     0.030 A 
HETATM   23  C   UNL     1       2.154  26.503  46.919  1.00  0.00     0.009 A 
HETATM   24  C   UNL     1       1.152  27.474  47.002  1.00  0.00    -0.062 A 
HETATM   25  C   UNL     1      -0.014  27.471  46.059  1.00  0.00     0.048 C 
HETATM   26  C   UNL     1       1.250  28.462  47.986  1.00  0.00     0.009 A 
HETATM   27  C   UNL     1       2.324  28.466  48.879  1.00  0.00     0.030 A 
ENDBRANCH  18  21
ENDBRANCH  16  17
ENDBRANCH   1  16
TORSDOF 3
ENDMDL
MODEL 6
REMARK VINA RESULT:      -8.9      1.412      8.559
REMARK  3 active torsions:
REMARK  status: ('A' for Active; 'I' for Inactive)
REMARK    1  A    between atoms: C_5  and  N_6 
REMARK       I    between atoms: N_6  and  C_7 
REMARK    2  A    between atoms: C_7  and  C_8 
REMARK    3  A    between atoms: C_8  and  N_9 
ROOT
HETATM    1  N   UNL     1       5.679  26.566  50.842  1.00  0.00    -0.367 N 
HETATM    2  C   UNL     1       4.917  27.370  50.124  1.00  0.00     0.108 C 
HETATM    3  C   UNL     1       4.097  26.820  49.014  1.00  0.00     0.014 A 
HETATM    4  C   UNL     1       3.580  27.705  48.046  1.00  0.00    -0.042 A 
HETATM    5  C   UNL     1       2.814  27.227  46.975  1.00  0.00     0.008 A 
HETATM    6  C   UNL     1       2.524  25.870  46.878  1.00  0.00     0.001 A 
HETATM    7  C   UNL     1       3.000  24.987  47.842  1.00  0.00     0.001 A 
HETATM    8  C   UNL     1       3.780  25.456  48.903  1.00  0.00     0.016 A 
HETATM    9  C   UNL     1       3.895  29.175  48.155  1.00  0.00     0.069 C 
HETATM   10  C   UNL     1       4.002  29.622  49.626  1.00  0.00     0.028 C 
HETATM   11  C   UNL     1       4.675  30.998  49.702  1.00  0.00     0.038 C 
HETATM   12  C   UNL     1       2.639  29.676  50.326  1.00  0.00     0.038 C 
HETATM   13  N   UNL     1       4.860  28.671  50.384  1.00  0.00    -0.367 N 
HETATM   14  H   UNL     1       5.432  29.047  51.124  1.00  0.00     0.162 HD
HETATM   15  H   UNL     1       5.775  25.591  50.551  1.00  0.00     0.161 HD
ENDROOT
BRANCH   1  16
HETATM   16  C   UNL     1       6.453  26.905  52.046  1.00  0.00     0.224 C 
BRANCH  16  17
HETATM   17  C   UNL     1       6.358  25.714  52.996  1.00  0.00     0.239 C 
HETATM   18  N   UNL     1       7.558  25.050  53.168  1.00  0.00    -0.326 N 
HETATM   19  H   UNL     1       8.404  25.473  52.805  1.00  0.00     0.169 HD
HETATM   20  O   UNL     1       5.280  25.465  53.534  1.00  0.00    -0.271 OA
BRANCH  18  21
HETATM   21  C   UNL     1       7.773  23.852  53.883  1.00  0.00     0.034 A 
HETATM   22  C   UNL     1       7.869  23.778  55.272  1.00  0.00     0.030 A 
HETATM   23  C   UNL     1       8.038  22.540  55.904  1.00  0.00     0.009 A 
HETATM   24  C   UNL     1       8.118  21.361  55.157  1.00  0.00    -0.062 A 
HETATM   25  C   UNL     1       8.293  20.028  55.824  1.00  0.00     0.048 C 
HETATM   26  C   UNL     1       8.032  21.437  53.765  1.00  0.00     0.009 A 
HETATM   27  C   UNL     1       7.853  22.670  53.134  1.00  0.00     0.030 A 
ENDBRANCH  18  21
ENDBRANCH  16  17
ENDBRANCH   1  16
TORSDOF 3
ENDMDL
MODEL 7
REMARK VINA RESULT:      -8.4      8.146     11.806
REMARK  3 active torsions:
REMARK  status: ('A' for Active; 'I' for Inactive)
REMARK    1  A    between atoms: C_5  and  N_6 
REMARK       I    between atoms: N_6  and  C_7 
REMARK    2  A    between atoms: C_7  and  C_8 
REMARK    3  A    between atoms: C_8  and  N_9 
ROOT
HETATM    1  N   UNL     1       8.046  32.317  60.956  1.00  0.00    -0.367 N 
HETATM    2  C   UNL     1       6.840  32.673  61.358  1.00  0.00     0.108 C 
HETATM    3  C   UNL     1       6.602  33.010  62.785  1.00  0.00     0.014 A 
HETATM    4  C   UNL     1       5.277  33.037  63.266  1.00  0.00    -0.042 A 
HETATM    5  C   UNL     1       5.010  33.336  64.609  1.00  0.00     0.008 A 
HETATM    6  C   UNL     1       6.054  33.646  65.474  1.00  0.00     0.001 A 
HETATM    7  C   UNL     1       7.365  33.654  65.008  1.00  0.00     0.001 A 
HETATM    8  C   UNL     1       7.639  33.340  63.673  1.00  0.00     0.016 A 
HETATM    9  C   UNL     1       4.149  32.702  62.325  1.00  0.00     0.069 C 
HETATM   10  C   UNL     1       4.454  33.169  60.889  1.00  0.00     0.028 C 
HETATM   11  C   UNL     1       3.482  32.499  59.910  1.00  0.00     0.038 C 
HETATM   12  C   UNL     1       4.372  34.692  60.734  1.00  0.00     0.038 C 
HETATM   13  N   UNL     1       5.829  32.749  60.500  1.00  0.00    -0.367 N 
HETATM   14  H   UNL     1       5.985  32.502  59.536  1.00  0.00     0.162 HD
HETATM   15  H   UNL     1       8.774  32.173  61.658  1.00  0.00     0.161 HD
ENDROOT
BRANCH   1  16
HETATM   16  C   UNL     1       8.494  32.074  59.576  1.00  0.00     0.224 C 
BRANCH  16  17
HETATM   17  C   UNL     1       8.338  30.579  59.305  1.00  0.00     0.239 C 
HETATM   18  N   UNL     1       7.726  30.299  58.098  1.00  0.00    -0.326 N 
HETATM   19  H   UNL     1       7.583  31.055  57.439  1.00  0.00     0.169 HD
HETATM   20  O   UNL     1       8.774  29.777  60.129  1.00  0.00    -0.271 OA
BRANCH  18  21
HETATM   21  C   UNL     1       7.336  29.031  57.617  1.00  0.00     0.034 A 
HETATM   22  C   UNL     1       8.221  27.981  57.376  1.00  0.00     0.030 A 
HETATM   23  C   UNL     1       7.742  26.739  56.941  1.00  0.00     0.009 A 
HETATM   24  C   UNL     1       6.375  26.532  56.734  1.00  0.00    -0.062 A 
HETATM   25  C   UNL     1       5.851  25.204  56.273  1.00  0.00     0.048 C 
HETATM   26  C   UNL     1       5.490  27.588  56.965  1.00  0.00     0.009 A 
HETATM   27  C   UNL     1       5.966  28.824  57.409  1.00  0.00     0.030 A 
ENDBRANCH  18  21
ENDBRANCH  16  17
ENDBRANCH   1  16
TORSDOF 3
ENDMDL
MODEL 8
REMARK VINA RESULT:      -8.4      1.600      2.049
REMARK  3 active torsions:
REMARK  status: ('A' for Active; 'I' for Inactive)
REMARK    1  A    between atoms: C_5  and  N_6 
REMARK       I    between atoms: N_6  and  C_7 
REMARK    2  A    between atoms: C_7  and  C_8 
REMARK    3  A    between atoms: C_8  and  N_9 
ROOT
HETATM    1  N   UNL     1       7.036  26.415  53.294  1.00  0.00    -0.367 N 
HETATM    2  C   UNL     1       7.297  25.635  54.326  1.00  0.00     0.108 C 
HETATM    3  C   UNL     1       7.511  24.179  54.121  1.00  0.00     0.014 A 
HETATM    4  C   UNL     1       7.432  23.316  55.234  1.00  0.00    -0.042 A 
HETATM    5  C   UNL     1       7.613  21.935  55.083  1.00  0.00     0.008 A 
HETATM    6  C   UNL     1       7.911  21.405  53.832  1.00  0.00     0.001 A 
HETATM    7  C   UNL     1       8.023  22.246  52.729  1.00  0.00     0.001 A 
HETATM    8  C   UNL     1       7.827  23.624  52.871  1.00  0.00     0.016 A 
HETATM    9  C   UNL     1       7.110  23.895  56.588  1.00  0.00     0.069 C 
HETATM   10  C   UNL     1       7.701  25.308  56.753  1.00  0.00     0.028 C 
HETATM   11  C   UNL     1       7.057  26.000  57.960  1.00  0.00     0.038 C 
HETATM   12  C   UNL     1       9.224  25.295  56.919  1.00  0.00     0.038 C 
HETATM   13  N   UNL     1       7.385  26.133  55.554  1.00  0.00    -0.367 N 
HETATM   14  H   UNL     1       7.220  27.117  55.695  1.00  0.00     0.162 HD
HETATM   15  H   UNL     1       6.878  25.984  52.381  1.00  0.00     0.161 HD
ENDROOT
BRANCH   1  16
HETATM   16  C   UNL     1       6.923  27.881  53.286  1.00  0.00     0.224 C 
BRANCH  16  17
HETATM   17  C   UNL     1       6.039  28.261  52.101  1.00  0.00     0.239 C 
HETATM   18  N   UNL     1       5.205  27.240  51.686  1.00  0.00    -0.326 N 
HETATM   19  H   UNL     1       5.123  26.414  52.266  1.00  0.00     0.169 HD
HETATM   20  O   UNL     1       6.110  29.402  51.647  1.00  0.00    -0.271 OA
BRANCH  18  21
HETATM   21  C   UNL     1       4.361  27.238  50.554  1.00  0.00     0.034 A 
HETATM   22  C   UNL     1       3.426  28.234  50.276  1.00  0.00     0.030 A 
HETATM   23  C   UNL     1       2.659  28.177  49.105  1.00  0.00     0.009 A 
HETATM   24  C   UNL     1       2.813  27.122  48.201  1.00  0.00    -0.062 A 
HETATM   25  C   UNL     1       2.001  27.053  46.941  1.00  0.00     0.048 C 
HETATM   26  C   UNL     1       3.743  26.118  48.487  1.00  0.00     0.009 A 
HETATM   27  C   UNL     1       4.515  26.180  49.648  1.00  0.00     0.030 A 
ENDBRANCH  18  21
ENDBRANCH  16  17
ENDBRANCH   1  16
TORSDOF 3
ENDMDL
MODEL 9
REMARK VINA RESULT:      -8.3      2.035      9.068
REMARK  3 active torsions:
REMARK  status: ('A' for Active; 'I' for Inactive)
REMARK    1  A    between atoms: C_5  and  N_6 
REMARK       I    between atoms: N_6  and  C_7 
REMARK    2  A    between atoms: C_7  and  C_8 
REMARK    3  A    between atoms: C_8  and  N_9 
ROOT
HETATM    1  N   UNL     1       4.980  27.269  51.320  1.00  0.00    -0.367 N 
HETATM    2  C   UNL     1       4.067  27.956  50.659  1.00  0.00     0.108 C 
HETATM    3  C   UNL     1       3.672  29.309  51.128  1.00  0.00     0.014 A 
HETATM    4  C   UNL     1       2.473  29.873  50.647  1.00  0.00    -0.042 A 
HETATM    5  C   UNL     1       2.056  31.141  51.075  1.00  0.00     0.008 A 
HETATM    6  C   UNL     1       2.846  31.872  51.956  1.00  0.00     0.001 A 
HETATM    7  C   UNL     1       4.047  31.342  52.417  1.00  0.00     0.001 A 
HETATM    8  C   UNL     1       4.460  30.071  52.006  1.00  0.00     0.016 A 
HETATM    9  C   UNL     1       1.621  29.078  49.691  1.00  0.00     0.069 C 
HETATM   10  C   UNL     1       2.482  28.199  48.765  1.00  0.00     0.028 C 
HETATM   11  C   UNL     1       1.599  27.150  48.079  1.00  0.00     0.038 C 
HETATM   12  C   UNL     1       3.230  29.015  47.705  1.00  0.00     0.038 C 
HETATM   13  N   UNL     1       3.499  27.462  49.565  1.00  0.00    -0.367 N 
HETATM   14  H   UNL     1       3.752  26.536  49.258  1.00  0.00     0.162 HD
HETATM   15  H   UNL     1       5.322  27.636  52.209  1.00  0.00     0.161 HD
ENDROOT
BRANCH   1  16
HETATM   16  C   UNL     1       5.583  25.983  50.937  1.00  0.00     0.224 C 
BRANCH  16  17
HETATM   17  C   UNL     1       5.632  25.114  52.191  1.00  0.00     0.239 C 
HETATM   18  N   UNL     1       6.881  24.578  52.442  1.00  0.00    -0.326 N 
HETATM   19  H   UNL     1       7.670  24.912  51.902  1.00  0.00     0.169 HD
HETATM   20  O   UNL     1       4.612  24.988  52.868  1.00  0.00    -0.271 OA
BRANCH  18  21
HETATM   21  C   UNL     1       7.220  23.647  53.448  1.00  0.00     0.034 A 
HETATM   22  C   UNL     1       7.098  23.895  54.814  1.00  0.00     0.030 A 
HETATM   23  C   UNL     1       7.416  22.898  55.745  1.00  0.00     0.009 A 
HETATM   24  C   UNL     1       7.865  21.643  55.323  1.00  0.00    -0.062 A 
HETATM   25  C   UNL     1       8.203  20.565  56.310  1.00  0.00     0.048 C 
HETATM   26  C   UNL     1       7.998  21.400  53.953  1.00  0.00     0.009 A 
HETATM   27  C   UNL     1       7.671  22.390  53.024  1.00  0.00     0.030 A 
ENDBRANCH  18  21
ENDBRANCH  16  17
ENDBRANCH   1  16
TORSDOF 3
ENDMDL
MODEL 10
REMARK VINA RESULT:      -8.3      6.069      9.313
REMARK  3 active torsions:
REMARK  status: ('A' for Active; 'I' for Inactive)
REMARK    1  A    between atoms: C_5  and  N_6 
REMARK       I    between atoms: N_6  and  C_7 
REMARK    2  A    between atoms: C_7  and  C_8 
REMARK    3  A    between atoms: C_8  and  N_9 
ROOT
HETATM    1  N   UNL     1       7.063  30.301  57.711  1.00  0.00    -0.367 N 
HETATM    2  C   UNL     1       6.607  31.052  58.697  1.00  0.00     0.108 C 
HETATM    3  C   UNL     1       7.527  31.504  59.772  1.00  0.00     0.014 A 
HETATM    4  C   UNL     1       6.979  31.987  60.978  1.00  0.00    -0.042 A 
HETATM    5  C   UNL     1       7.810  32.410  62.024  1.00  0.00     0.008 A 
HETATM    6  C   UNL     1       9.192  32.390  61.865  1.00  0.00     0.001 A 
HETATM    7  C   UNL     1       9.749  31.945  60.670  1.00  0.00     0.001 A 
HETATM    8  C   UNL     1       8.924  31.506  59.629  1.00  0.00     0.016 A 
HETATM    9  C   UNL     1       5.481  32.007  61.146  1.00  0.00     0.069 C 
HETATM   10  C   UNL     1       4.767  32.290  59.810  1.00  0.00     0.028 C 
HETATM   11  C   UNL     1       3.279  31.942  59.934  1.00  0.00     0.038 C 
HETATM   12  C   UNL     1       4.919  33.747  59.358  1.00  0.00     0.038 C 
HETATM   13  N   UNL     1       5.333  31.425  58.739  1.00  0.00    -0.367 N 
HETATM   14  H   UNL     1       4.705  31.101  58.020  1.00  0.00     0.162 HD
HETATM   15  H   UNL     1       8.021  29.951  57.764  1.00  0.00     0.161 HD
ENDROOT
BRANCH   1  16
HETATM   16  C   UNL     1       6.338  29.869  56.506  1.00  0.00     0.224 C 
BRANCH  16  17
HETATM   17  C   UNL     1       7.149  28.743  55.869  1.00  0.00     0.239 C 
HETATM   18  N   UNL     1       6.373  27.823  55.189  1.00  0.00    -0.326 N 
HETATM   19  H   UNL     1       5.396  28.036  55.028  1.00  0.00     0.169 HD
HETATM   20  O   UNL     1       8.374  28.756  55.979  1.00  0.00    -0.271 OA
BRANCH  18  21
HETATM   21  C   UNL     1       6.807  26.616  54.598  1.00  0.00     0.034 A 
HETATM   22  C   UNL     1       7.383  26.531  53.332  1.00  0.00     0.030 A 
HETATM   23  C   UNL     1       7.827  25.297  52.839  1.00  0.00     0.009 A 
HETATM   24  C   UNL     1       7.696  24.133  53.604  1.00  0.00    -0.062 A 
HETATM   25  C   UNL     1       8.173  22.807  53.089  1.00  0.00     0.048 C 
HETATM   26  C   UNL     1       7.109  24.219  54.869  1.00  0.00     0.009 A 
HETATM   27  C   UNL     1       6.676  25.451  55.364  1.00  0.00     0.030 A 
ENDBRANCH  18  21
ENDBRANCH  16  17
ENDBRANCH   1  16
TORSDOF 3
ENDMDL
