MODEL 1
REMARK VINA RESULT:      -9.6      0.000      0.000
REMARK  8 active torsions:
REMARK  status: ('A' for Active; 'I' for Inactive)
REMARK    1  A    between atoms: C_2  and  C_3 
REMARK    2  A    between atoms: C_3  and  C_4 
REMARK    3  A    between atoms: C_7  and  C_8 
REMARK    4  A    between atoms: C_8  and  N_9 
REMARK    5  A    between atoms: C_8  and  C_26 
REMARK    6  A    between atoms: N_9  and  C_12 
REMARK    7  A    between atoms: C_12  and  C_13 
REMARK       I    between atoms: C_13  and  N_14 
REMARK    8  A    between atoms: N_14  and  C_15 
ROOT
HETATM    1  N   UNL     1       3.884  27.040  52.956  1.00  0.00    -0.054 N 
HETATM    2  H   UNL     1       3.182  26.642  52.320  1.00  0.00     0.278 HD
HETATM    3  H   UNL     1       3.903  26.387  53.754  1.00  0.00     0.278 HD
ENDROOT
BRANCH   1   4
HETATM    4  C   UNL     1       5.200  27.037  52.260  1.00  0.00     0.259 C 
BRANCH   4   5
HETATM    5  C   UNL     1       6.067  25.850  52.659  1.00  0.00    -0.023 A 
HETATM    6  C   UNL     1       7.175  25.429  51.903  1.00  0.00     0.010 A 
HETATM    7  C   UNL     1       7.962  24.355  52.324  1.00  0.00     0.007 A 
HETATM    8  C   UNL     1       7.680  23.687  53.520  1.00  0.00    -0.058 A 
HETATM    9  C   UNL     1       6.586  24.104  54.282  1.00  0.00     0.007 A 
HETATM   10  C   UNL     1       5.788  25.170  53.858  1.00  0.00     0.010 A 
BRANCH   8  11
HETATM   11  C   UNL     1       8.567  22.558  53.990  1.00  0.00     0.038 C 
BRANCH  11  12
HETATM   12  C   UNL     1       7.861  21.204  53.892  1.00  0.00     0.000 C 
HETATM   13  C   UNL     1       8.477  20.332  52.809  1.00  0.00     0.005 C 
ENDBRANCH  11  12
ENDBRANCH   8  11
ENDBRANCH   4   5
BRANCH   4  14
HETATM   14  C   UNL     1       5.038  27.147  50.764  1.00  0.00     0.017 A 
HETATM   15  S   UNL     1       5.415  28.613  49.943  1.00  0.00    -0.104 SA
HETATM   16  C   UNL     1       4.991  27.954  48.427  1.00  0.00     0.050 A 
HETATM   17  C   UNL     1       4.575  26.646  48.530  1.00  0.00     0.008 A 
HETATM   18  C   UNL     1       4.603  26.179  49.877  1.00  0.00     0.017 A 
ENDBRANCH   4  14
ENDBRANCH   1   4
BRANCH   1  19
HETATM   19  C   UNL     1       3.359  28.356  53.462  1.00  0.00     0.336 C 
BRANCH  19  20
HETATM   20  C   UNL     1       4.508  29.106  54.142  1.00  0.00     0.248 C 
HETATM   21  N   UNL     1       5.151  28.405  55.140  1.00  0.00    -0.326 N 
HETATM   22  H   UNL     1       4.811  27.483  55.389  1.00  0.00     0.169 HD
HETATM   23  O   UNL     1       4.780  30.228  53.717  1.00  0.00    -0.271 OA
BRANCH  21  24
HETATM   24  C   UNL     1       6.301  28.822  55.855  1.00  0.00     0.037 A 
HETATM   25  C   UNL     1       7.590  28.850  55.306  1.00  0.00     0.061 A 
HETATM   26  C   UNL     1       8.617  29.253  56.131  1.00  0.00     0.065 A 
HETATM   27  C   UNL     1       8.411  29.624  57.456  1.00  0.00     0.063 A 
HETATM   28  N   UNL     1       9.976  29.367  55.860  1.00  0.00    -0.306 N 
HETATM   29  N   UNL     1       9.642  29.965  58.002  1.00  0.00    -0.307 N 
HETATM   30  C   UNL     1       7.165  29.617  58.027  1.00  0.00     0.034 A 
HETATM   31  C   UNL     1      10.631  29.810  57.020  1.00  0.00     0.325 A 
HETATM   32  H   UNL     1       9.837  30.275  58.941  1.00  0.00     0.170 HD
HETATM   33  O   UNL     1      11.823  30.016  57.145  1.00  0.00    -0.247 OA
HETATM   34  C   UNL     1       6.101  29.211  57.208  1.00  0.00     0.032 A 
HETATM   35  H   UNL     1      10.454  29.176  54.994  1.00  0.00     0.170 HD
ENDBRANCH  21  24
ENDBRANCH  19  20
ENDBRANCH   1  19
TORSDOF 8
ENDMDL
MODEL 2
REMARK VINA RESULT:      -9.6      1.625      2.069
REMARK  8 active torsions:
REMARK  status: ('A' for Active; 'I' for Inactive)
REMARK    1  A    between atoms: C_2  and  C_3 
REMARK    2  A    between atoms: C_3  and  C_4 
REMARK    3  A    between atoms: C_7  and  C_8 
REMARK    4  A    between atoms: C_8  and  N_9 
REMARK    5  A    between atoms: C_8  and  C_26 
REMARK    6  A    between atoms: N_9  and  C_12 
REMARK    7  A    between atoms: C_12  and  C_13 
REMARK       I    between atoms: C_13  and  N_14 
REMARK    8  A    between atoms: N_14  and  C_15 
ROOT
HETATM    1  N   UNL     1       4.256  27.187  53.328  1.00  0.00    -0.054 N 
HETATM    2  H   UNL     1       3.437  27.038  52.727  1.00  0.00     0.278 HD
HETATM    3  H   UNL     1       4.201  26.428  54.024  1.00  0.00     0.278 HD
ENDROOT
BRANCH   1   4
HETATM    4  C   UNL     1       5.481  27.030  52.496  1.00  0.00     0.259 C 
BRANCH   4   5
HETATM    5  C   UNL     1       6.294  25.800  52.879  1.00  0.00    -0.023 A 
HETATM    6  C   UNL     1       7.408  25.365  52.142  1.00  0.00     0.010 A 
HETATM    7  C   UNL     1       8.145  24.250  52.550  1.00  0.00     0.007 A 
HETATM    8  C   UNL     1       7.803  23.554  53.713  1.00  0.00    -0.058 A 
HETATM    9  C   UNL     1       6.701  23.984  54.457  1.00  0.00     0.007 A 
HETATM   10  C   UNL     1       5.954  25.092  54.046  1.00  0.00     0.010 A 
BRANCH   8  11
HETATM   11  C   UNL     1       8.634  22.379  54.171  1.00  0.00     0.038 C 
BRANCH  11  12
HETATM   12  C   UNL     1       7.887  21.054  54.000  1.00  0.00     0.000 C 
HETATM   13  C   UNL     1       8.295  20.346  52.718  1.00  0.00     0.005 C 
ENDBRANCH  11  12
ENDBRANCH   8  11
ENDBRANCH   4   5
BRANCH   4  14
HETATM   14  C   UNL     1       5.159  27.064  51.021  1.00  0.00     0.017 A 
HETATM   15  S   UNL     1       5.321  28.521  50.118  1.00  0.00    -0.104 SA
HETATM   16  C   UNL     1       4.805  27.765  48.678  1.00  0.00     0.050 A 
HETATM   17  C   UNL     1       4.519  26.432  48.866  1.00  0.00     0.008 A 
HETATM   18  C   UNL     1       4.724  26.026  50.217  1.00  0.00     0.017 A 
ENDBRANCH   4  14
ENDBRANCH   1   4
BRANCH   1  19
HETATM   19  C   UNL     1       4.066  28.486  54.062  1.00  0.00     0.336 C 
BRANCH  19  20
HETATM   20  C   UNL     1       4.939  28.464  55.319  1.00  0.00     0.248 C 
HETATM   21  N   UNL     1       5.918  29.433  55.365  1.00  0.00    -0.326 N 
HETATM   22  H   UNL     1       6.031  30.054  54.571  1.00  0.00     0.169 HD
HETATM   23  O   UNL     1       4.666  27.630  56.182  1.00  0.00    -0.271 OA
BRANCH  21  24
HETATM   24  C   UNL     1       6.791  29.698  56.449  1.00  0.00     0.037 A 
HETATM   25  C   UNL     1       6.381  30.295  57.648  1.00  0.00     0.061 A 
HETATM   26  C   UNL     1       7.348  30.517  58.605  1.00  0.00     0.065 A 
HETATM   27  C   UNL     1       8.682  30.169  58.414  1.00  0.00     0.063 A 
HETATM   28  N   UNL     1       7.231  31.092  59.864  1.00  0.00    -0.306 N 
HETATM   29  N   UNL     1       9.386  30.532  59.555  1.00  0.00    -0.307 N 
HETATM   30  C   UNL     1       9.120  29.577  57.259  1.00  0.00     0.034 A 
HETATM   31  C   UNL     1       8.496  31.109  60.472  1.00  0.00     0.325 A 
HETATM   32  H   UNL     1      10.371  30.418  59.736  1.00  0.00     0.170 HD
HETATM   33  O   UNL     1       8.764  31.544  61.576  1.00  0.00    -0.247 OA
HETATM   34  C   UNL     1       8.155  29.340  56.268  1.00  0.00     0.032 A 
HETATM   35  H   UNL     1       6.399  31.449  60.308  1.00  0.00     0.170 HD
ENDBRANCH  21  24
ENDBRANCH  19  20
ENDBRANCH   1  19
TORSDOF 8
ENDMDL
MODEL 3
REMARK VINA RESULT:      -9.3      5.140      7.307
REMARK  8 active torsions:
REMARK  status: ('A' for Active; 'I' for Inactive)
REMARK    1  A    between atoms: C_2  and  C_3 
REMARK    2  A    between atoms: C_3  and  C_4 
REMARK    3  A    between atoms: C_7  and  C_8 
REMARK    4  A    between atoms: C_8  and  N_9 
REMARK    5  A    between atoms: C_8  and  C_26 
REMARK    6  A    between atoms: N_9  and  C_12 
REMARK    7  A    between atoms: C_12  and  C_13 
REMARK       I    between atoms: C_13  and  N_14 
REMARK    8  A    between atoms: N_14  and  C_15 
ROOT
HETATM    1  N   UNL     1       7.652  29.434  58.682  1.00  0.00    -0.054 N 
HETATM    2  H   UNL     1       6.875  29.730  59.285  1.00  0.00     0.278 HD
HETATM    3  H   UNL     1       7.910  28.501  59.040  1.00  0.00     0.278 HD
ENDROOT
BRANCH   1   4
HETATM    4  C   UNL     1       7.144  29.324  57.287  1.00  0.00     0.259 C 
BRANCH   4   5
HETATM    5  C   UNL     1       7.200  27.897  56.756  1.00  0.00    -0.023 A 
HETATM    6  C   UNL     1       7.130  26.771  57.595  1.00  0.00     0.010 A 
HETATM    7  C   UNL     1       7.151  25.480  57.062  1.00  0.00     0.007 A 
HETATM    8  C   UNL     1       7.222  25.278  55.680  1.00  0.00    -0.058 A 
HETATM    9  C   UNL     1       7.285  26.391  54.838  1.00  0.00     0.007 A 
HETATM   10  C   UNL     1       7.275  27.685  55.368  1.00  0.00     0.010 A 
BRANCH   8  11
HETATM   11  C   UNL     1       7.197  23.879  55.112  1.00  0.00     0.038 C 
BRANCH  11  12
HETATM   12  C   UNL     1       7.023  23.886  53.592  1.00  0.00     0.000 C 
HETATM   13  C   UNL     1       7.878  22.819  52.928  1.00  0.00     0.005 C 
ENDBRANCH  11  12
ENDBRANCH   8  11
ENDBRANCH   4   5
BRANCH   4  14
HETATM   14  C   UNL     1       5.769  29.931  57.146  1.00  0.00     0.017 A 
HETATM   15  S   UNL     1       5.512  31.607  57.442  1.00  0.00    -0.104 SA
HETATM   16  C   UNL     1       3.845  31.482  57.099  1.00  0.00     0.050 A 
HETATM   17  C   UNL     1       3.481  30.199  56.761  1.00  0.00     0.008 A 
HETATM   18  C   UNL     1       4.590  29.303  56.787  1.00  0.00     0.017 A 
ENDBRANCH   4  14
ENDBRANCH   1   4
BRANCH   1  19
HETATM   19  C   UNL     1       8.816  30.351  58.937  1.00  0.00     0.336 C 
BRANCH  19  20
HETATM   20  C   UNL     1       8.383  31.411  59.953  1.00  0.00     0.248 C 
HETATM   21  N   UNL     1       7.640  30.935  61.012  1.00  0.00    -0.326 N 
HETATM   22  H   UNL     1       7.392  29.951  61.033  1.00  0.00     0.169 HD
HETATM   23  O   UNL     1       8.767  32.565  59.765  1.00  0.00    -0.271 OA
BRANCH  21  24
HETATM   24  C   UNL     1       7.200  31.677  62.136  1.00  0.00     0.037 A 
HETATM   25  C   UNL     1       5.850  31.879  62.453  1.00  0.00     0.061 A 
HETATM   26  C   UNL     1       5.573  32.648  63.563  1.00  0.00     0.065 A 
HETATM   27  C   UNL     1       6.571  33.209  64.353  1.00  0.00     0.063 A 
HETATM   28  N   UNL     1       4.345  33.014  64.101  1.00  0.00    -0.306 N 
HETATM   29  N   UNL     1       5.959  33.923  65.376  1.00  0.00    -0.307 N 
HETATM   30  C   UNL     1       7.902  33.028  64.079  1.00  0.00     0.034 A 
HETATM   31  C   UNL     1       4.568  33.811  65.233  1.00  0.00     0.325 A 
HETATM   32  H   UNL     1       6.400  34.446  66.114  1.00  0.00     0.170 HD
HETATM   33  O   UNL     1       3.719  34.309  65.949  1.00  0.00    -0.247 OA
HETATM   34  C   UNL     1       8.212  32.249  62.954  1.00  0.00     0.032 A 
HETATM   35  H   UNL     1       3.425  32.771  63.768  1.00  0.00     0.170 HD
ENDBRANCH  21  24
ENDBRANCH  19  20
ENDBRANCH   1  19
TORSDOF 8
ENDMDL
MODEL 4
REMARK VINA RESULT:      -9.2      2.984      7.074
REMARK  8 active torsions:
REMARK  status: ('A' for Active; 'I' for Inactive)
REMARK    1  A    between atoms: C_2  and  C_3 
REMARK    2  A    between atoms: C_3  and  C_4 
REMARK    3  A    between atoms: C_7  and  C_8 
REMARK    4  A    between atoms: C_8  and  N_9 
REMARK    5  A    between atoms: C_8  and  C_26 
REMARK    6  A    between atoms: N_9  and  C_12 
REMARK    7  A    between atoms: C_12  and  C_13 
REMARK       I    between atoms: C_13  and  N_14 
REMARK    8  A    between atoms: N_14  and  C_15 
ROOT
HETATM    1  N   UNL     1       6.700  29.243  55.118  1.00  0.00    -0.054 N 
HETATM    2  H   UNL     1       7.255  30.095  54.972  1.00  0.00     0.278 HD
HETATM    3  H   UNL     1       6.835  28.700  54.252  1.00  0.00     0.278 HD
ENDROOT
BRANCH   1   4
HETATM    4  C   UNL     1       7.272  28.507  56.279  1.00  0.00     0.259 C 
BRANCH   4   5
HETATM    5  C   UNL     1       7.546  27.043  55.963  1.00  0.00    -0.023 A 
HETATM    6  C   UNL     1       8.001  26.128  56.929  1.00  0.00     0.010 A 
HETATM    7  C   UNL     1       8.208  24.786  56.602  1.00  0.00     0.007 A 
HETATM    8  C   UNL     1       7.945  24.316  55.312  1.00  0.00    -0.058 A 
HETATM    9  C   UNL     1       7.485  25.215  54.347  1.00  0.00     0.007 A 
HETATM   10  C   UNL     1       7.288  26.562  54.666  1.00  0.00     0.010 A 
BRANCH   8  11
HETATM   11  C   UNL     1       8.127  22.853  54.982  1.00  0.00     0.038 C 
BRANCH  11  12
HETATM   12  C   UNL     1       8.102  22.604  53.473  1.00  0.00     0.000 C 
HETATM   13  C   UNL     1       8.014  21.120  53.154  1.00  0.00     0.005 C 
ENDBRANCH  11  12
ENDBRANCH   8  11
ENDBRANCH   4   5
BRANCH   4  14
HETATM   14  C   UNL     1       8.487  29.207  56.837  1.00  0.00     0.017 A 
HETATM   15  S   UNL     1       8.440  29.948  58.391  1.00  0.00    -0.104 SA
HETATM   16  C   UNL     1      10.062  30.464  58.268  1.00  0.00     0.050 A 
HETATM   17  C   UNL     1      10.638  30.082  57.079  1.00  0.00     0.008 A 
HETATM   18  C   UNL     1       9.732  29.356  56.252  1.00  0.00     0.017 A 
ENDBRANCH   4  14
ENDBRANCH   1   4
BRANCH   1  19
HETATM   19  C   UNL     1       5.250  29.638  55.181  1.00  0.00     0.336 C 
BRANCH  19  20
HETATM   20  C   UNL     1       4.645  29.481  53.783  1.00  0.00     0.248 C 
HETATM   21  N   UNL     1       5.525  29.059  52.811  1.00  0.00    -0.326 N 
HETATM   22  H   UNL     1       6.500  28.925  53.057  1.00  0.00     0.169 HD
HETATM   23  O   UNL     1       3.439  29.697  53.662  1.00  0.00    -0.271 OA
BRANCH  21  24
HETATM   24  C   UNL     1       5.208  28.740  51.467  1.00  0.00     0.037 A 
HETATM   25  C   UNL     1       4.587  27.545  51.079  1.00  0.00     0.061 A 
HETATM   26  C   UNL     1       4.365  27.359  49.732  1.00  0.00     0.065 A 
HETATM   27  C   UNL     1       4.730  28.303  48.777  1.00  0.00     0.063 A 
HETATM   28  N   UNL     1       3.784  26.283  49.071  1.00  0.00    -0.306 N 
HETATM   29  N   UNL     1       4.376  27.808  47.528  1.00  0.00    -0.307 N 
HETATM   30  C   UNL     1       5.332  29.486  49.118  1.00  0.00     0.034 A 
HETATM   31  C   UNL     1       3.784  26.547  47.693  1.00  0.00     0.325 A 
HETATM   32  H   UNL     1       4.505  28.246  46.630  1.00  0.00     0.170 HD
HETATM   33  O   UNL     1       3.355  25.821  46.816  1.00  0.00    -0.247 OA
HETATM   34  C   UNL     1       5.570  29.700  50.484  1.00  0.00     0.032 A 
HETATM   35  H   UNL     1       3.412  25.437  49.473  1.00  0.00     0.170 HD
ENDBRANCH  21  24
ENDBRANCH  19  20
ENDBRANCH   1  19
TORSDOF 8
ENDMDL
MODEL 5
REMARK VINA RESULT:      -9.1      3.485      4.808
REMARK  8 active torsions:
REMARK  status: ('A' for Active; 'I' for Inactive)
REMARK    1  A    between atoms: C_2  and  C_3 
REMARK    2  A    between atoms: C_3  and  C_4 
REMARK    3  A    between atoms: C_7  and  C_8 
REMARK    4  A    between atoms: C_8  and  N_9 
REMARK    5  A    between atoms: C_8  and  C_26 
REMARK    6  A    between atoms: N_9  and  C_12 
REMARK    7  A    between atoms: C_12  and  C_13 
REMARK       I    between atoms: C_13  and  N_14 
REMARK    8  A    between atoms: N_14  and  C_15 
ROOT
HETATM    1  N   UNL     1       7.631  27.713  55.751  1.00  0.00    -0.054 N 
HETATM    2  H   UNL     1       6.723  27.616  56.221  1.00  0.00     0.278 HD
HETATM    3  H   UNL     1       8.228  27.003  56.204  1.00  0.00     0.278 HD
ENDROOT
BRANCH   1   4
HETATM    4  C   UNL     1       7.449  27.386  54.310  1.00  0.00     0.259 C 
BRANCH   4   5
HETATM    5  C   UNL     1       7.616  25.899  54.024  1.00  0.00    -0.023 A 
HETATM    6  C   UNL     1       7.516  24.916  55.024  1.00  0.00     0.010 A 
HETATM    7  C   UNL     1       7.643  23.561  54.711  1.00  0.00     0.007 A 
HETATM    8  C   UNL     1       7.851  23.149  53.391  1.00  0.00    -0.058 A 
HETATM    9  C   UNL     1       7.943  24.118  52.389  1.00  0.00     0.007 A 
HETATM   10  C   UNL     1       7.829  25.476  52.700  1.00  0.00     0.010 A 
BRANCH   8  11
HETATM   11  C   UNL     1       7.939  21.678  53.057  1.00  0.00     0.038 C 
BRANCH  11  12
HETATM   12  C   UNL     1       7.660  20.801  54.279  1.00  0.00     0.000 C 
HETATM   13  C   UNL     1       8.924  20.112  54.770  1.00  0.00     0.005 C 
ENDBRANCH  11  12
ENDBRANCH   8  11
ENDBRANCH   4   5
BRANCH   4  14
HETATM   14  C   UNL     1       6.144  27.926  53.778  1.00  0.00     0.017 A 
HETATM   15  S   UNL     1       4.738  27.967  54.771  1.00  0.00    -0.104 SA
HETATM   16  C   UNL     1       3.795  28.651  53.525  1.00  0.00     0.050 A 
HETATM   17  C   UNL     1       4.524  28.853  52.375  1.00  0.00     0.008 A 
HETATM   18  C   UNL     1       5.879  28.436  52.520  1.00  0.00     0.017 A 
ENDBRANCH   4  14
ENDBRANCH   1   4
BRANCH   1  19
HETATM   19  C   UNL     1       8.194  29.063  56.101  1.00  0.00     0.336 C 
BRANCH  19  20
HETATM   20  C   UNL     1       8.157  29.224  57.623  1.00  0.00     0.248 C 
HETATM   21  N   UNL     1       8.322  30.515  58.077  1.00  0.00    -0.326 N 
HETATM   22  H   UNL     1       8.498  31.253  57.403  1.00  0.00     0.169 HD
HETATM   23  O   UNL     1       7.942  28.214  58.293  1.00  0.00    -0.271 OA
BRANCH  21  24
HETATM   24  C   UNL     1       8.231  30.954  59.421  1.00  0.00     0.037 A 
HETATM   25  C   UNL     1       7.090  31.561  59.963  1.00  0.00     0.061 A 
HETATM   26  C   UNL     1       7.157  31.963  61.280  1.00  0.00     0.065 A 
HETATM   27  C   UNL     1       8.294  31.782  62.061  1.00  0.00     0.063 A 
HETATM   28  N   UNL     1       6.195  32.589  62.063  1.00  0.00    -0.306 N 
HETATM   29  N   UNL     1       8.034  32.299  63.324  1.00  0.00    -0.307 N 
HETATM   30  C   UNL     1       9.426  31.185  61.568  1.00  0.00     0.034 A 
HETATM   31  C   UNL     1       6.727  32.807  63.343  1.00  0.00     0.325 A 
HETATM   32  H   UNL     1       8.650  32.325  64.119  1.00  0.00     0.170 HD
HETATM   33  O   UNL     1       6.163  33.336  64.282  1.00  0.00    -0.247 OA
HETATM   34  C   UNL     1       9.385  30.767  60.230  1.00  0.00     0.032 A 
HETATM   35  H   UNL     1       5.260  32.860  61.799  1.00  0.00     0.170 HD
ENDBRANCH  21  24
ENDBRANCH  19  20
ENDBRANCH   1  19
TORSDOF 8
ENDMDL
MODEL 6
REMARK VINA RESULT:      -8.9      3.181      7.580
REMARK  8 active torsions:
REMARK  status: ('A' for Active; 'I' for Inactive)
REMARK    1  A    between atoms: C_2  and  C_3 
REMARK    2  A    between atoms: C_3  and  C_4 
REMARK    3  A    between atoms: C_7  and  C_8 
REMARK    4  A    between atoms: C_8  and  N_9 
REMARK    5  A    between atoms: C_8  and  C_26 
REMARK    6  A    between atoms: N_9  and  C_12 
REMARK    7  A    between atoms: C_12  and  C_13 
REMARK       I    between atoms: C_13  and  N_14 
REMARK    8  A    between atoms: N_14  and  C_15 
ROOT
HETATM    1  N   UNL     1       6.238  28.549  53.469  1.00  0.00    -0.054 N 
HETATM    2  H   UNL     1       6.999  29.229  53.349  1.00  0.00     0.278 HD
HETATM    3  H   UNL     1       6.231  28.018  52.584  1.00  0.00     0.278 HD
ENDROOT
BRANCH   1   4
HETATM    4  C   UNL     1       6.588  27.650  54.603  1.00  0.00     0.259 C 
BRANCH   4   5
HETATM    5  C   UNL     1       6.967  26.249  54.141  1.00  0.00    -0.023 A 
HETATM    6  C   UNL     1       7.566  25.996  52.894  1.00  0.00     0.010 A 
HETATM    7  C   UNL     1       7.928  24.698  52.525  1.00  0.00     0.007 A 
HETATM    8  C   UNL     1       7.721  23.623  53.395  1.00  0.00    -0.058 A 
HETATM    9  C   UNL     1       7.134  23.867  54.639  1.00  0.00     0.007 A 
HETATM   10  C   UNL     1       6.759  25.162  55.009  1.00  0.00     0.010 A 
BRANCH   8  11
HETATM   11  C   UNL     1       8.159  22.231  53.005  1.00  0.00     0.038 C 
BRANCH  11  12
HETATM   12  C   UNL     1       8.958  21.554  54.121  1.00  0.00     0.000 C 
HETATM   13  C   UNL     1       8.252  20.309  54.634  1.00  0.00     0.005 C 
ENDBRANCH  11  12
ENDBRANCH   8  11
ENDBRANCH   4   5
BRANCH   4  14
HETATM   14  C   UNL     1       7.643  28.262  55.493  1.00  0.00     0.017 A 
HETATM   15  S   UNL     1       7.490  28.204  57.207  1.00  0.00    -0.104 SA
HETATM   16  C   UNL     1       8.959  29.044  57.433  1.00  0.00     0.050 A 
HETATM   17  C   UNL     1       9.563  29.361  56.239  1.00  0.00     0.008 A 
HETATM   18  C   UNL     1       8.806  28.910  55.118  1.00  0.00     0.017 A 
ENDBRANCH   4  14
ENDBRANCH   1   4
BRANCH   1  19
HETATM   19  C   UNL     1       4.944  29.311  53.548  1.00  0.00     0.336 C 
BRANCH  19  20
HETATM   20  C   UNL     1       4.000  28.775  52.468  1.00  0.00     0.248 C 
HETATM   21  N   UNL     1       4.555  28.666  51.211  1.00  0.00    -0.326 N 
HETATM   22  H   UNL     1       5.510  28.979  51.068  1.00  0.00     0.169 HD
HETATM   23  O   UNL     1       2.865  28.452  52.819  1.00  0.00    -0.271 OA
BRANCH  21  24
HETATM   24  C   UNL     1       3.938  28.110  50.063  1.00  0.00     0.037 A 
HETATM   25  C   UNL     1       2.735  28.584  49.522  1.00  0.00     0.061 A 
HETATM   26  C   UNL     1       2.239  27.925  48.417  1.00  0.00     0.065 A 
HETATM   27  C   UNL     1       2.888  26.837  47.842  1.00  0.00     0.063 A 
HETATM   28  N   UNL     1       1.081  28.168  47.689  1.00  0.00    -0.306 N 
HETATM   29  N   UNL     1       2.127  26.407  46.761  1.00  0.00    -0.307 N 
HETATM   30  C   UNL     1       4.069  26.350  48.338  1.00  0.00     0.034 A 
HETATM   31  C   UNL     1       0.995  27.227  46.651  1.00  0.00     0.325 A 
HETATM   32  H   UNL     1       2.319  25.641  46.137  1.00  0.00     0.170 HD
HETATM   33  O   UNL     1       0.110  27.141  45.822  1.00  0.00    -0.247 OA
HETATM   34  C   UNL     1       4.596  27.002  49.463  1.00  0.00     0.032 A 
HETATM   35  H   UNL     1       0.391  28.886  47.843  1.00  0.00     0.170 HD
ENDBRANCH  21  24
ENDBRANCH  19  20
ENDBRANCH   1  19
TORSDOF 8
ENDMDL
MODEL 7
REMARK VINA RESULT:      -8.4      3.954      8.176
REMARK  8 active torsions:
REMARK  status: ('A' for Active; 'I' for Inactive)
REMARK    1  A    between atoms: C_2  and  C_3 
REMARK    2  A    between atoms: C_3  and  C_4 
REMARK    3  A    between atoms: C_7  and  C_8 
REMARK    4  A    between atoms: C_8  and  N_9 
REMARK    5  A    between atoms: C_8  and  C_26 
REMARK    6  A    between atoms: N_9  and  C_12 
REMARK    7  A    between atoms: C_12  and  C_13 
REMARK       I    between atoms: C_13  and  N_14 
REMARK    8  A    between atoms: N_14  and  C_15 
ROOT
HETATM    1  N   UNL     1       4.841  26.356  52.161  1.00  0.00    -0.054 N 
HETATM    2  H   UNL     1       5.443  25.810  51.532  1.00  0.00     0.278 HD
HETATM    3  H   UNL     1       3.887  26.029  51.946  1.00  0.00     0.278 HD
ENDROOT
BRANCH   1   4
HETATM    4  C   UNL     1       5.198  26.011  53.565  1.00  0.00     0.259 C 
BRANCH   4   5
HETATM    5  C   UNL     1       6.171  24.842  53.649  1.00  0.00    -0.023 A 
HETATM    6  C   UNL     1       6.928  24.402  52.549  1.00  0.00     0.010 A 
HETATM    7  C   UNL     1       7.833  23.347  52.680  1.00  0.00     0.007 A 
HETATM    8  C   UNL     1       8.024  22.717  53.914  1.00  0.00    -0.058 A 
HETATM    9  C   UNL     1       7.281  23.152  55.015  1.00  0.00     0.007 A 
HETATM   10  C   UNL     1       6.365  24.200  54.885  1.00  0.00     0.010 A 
BRANCH   8  11
HETATM   11  C   UNL     1       9.040  21.608  54.056  1.00  0.00     0.038 C 
BRANCH  11  12
HETATM   12  C   UNL     1       8.421  20.345  54.657  1.00  0.00     0.000 C 
HETATM   13  C   UNL     1       8.772  20.199  56.129  1.00  0.00     0.005 C 
ENDBRANCH  11  12
ENDBRANCH   8  11
ENDBRANCH   4   5
BRANCH   4  14
HETATM   14  C   UNL     1       5.689  27.218  54.326  1.00  0.00     0.017 A 
HETATM   15  S   UNL     1       4.598  28.188  55.239  1.00  0.00    -0.104 SA
HETATM   16  C   UNL     1       5.844  29.244  55.734  1.00  0.00     0.050 A 
HETATM   17  C   UNL     1       7.068  28.874  55.227  1.00  0.00     0.008 A 
HETATM   18  C   UNL     1       6.981  27.705  54.415  1.00  0.00     0.017 A 
ENDBRANCH   4  14
ENDBRANCH   1   4
BRANCH   1  19
HETATM   19  C   UNL     1       4.926  27.799  51.748  1.00  0.00     0.336 C 
BRANCH  19  20
HETATM   20  C   UNL     1       4.347  27.934  50.337  1.00  0.00     0.248 C 
HETATM   21  N   UNL     1       2.988  28.162  50.284  1.00  0.00    -0.326 N 
HETATM   22  H   UNL     1       2.461  28.182  51.150  1.00  0.00     0.169 HD
HETATM   23  O   UNL     1       5.136  27.874  49.394  1.00  0.00    -0.271 OA
BRANCH  21  24
HETATM   24  C   UNL     1       2.222  28.422  49.121  1.00  0.00     0.037 A 
HETATM   25  C   UNL     1       1.587  27.424  48.370  1.00  0.00     0.061 A 
HETATM   26  C   UNL     1       0.899  27.824  47.245  1.00  0.00     0.065 A 
HETATM   27  C   UNL     1       0.819  29.155  46.851  1.00  0.00     0.063 A 
HETATM   28  N   UNL     1       0.192  27.061  46.323  1.00  0.00    -0.306 N 
HETATM   29  N   UNL     1       0.066  29.213  45.685  1.00  0.00    -0.307 N 
HETATM   30  C   UNL     1       1.421  30.161  47.563  1.00  0.00     0.034 A 
HETATM   31  C   UNL     1      -0.334  27.914  45.341  1.00  0.00     0.325 A 
HETATM   32  H   UNL     1      -0.175  30.029  45.145  1.00  0.00     0.170 HD
HETATM   33  O   UNL     1      -1.003  27.587  44.379  1.00  0.00    -0.247 OA
HETATM   34  C   UNL     1       2.128  29.781  48.713  1.00  0.00     0.032 A 
HETATM   35  H   UNL     1       0.054  26.063  46.320  1.00  0.00     0.170 HD
ENDBRANCH  21  24
ENDBRANCH  19  20
ENDBRANCH   1  19
TORSDOF 8
ENDMDL
MODEL 8
REMARK VINA RESULT:      -8.3      3.375      5.134
REMARK  8 active torsions:
REMARK  status: ('A' for Active; 'I' for Inactive)
REMARK    1  A    between atoms: C_2  and  C_3 
REMARK    2  A    between atoms: C_3  and  C_4 
REMARK    3  A    between atoms: C_7  and  C_8 
REMARK    4  A    between atoms: C_8  and  N_9 
REMARK    5  A    between atoms: C_8  and  C_26 
REMARK    6  A    between atoms: N_9  and  C_12 
REMARK    7  A    between atoms: C_12  and  C_13 
REMARK       I    between atoms: C_13  and  N_14 
REMARK    8  A    between atoms: N_14  and  C_15 
ROOT
HETATM    1  N   UNL     1       6.452  28.831  53.997  1.00  0.00    -0.054 N 
HETATM    2  H   UNL     1       7.015  29.690  54.019  1.00  0.00     0.278 HD
HETATM    3  H   UNL     1       6.625  28.438  53.059  1.00  0.00     0.278 HD
ENDROOT
BRANCH   1   4
HETATM    4  C   UNL     1       6.969  27.906  55.043  1.00  0.00     0.259 C 
BRANCH   4   5
HETATM    5  C   UNL     1       7.301  26.526  54.489  1.00  0.00    -0.023 A 
HETATM    6  C   UNL     1       7.397  25.383  55.302  1.00  0.00     0.010 A 
HETATM    7  C   UNL     1       7.671  24.132  54.747  1.00  0.00     0.007 A 
HETATM    8  C   UNL     1       7.835  23.982  53.366  1.00  0.00    -0.058 A 
HETATM    9  C   UNL     1       7.733  25.111  52.549  1.00  0.00     0.007 A 
HETATM   10  C   UNL     1       7.471  26.368  53.102  1.00  0.00     0.010 A 
BRANCH   8  11
HETATM   11  C   UNL     1       8.083  22.616  52.771  1.00  0.00     0.038 C 
BRANCH  11  12
HETATM   12  C   UNL     1       8.415  21.580  53.847  1.00  0.00     0.000 C 
HETATM   13  C   UNL     1       8.671  20.210  53.242  1.00  0.00     0.005 C 
ENDBRANCH  11  12
ENDBRANCH   8  11
ENDBRANCH   4   5
BRANCH   4  14
HETATM   14  C   UNL     1       8.129  28.512  55.796  1.00  0.00     0.017 A 
HETATM   15  S   UNL     1       9.505  29.116  54.957  1.00  0.00    -0.104 SA
HETATM   16  C   UNL     1      10.274  29.576  56.409  1.00  0.00     0.050 A 
HETATM   17  C   UNL     1       9.507  29.287  57.514  1.00  0.00     0.008 A 
HETATM   18  C   UNL     1       8.269  28.673  57.163  1.00  0.00     0.017 A 
ENDBRANCH   4  14
ENDBRANCH   1   4
BRANCH   1  19
HETATM   19  C   UNL     1       5.001  29.223  54.060  1.00  0.00     0.336 C 
BRANCH  19  20
HETATM   20  C   UNL     1       4.717  29.805  55.448  1.00  0.00     0.248 C 
HETATM   21  N   UNL     1       5.458  30.920  55.776  1.00  0.00    -0.326 N 
HETATM   22  H   UNL     1       6.157  31.254  55.120  1.00  0.00     0.169 HD
HETATM   23  O   UNL     1       3.838  29.264  56.118  1.00  0.00    -0.271 OA
BRANCH  21  24
HETATM   24  C   UNL     1       5.324  31.707  56.946  1.00  0.00     0.037 A 
HETATM   25  C   UNL     1       5.754  31.293  58.214  1.00  0.00     0.061 A 
HETATM   26  C   UNL     1       5.532  32.154  59.266  1.00  0.00     0.065 A 
HETATM   27  C   UNL     1       4.912  33.389  59.104  1.00  0.00     0.063 A 
HETATM   28  N   UNL     1       5.841  32.004  60.613  1.00  0.00    -0.306 N 
HETATM   29  N   UNL     1       4.836  33.998  60.351  1.00  0.00    -0.307 N 
HETATM   30  C   UNL     1       4.484  33.832  57.880  1.00  0.00     0.034 A 
HETATM   31  C   UNL     1       5.412  33.147  61.305  1.00  0.00     0.325 A 
HETATM   32  H   UNL     1       4.443  34.897  60.576  1.00  0.00     0.170 HD
HETATM   33  O   UNL     1       5.519  33.354  62.499  1.00  0.00    -0.247 OA
HETATM   34  C   UNL     1       4.698  32.974  56.791  1.00  0.00     0.032 A 
HETATM   35  H   UNL     1       6.296  31.224  61.061  1.00  0.00     0.170 HD
ENDBRANCH  21  24
ENDBRANCH  19  20
ENDBRANCH   1  19
TORSDOF 8
ENDMDL
MODEL 9
REMARK VINA RESULT:      -8.3      3.171      6.902
REMARK  8 active torsions:
REMARK  status: ('A' for Active; 'I' for Inactive)
REMARK    1  A    between atoms: C_2  and  C_3 
REMARK    2  A    between atoms: C_3  and  C_4 
REMARK    3  A    between atoms: C_7  and  C_8 
REMARK    4  A    between atoms: C_8  and  N_9 
REMARK    5  A    between atoms: C_8  and  C_26 
REMARK    6  A    between atoms: N_9  and  C_12 
REMARK    7  A    between atoms: C_12  and  C_13 
REMARK       I    between atoms: C_13  and  N_14 
REMARK    8  A    between atoms: N_14  and  C_15 
ROOT
HETATM    1  N   UNL     1       6.495  29.179  55.108  1.00  0.00    -0.054 N 
HETATM    2  H   UNL     1       6.811  30.155  55.167  1.00  0.00     0.278 HD
HETATM    3  H   UNL     1       6.817  28.863  54.180  1.00  0.00     0.278 HD
ENDROOT
BRANCH   1   4
HETATM    4  C   UNL     1       7.178  28.401  56.179  1.00  0.00     0.259 C 
BRANCH   4   5
HETATM    5  C   UNL     1       7.426  26.953  55.780  1.00  0.00    -0.023 A 
HETATM    6  C   UNL     1       7.377  26.513  54.446  1.00  0.00     0.010 A 
HETATM    7  C   UNL     1       7.643  25.181  54.121  1.00  0.00     0.007 A 
HETATM    8  C   UNL     1       7.987  24.258  55.114  1.00  0.00    -0.058 A 
HETATM    9  C   UNL     1       8.047  24.688  56.443  1.00  0.00     0.007 A 
HETATM   10  C   UNL     1       7.769  26.018  56.773  1.00  0.00     0.010 A 
BRANCH   8  11
HETATM   11  C   UNL     1       8.320  22.831  54.747  1.00  0.00     0.038 C 
BRANCH  11  12
HETATM   12  C   UNL     1       7.791  22.464  53.359  1.00  0.00     0.000 C 
HETATM   13  C   UNL     1       8.086  21.013  53.017  1.00  0.00     0.005 C 
ENDBRANCH  11  12
ENDBRANCH   8  11
ENDBRANCH   4   5
BRANCH   4  14
HETATM   14  C   UNL     1       8.439  29.088  56.646  1.00  0.00     0.017 A 
HETATM   15  S   UNL     1       8.508  29.843  58.192  1.00  0.00    -0.104 SA
HETATM   16  C   UNL     1      10.126  30.334  57.955  1.00  0.00     0.050 A 
HETATM   17  C   UNL     1      10.614  29.933  56.733  1.00  0.00     0.008 A 
HETATM   18  C   UNL     1       9.643  29.213  55.977  1.00  0.00     0.017 A 
ENDBRANCH   4  14
ENDBRANCH   1   4
BRANCH   1  19
HETATM   19  C   UNL     1       4.992  29.177  55.087  1.00  0.00     0.336 C 
BRANCH  19  20
HETATM   20  C   UNL     1       4.527  29.341  53.638  1.00  0.00     0.248 C 
HETATM   21  N   UNL     1       5.510  29.164  52.687  1.00  0.00    -0.326 N 
HETATM   22  H   UNL     1       6.461  28.987  52.993  1.00  0.00     0.169 HD
HETATM   23  O   UNL     1       3.332  29.566  53.449  1.00  0.00    -0.271 OA
BRANCH  21  24
HETATM   24  C   UNL     1       5.332  29.160  51.282  1.00  0.00     0.037 A 
HETATM   25  C   UNL     1       5.208  30.324  50.512  1.00  0.00     0.061 A 
HETATM   26  C   UNL     1       5.011  30.165  49.157  1.00  0.00     0.065 A 
HETATM   27  C   UNL     1       4.938  28.914  48.554  1.00  0.00     0.063 A 
HETATM   28  N   UNL     1       4.850  31.128  48.168  1.00  0.00    -0.306 N 
HETATM   29  N   UNL     1       4.729  29.105  47.193  1.00  0.00    -0.307 N 
HETATM   30  C   UNL     1       5.062  27.753  49.272  1.00  0.00     0.034 A 
HETATM   31  C   UNL     1       4.671  30.482  46.935  1.00  0.00     0.325 A 
HETATM   32  H   UNL     1       4.629  28.402  46.479  1.00  0.00     0.170 HD
HETATM   33  O   UNL     1       4.498  31.015  45.855  1.00  0.00    -0.247 OA
HETATM   34  C   UNL     1       5.263  27.887  50.654  1.00  0.00     0.032 A 
HETATM   35  H   UNL     1       4.853  32.130  48.271  1.00  0.00     0.170 HD
ENDBRANCH  21  24
ENDBRANCH  19  20
ENDBRANCH   1  19
TORSDOF 8
ENDMDL
MODEL 10
REMARK VINA RESULT:      -8.2      5.080      7.074
REMARK  8 active torsions:
REMARK  status: ('A' for Active; 'I' for Inactive)
REMARK    1  A    between atoms: C_2  and  C_3 
REMARK    2  A    between atoms: C_3  and  C_4 
REMARK    3  A    between atoms: C_7  and  C_8 
REMARK    4  A    between atoms: C_8  and  N_9 
REMARK    5  A    between atoms: C_8  and  C_26 
REMARK    6  A    between atoms: N_9  and  C_12 
REMARK    7  A    between atoms: C_12  and  C_13 
REMARK       I    between atoms: C_13  and  N_14 
REMARK    8  A    between atoms: N_14  and  C_15 
ROOT
HETATM    1  N   UNL     1       6.169  29.994  56.739  1.00  0.00    -0.054 N 
HETATM    2  H   UNL     1       6.681  30.843  56.472  1.00  0.00     0.278 HD
HETATM    3  H   UNL     1       5.861  29.591  55.841  1.00  0.00     0.278 HD
ENDROOT
BRANCH   1   4
HETATM    4  C   UNL     1       7.121  29.069  57.416  1.00  0.00     0.259 C 
BRANCH   4   5
HETATM    5  C   UNL     1       7.062  27.656  56.849  1.00  0.00    -0.023 A 
HETATM    6  C   UNL     1       6.549  27.369  55.572  1.00  0.00     0.010 A 
HETATM    7  C   UNL     1       6.546  26.063  55.080  1.00  0.00     0.007 A 
HETATM    8  C   UNL     1       7.073  25.011  55.837  1.00  0.00    -0.058 A 
HETATM    9  C   UNL     1       7.593  25.288  57.104  1.00  0.00     0.007 A 
HETATM   10  C   UNL     1       7.587  26.593  57.606  1.00  0.00     0.010 A 
BRANCH   8  11
HETATM   11  C   UNL     1       7.108  23.610  55.275  1.00  0.00     0.038 C 
BRANCH  11  12
HETATM   12  C   UNL     1       7.416  23.607  53.776  1.00  0.00     0.000 C 
HETATM   13  C   UNL     1       8.318  22.444  53.395  1.00  0.00     0.005 C 
ENDBRANCH  11  12
ENDBRANCH   8  11
ENDBRANCH   4   5
BRANCH   4  14
HETATM   14  C   UNL     1       8.525  29.623  57.423  1.00  0.00     0.017 A 
HETATM   15  S   UNL     1       8.997  30.810  58.578  1.00  0.00    -0.104 SA
HETATM   16  C   UNL     1      10.581  30.889  57.950  1.00  0.00     0.050 A 
HETATM   17  C   UNL     1      10.761  30.032  56.889  1.00  0.00     0.008 A 
HETATM   18  C   UNL     1       9.575  29.300  56.584  1.00  0.00     0.017 A 
ENDBRANCH   4  14
ENDBRANCH   1   4
BRANCH   1  19
HETATM   19  C   UNL     1       4.937  30.411  57.493  1.00  0.00     0.336 C 
BRANCH  19  20
HETATM   20  C   UNL     1       5.265  31.672  58.296  1.00  0.00     0.248 C 
HETATM   21  N   UNL     1       4.921  31.620  59.630  1.00  0.00    -0.326 N 
HETATM   22  H   UNL     1       4.446  30.795  59.982  1.00  0.00     0.169 HD
HETATM   23  O   UNL     1       5.836  32.587  57.704  1.00  0.00    -0.271 OA
BRANCH  21  24
HETATM   24  C   UNL     1       5.200  32.603  60.612  1.00  0.00     0.037 A 
HETATM   25  C   UNL     1       4.328  33.653  60.930  1.00  0.00     0.061 A 
HETATM   26  C   UNL     1       4.747  34.551  61.888  1.00  0.00     0.065 A 
HETATM   27  C   UNL     1       5.976  34.440  62.530  1.00  0.00     0.063 A 
HETATM   28  N   UNL     1       4.102  35.675  62.388  1.00  0.00    -0.306 N 
HETATM   29  N   UNL     1       6.090  35.499  63.423  1.00  0.00    -0.307 N 
HETATM   30  C   UNL     1       6.853  33.424  62.251  1.00  0.00     0.034 A 
HETATM   31  C   UNL     1       4.928  36.280  63.347  1.00  0.00     0.325 A 
HETATM   32  H   UNL     1       6.859  35.707  64.039  1.00  0.00     0.170 HD
HETATM   33  O   UNL     1       4.683  37.286  63.985  1.00  0.00    -0.247 OA
HETATM   34  C   UNL     1       6.451  32.496  61.279  1.00  0.00     0.032 A 
HETATM   35  H   UNL     1       3.195  36.034  62.134  1.00  0.00     0.170 HD
ENDBRANCH  21  24
ENDBRANCH  19  20
ENDBRANCH   1  19
TORSDOF 8
ENDMDL
