MODEL 1
REMARK VINA RESULT:      -9.1      0.000      0.000
REMARK  2 active torsions:
REMARK  status: ('A' for Active; 'I' for Inactive)
REMARK    1  A    between atoms: C_5  and  C_6 
REMARK       I    between atoms: C_6  and  N_7 
REMARK    2  A    between atoms: N_7  and  C_8 
ROOT
HETATM    1  C   UNL     1       8.630  30.022  58.740  1.00  0.00     0.262 C 
HETATM    2  N   UNL     1       7.549  29.269  58.342  1.00  0.00    -0.306 N 
HETATM    3  O   UNL     1       9.734  30.073  58.203  1.00  0.00    -0.267 OA
HETATM    4  H   UNL     1       6.690  29.333  58.884  1.00  0.00     0.170 HD
ENDROOT
BRANCH   2   5
HETATM    5  C   UNL     1       7.523  28.397  57.276  1.00  0.00     0.152 A 
HETATM    6  N   UNL     1       7.472  28.740  55.990  1.00  0.00    -0.156 NA
HETATM    7  N   UNL     1       7.486  27.576  55.329  1.00  0.00    -0.275 N 
HETATM    8  H   UNL     1       7.458  27.598  54.315  1.00  0.00     0.189 HD
HETATM    9  C   UNL     1       7.550  26.475  56.140  1.00  0.00     0.071 A 
HETATM   10  C   UNL     1       7.603  25.122  55.666  1.00  0.00     0.034 A 
HETATM   11  C   UNL     1       7.560  26.988  57.420  1.00  0.00     0.084 A 
HETATM   12  S   UNL     1       7.598  24.742  53.988  1.00  0.00    -0.076 SA
HETATM   13  C   UNL     1       7.672  23.971  56.432  1.00  0.00     0.023 A 
HETATM   14  C   UNL     1       7.694  23.085  54.304  1.00  0.00     0.075 A 
HETATM   15 CL   UNL     1       7.742  21.969  53.000  1.00  0.00    -0.076 Cl
HETATM   16  C   UNL     1       7.726  22.784  55.639  1.00  0.00     0.033 A 
ENDBRANCH   2   5
BRANCH   1  17
HETATM   17  C   UNL     1       8.374  30.831  59.970  1.00  0.00     0.097 A 
HETATM   18  C   UNL     1       8.965  30.479  61.125  1.00  0.00     0.109 A 
HETATM   19  N   UNL     1       8.785  31.148  62.310  1.00  0.00    -0.368 N 
HETATM   20  C   UNL     1       7.970  32.253  62.414  1.00  0.00     0.008 A 
HETATM   21  H   UNL     1       9.264  30.806  63.140  1.00  0.00     0.165 HD
HETATM   22  C   UNL     1       7.842  32.902  63.762  1.00  0.00     0.068 C 
HETATM   23  C   UNL     1       7.316  32.723  61.337  1.00  0.00     0.080 A 
HETATM   24  C   UNL     1       7.482  32.025  60.032  1.00  0.00     0.190 A 
HETATM   25  O   UNL     1       6.882  32.435  59.039  1.00  0.00    -0.287 OA
ENDBRANCH   1  17
TORSDOF 2
ENDMDL
MODEL 2
REMARK VINA RESULT:      -8.3      4.559      9.067
REMARK  2 active torsions:
REMARK  status: ('A' for Active; 'I' for Inactive)
REMARK    1  A    between atoms: C_5  and  C_6 
REMARK       I    between atoms: C_6  and  N_7 
REMARK    2  A    between atoms: N_7  and  C_8 
ROOT
HETATM    1  C   UNL     1       6.568  25.275  55.875  1.00  0.00     0.262 C 
HETATM    2  N   UNL     1       7.163  26.483  55.591  1.00  0.00    -0.306 N 
HETATM    3  O   UNL     1       5.720  25.053  56.735  1.00  0.00    -0.267 OA
HETATM    4  H   UNL     1       7.850  26.519  54.841  1.00  0.00     0.170 HD
ENDROOT
BRANCH   2   5
HETATM    5  C   UNL     1       6.937  27.669  56.254  1.00  0.00     0.152 A 
HETATM    6  N   UNL     1       5.931  28.510  56.025  1.00  0.00    -0.156 NA
HETATM    7  N   UNL     1       6.107  29.498  56.912  1.00  0.00    -0.275 N 
HETATM    8  H   UNL     1       5.440  30.261  56.920  1.00  0.00     0.189 HD
HETATM    9  C   UNL     1       7.196  29.330  57.724  1.00  0.00     0.071 A 
HETATM   10  C   UNL     1       7.576  30.239  58.767  1.00  0.00     0.034 A 
HETATM   11  C   UNL     1       7.764  28.146  57.302  1.00  0.00     0.084 A 
HETATM   12  S   UNL     1       6.672  31.661  59.113  1.00  0.00    -0.076 SA
HETATM   13  C   UNL     1       8.660  30.124  59.621  1.00  0.00     0.023 A 
HETATM   14  C   UNL     1       7.713  32.087  60.373  1.00  0.00     0.075 A 
HETATM   15 CL   UNL     1       7.421  33.518  61.276  1.00  0.00    -0.076 Cl
HETATM   16  C   UNL     1       8.739  31.200  60.557  1.00  0.00     0.033 A 
ENDBRANCH   2   5
BRANCH   1  17
HETATM   17  C   UNL     1       7.060  24.151  55.021  1.00  0.00     0.097 A 
HETATM   18  C   UNL     1       7.335  22.964  55.588  1.00  0.00     0.109 A 
HETATM   19  N   UNL     1       7.802  21.877  54.893  1.00  0.00    -0.368 N 
HETATM   20  C   UNL     1       8.031  21.913  53.536  1.00  0.00     0.008 A 
HETATM   21  H   UNL     1       7.993  21.018  55.405  1.00  0.00     0.165 HD
HETATM   22  C   UNL     1       8.548  20.665  52.881  1.00  0.00     0.068 C 
HETATM   23  C   UNL     1       7.796  23.036  52.834  1.00  0.00     0.080 A 
HETATM   24  C   UNL     1       7.291  24.241  53.549  1.00  0.00     0.190 A 
HETATM   25  O   UNL     1       7.082  25.280  52.925  1.00  0.00    -0.287 OA
ENDBRANCH   1  17
TORSDOF 2
ENDMDL
MODEL 3
REMARK VINA RESULT:      -8.2      1.529      1.927
REMARK  2 active torsions:
REMARK  status: ('A' for Active; 'I' for Inactive)
REMARK    1  A    between atoms: C_5  and  C_6 
REMARK       I    between atoms: C_6  and  N_7 
REMARK    2  A    between atoms: N_7  and  C_8 
ROOT
HETATM    1  C   UNL     1       7.426  29.245  57.153  1.00  0.00     0.262 C 
HETATM    2  N   UNL     1       6.943  27.986  57.423  1.00  0.00    -0.306 N 
HETATM    3  O   UNL     1       7.844  29.661  56.075  1.00  0.00    -0.267 OA
HETATM    4  H   UNL     1       6.623  27.783  58.368  1.00  0.00     0.170 HD
ENDROOT
BRANCH   2   5
HETATM    5  C   UNL     1       6.873  26.940  56.530  1.00  0.00     0.152 A 
HETATM    6  N   UNL     1       6.029  26.847  55.504  1.00  0.00    -0.156 NA
HETATM    7  N   UNL     1       6.341  25.686  54.913  1.00  0.00    -0.275 N 
HETATM    8  H   UNL     1       5.817  25.408  54.091  1.00  0.00     0.189 HD
HETATM    9  C   UNL     1       7.370  25.013  55.516  1.00  0.00     0.071 A 
HETATM   10  C   UNL     1       7.900  23.763  55.053  1.00  0.00     0.034 A 
HETATM   11  C   UNL     1       7.725  25.808  56.586  1.00  0.00     0.084 A 
HETATM   12  S   UNL     1       7.285  22.971  53.656  1.00  0.00    -0.076 SA
HETATM   13  C   UNL     1       8.937  23.037  55.615  1.00  0.00     0.023 A 
HETATM   14  C   UNL     1       8.392  21.705  53.814  1.00  0.00     0.075 A 
HETATM   15 CL   UNL     1       8.389  20.421  52.674  1.00  0.00    -0.076 Cl
HETATM   16  C   UNL     1       9.224  21.839  54.892  1.00  0.00     0.033 A 
ENDBRANCH   2   5
BRANCH   1  17
HETATM   17  C   UNL     1       7.431  30.151  58.342  1.00  0.00     0.097 A 
HETATM   18  C   UNL     1       8.283  29.907  59.353  1.00  0.00     0.109 A 
HETATM   19  N   UNL     1       8.355  30.671  60.491  1.00  0.00    -0.368 N 
HETATM   20  C   UNL     1       7.548  31.768  60.693  1.00  0.00     0.008 A 
HETATM   21  H   UNL     1       9.024  30.409  61.211  1.00  0.00     0.165 HD
HETATM   22  C   UNL     1       7.710  32.526  61.979  1.00  0.00     0.068 C 
HETATM   23  C   UNL     1       6.649  32.135  59.763  1.00  0.00     0.080 A 
HETATM   24  C   UNL     1       6.535  31.332  58.514  1.00  0.00     0.190 A 
HETATM   25  O   UNL     1       5.709  31.646  57.658  1.00  0.00    -0.287 OA
ENDBRANCH   1  17
TORSDOF 2
ENDMDL
MODEL 4
REMARK VINA RESULT:      -8.1      4.906      9.105
REMARK  2 active torsions:
REMARK  status: ('A' for Active; 'I' for Inactive)
REMARK    1  A    between atoms: C_5  and  C_6 
REMARK       I    between atoms: C_6  and  N_7 
REMARK    2  A    between atoms: N_7  and  C_8 
ROOT
HETATM    1  C   UNL     1       6.928  25.051  56.210  1.00  0.00     0.262 C 
HETATM    2  N   UNL     1       7.583  26.240  55.986  1.00  0.00    -0.306 N 
HETATM    3  O   UNL     1       6.091  24.820  57.078  1.00  0.00    -0.267 OA
HETATM    4  H   UNL     1       8.252  26.286  55.220  1.00  0.00     0.170 HD
ENDROOT
BRANCH   2   5
HETATM    5  C   UNL     1       7.442  27.391  56.730  1.00  0.00     0.152 A 
HETATM    6  N   UNL     1       8.339  27.881  57.583  1.00  0.00    -0.156 NA
HETATM    7  N   UNL     1       7.783  29.008  58.047  1.00  0.00    -0.275 N 
HETATM    8  H   UNL     1       8.303  29.558  58.722  1.00  0.00     0.189 HD
HETATM    9  C   UNL     1       6.549  29.278  57.520  1.00  0.00     0.071 A 
HETATM   10  C   UNL     1       5.768  30.438  57.841  1.00  0.00     0.034 A 
HETATM   11  C   UNL     1       6.298  28.225  56.665  1.00  0.00     0.084 A 
HETATM   12  S   UNL     1       6.324  31.637  58.943  1.00  0.00    -0.076 SA
HETATM   13  C   UNL     1       4.520  30.769  57.342  1.00  0.00     0.023 A 
HETATM   14  C   UNL     1       4.926  32.561  58.734  1.00  0.00     0.075 A 
HETATM   15 CL   UNL     1       4.746  34.042  59.585  1.00  0.00    -0.076 Cl
HETATM   16  C   UNL     1       4.030  32.006  57.861  1.00  0.00     0.033 A 
ENDBRANCH   2   5
BRANCH   1  17
HETATM   17  C   UNL     1       7.333  23.960  55.272  1.00  0.00     0.097 A 
HETATM   18  C   UNL     1       7.403  22.695  55.723  1.00  0.00     0.109 A 
HETATM   19  N   UNL     1       7.776  21.627  54.946  1.00  0.00    -0.368 N 
HETATM   20  C   UNL     1       8.115  21.766  53.618  1.00  0.00     0.008 A 
HETATM   21  H   UNL     1       7.811  20.704  55.372  1.00  0.00     0.165 HD
HETATM   22  C   UNL     1       8.513  20.529  52.866  1.00  0.00     0.068 C 
HETATM   23  C   UNL     1       8.086  22.975  53.029  1.00  0.00     0.080 A 
HETATM   24  C   UNL     1       7.690  24.161  53.837  1.00  0.00     0.190 A 
HETATM   25  O   UNL     1       7.670  25.276  53.318  1.00  0.00    -0.287 OA
ENDBRANCH   1  17
TORSDOF 2
ENDMDL
MODEL 5
REMARK VINA RESULT:      -8.0      7.345      9.153
REMARK  2 active torsions:
REMARK  status: ('A' for Active; 'I' for Inactive)
REMARK    1  A    between atoms: C_5  and  C_6 
REMARK       I    between atoms: C_6  and  N_7 
REMARK    2  A    between atoms: N_7  and  C_8 
ROOT
HETATM    1  C   UNL     1       4.781  27.787  51.457  1.00  0.00     0.262 C 
HETATM    2  N   UNL     1       4.420  26.550  51.940  1.00  0.00    -0.306 N 
HETATM    3  O   UNL     1       5.793  28.423  51.737  1.00  0.00    -0.267 OA
HETATM    4  H   UNL     1       3.549  26.139  51.612  1.00  0.00     0.170 HD
ENDROOT
BRANCH   2   5
HETATM    5  C   UNL     1       5.122  25.809  52.865  1.00  0.00     0.152 A 
HETATM    6  N   UNL     1       5.138  26.019  54.179  1.00  0.00    -0.156 NA
HETATM    7  N   UNL     1       5.927  25.052  54.666  1.00  0.00    -0.275 N 
HETATM    8  H   UNL     1       6.082  25.017  55.668  1.00  0.00     0.189 HD
HETATM    9  C   UNL     1       6.427  24.208  53.712  1.00  0.00     0.071 A 
HETATM   10  C   UNL     1       7.272  23.082  53.990  1.00  0.00     0.034 A 
HETATM   11  C   UNL     1       5.924  24.692  52.522  1.00  0.00     0.084 A 
HETATM   12  S   UNL     1       7.748  22.671  55.591  1.00  0.00    -0.076 SA
HETATM   13  C   UNL     1       7.805  22.192  53.073  1.00  0.00     0.023 A 
HETATM   14  C   UNL     1       8.630  21.336  55.049  1.00  0.00     0.075 A 
HETATM   15 CL   UNL     1       9.455  20.342  56.179  1.00  0.00    -0.076 Cl
HETATM   16  C   UNL     1       8.594  21.174  53.690  1.00  0.00     0.033 A 
ENDBRANCH   2   5
BRANCH   1  17
HETATM   17  C   UNL     1       3.786  28.371  50.506  1.00  0.00     0.097 A 
HETATM   18  C   UNL     1       3.180  29.530  50.815  1.00  0.00     0.109 A 
HETATM   19  N   UNL     1       2.245  30.140  50.017  1.00  0.00    -0.368 N 
HETATM   20  C   UNL     1       1.845  29.605  48.812  1.00  0.00     0.008 A 
HETATM   21  H   UNL     1       1.829  31.013  50.333  1.00  0.00     0.165 HD
HETATM   22  C   UNL     1       0.811  30.355  48.024  1.00  0.00     0.068 C 
HETATM   23  C   UNL     1       2.371  28.448  48.371  1.00  0.00     0.080 A 
HETATM   24  C   UNL     1       3.386  27.752  49.209  1.00  0.00     0.190 A 
HETATM   25  O   UNL     1       3.869  26.686  48.826  1.00  0.00    -0.287 OA
ENDBRANCH   1  17
TORSDOF 2
ENDMDL
MODEL 6
REMARK VINA RESULT:      -8.0      7.735      9.674
REMARK  2 active torsions:
REMARK  status: ('A' for Active; 'I' for Inactive)
REMARK    1  A    between atoms: C_5  and  C_6 
REMARK       I    between atoms: C_6  and  N_7 
REMARK    2  A    between atoms: N_7  and  C_8 
ROOT
HETATM    1  C   UNL     1       7.441  24.789  52.642  1.00  0.00     0.262 C 
HETATM    2  N   UNL     1       6.156  25.280  52.669  1.00  0.00    -0.306 N 
HETATM    3  O   UNL     1       8.375  25.196  51.956  1.00  0.00    -0.267 OA
HETATM    4  H   UNL     1       5.485  24.843  53.296  1.00  0.00     0.170 HD
ENDROOT
BRANCH   2   5
HETATM    5  C   UNL     1       5.669  26.307  51.891  1.00  0.00     0.152 A 
HETATM    6  N   UNL     1       5.894  27.605  52.087  1.00  0.00    -0.156 NA
HETATM    7  N   UNL     1       5.248  28.215  51.085  1.00  0.00    -0.275 N 
HETATM    8  H   UNL     1       5.287  29.227  51.032  1.00  0.00     0.189 HD
HETATM    9  C   UNL     1       4.607  27.357  50.231  1.00  0.00     0.071 A 
HETATM   10  C   UNL     1       3.871  27.770  49.071  1.00  0.00     0.034 A 
HETATM   11  C   UNL     1       4.857  26.103  50.748  1.00  0.00     0.084 A 
HETATM   12  S   UNL     1       3.723  29.424  48.624  1.00  0.00    -0.076 SA
HETATM   13  C   UNL     1       3.208  26.954  48.170  1.00  0.00     0.023 A 
HETATM   14  C   UNL     1       2.803  29.035  47.262  1.00  0.00     0.075 A 
HETATM   15 CL   UNL     1       2.244  30.283  46.224  1.00  0.00    -0.076 Cl
HETATM   16  C   UNL     1       2.587  27.691  47.116  1.00  0.00     0.033 A 
ENDBRANCH   2   5
BRANCH   1  17
HETATM   17  C   UNL     1       7.656  23.628  53.559  1.00  0.00     0.097 A 
HETATM   18  C   UNL     1       8.099  22.463  53.054  1.00  0.00     0.109 A 
HETATM   19  N   UNL     1       8.316  21.338  53.809  1.00  0.00    -0.368 N 
HETATM   20  C   UNL     1       8.093  21.308  55.168  1.00  0.00     0.008 A 
HETATM   21  H   UNL     1       8.644  20.494  53.343  1.00  0.00     0.165 HD
HETATM   22  C   UNL     1       8.358  20.020  55.891  1.00  0.00     0.068 C 
HETATM   23  C   UNL     1       7.652  22.404  55.811  1.00  0.00     0.080 A 
HETATM   24  C   UNL     1       7.401  23.647  55.029  1.00  0.00     0.190 A 
HETATM   25  O   UNL     1       6.986  24.655  55.599  1.00  0.00    -0.287 OA
ENDBRANCH   1  17
TORSDOF 2
ENDMDL
MODEL 7
REMARK VINA RESULT:      -8.0      5.762      9.700
REMARK  2 active torsions:
REMARK  status: ('A' for Active; 'I' for Inactive)
REMARK    1  A    between atoms: C_5  and  C_6 
REMARK       I    between atoms: C_6  and  N_7 
REMARK    2  A    between atoms: N_7  and  C_8 
ROOT
HETATM    1  C   UNL     1       7.258  31.356  59.042  1.00  0.00     0.262 C 
HETATM    2  N   UNL     1       7.724  30.829  60.225  1.00  0.00    -0.306 N 
HETATM    3  O   UNL     1       6.775  32.472  58.869  1.00  0.00    -0.267 OA
HETATM    4  H   UNL     1       8.105  29.886  60.217  1.00  0.00     0.170 HD
ENDROOT
BRANCH   2   5
HETATM    5  C   UNL     1       7.698  31.455  61.452  1.00  0.00     0.152 A 
HETATM    6  N   UNL     1       8.760  31.744  62.201  1.00  0.00    -0.156 NA
HETATM    7  N   UNL     1       8.256  32.361  63.278  1.00  0.00    -0.275 N 
HETATM    8  H   UNL     1       8.899  32.679  63.995  1.00  0.00     0.189 HD
HETATM    9  C   UNL     1       6.894  32.493  63.258  1.00  0.00     0.071 A 
HETATM   10  C   UNL     1       6.128  33.140  64.284  1.00  0.00     0.034 A 
HETATM   11  C   UNL     1       6.504  31.894  62.078  1.00  0.00     0.084 A 
HETATM   12  S   UNL     1       6.867  33.837  65.672  1.00  0.00    -0.076 SA
HETATM   13  C   UNL     1       4.754  33.308  64.320  1.00  0.00     0.023 A 
HETATM   14  C   UNL     1       5.377  34.348  66.281  1.00  0.00     0.075 A 
HETATM   15 CL   UNL     1       5.310  35.201  67.770  1.00  0.00    -0.076 Cl
HETATM   16  C   UNL     1       4.317  34.013  65.483  1.00  0.00     0.033 A 
ENDBRANCH   2   5
BRANCH   1  17
HETATM   17  C   UNL     1       7.366  30.415  57.886  1.00  0.00     0.097 A 
HETATM   18  C   UNL     1       6.270  30.133  57.160  1.00  0.00     0.109 A 
HETATM   19  N   UNL     1       6.263  29.275  56.090  1.00  0.00    -0.368 N 
HETATM   20  C   UNL     1       7.397  28.619  55.664  1.00  0.00     0.008 A 
HETATM   21  H   UNL     1       5.385  29.112  55.602  1.00  0.00     0.165 HD
HETATM   22  C   UNL     1       7.270  27.698  54.486  1.00  0.00     0.068 C 
HETATM   23  C   UNL     1       8.571  28.808  56.294  1.00  0.00     0.080 A 
HETATM   24  C   UNL     1       8.622  29.729  57.462  1.00  0.00     0.190 A 
HETATM   25  O   UNL     1       9.685  29.904  58.057  1.00  0.00    -0.287 OA
ENDBRANCH   1  17
TORSDOF 2
ENDMDL
MODEL 8
REMARK VINA RESULT:      -7.9      4.842      9.138
REMARK  2 active torsions:
REMARK  status: ('A' for Active; 'I' for Inactive)
REMARK    1  A    between atoms: C_5  and  C_6 
REMARK       I    between atoms: C_6  and  N_7 
REMARK    2  A    between atoms: N_7  and  C_8 
ROOT
HETATM    1  C   UNL     1       7.246  25.826  54.627  1.00  0.00     0.262 C 
HETATM    2  N   UNL     1       6.506  25.943  55.782  1.00  0.00    -0.306 N 
HETATM    3  O   UNL     1       7.539  26.724  53.843  1.00  0.00    -0.267 OA
HETATM    4  H   UNL     1       6.347  25.107  56.340  1.00  0.00     0.170 HD
ENDROOT
BRANCH   2   5
HETATM    5  C   UNL     1       5.923  27.099  56.252  1.00  0.00     0.152 A 
HETATM    6  N   UNL     1       4.634  27.416  56.154  1.00  0.00    -0.156 NA
HETATM    7  N   UNL     1       4.531  28.604  56.763  1.00  0.00    -0.275 N 
HETATM    8  H   UNL     1       3.618  29.042  56.812  1.00  0.00     0.189 HD
HETATM    9  C   UNL     1       5.713  29.078  57.265  1.00  0.00     0.071 A 
HETATM   10  C   UNL     1       5.852  30.314  57.980  1.00  0.00     0.034 A 
HETATM   11  C   UNL     1       6.642  28.115  56.929  1.00  0.00     0.084 A 
HETATM   12  S   UNL     1       4.510  31.345  58.291  1.00  0.00    -0.076 SA
HETATM   13  C   UNL     1       7.015  30.844  58.513  1.00  0.00     0.023 A 
HETATM   14  C   UNL     1       5.479  32.452  59.120  1.00  0.00     0.075 A 
HETATM   15 CL   UNL     1       4.775  33.868  59.789  1.00  0.00    -0.076 Cl
HETATM   16  C   UNL     1       6.797  32.089  59.178  1.00  0.00     0.033 A 
ENDBRANCH   2   5
BRANCH   1  17
HETATM   17  C   UNL     1       7.699  24.429  54.347  1.00  0.00     0.097 A 
HETATM   18  C   UNL     1       7.334  23.836  53.197  1.00  0.00     0.109 A 
HETATM   19  N   UNL     1       7.688  22.555  52.854  1.00  0.00    -0.368 N 
HETATM   20  C   UNL     1       8.458  21.759  53.672  1.00  0.00     0.008 A 
HETATM   21  H   UNL     1       7.359  22.181  51.966  1.00  0.00     0.165 HD
HETATM   22  C   UNL     1       8.778  20.372  53.197  1.00  0.00     0.068 C 
HETATM   23  C   UNL     1       8.900  22.223  54.855  1.00  0.00     0.080 A 
HETATM   24  C   UNL     1       8.536  23.607  55.268  1.00  0.00     0.190 A 
HETATM   25  O   UNL     1       8.922  24.042  56.353  1.00  0.00    -0.287 OA
ENDBRANCH   1  17
TORSDOF 2
ENDMDL
MODEL 9
REMARK VINA RESULT:      -7.7      7.433      9.714
REMARK  2 active torsions:
REMARK  status: ('A' for Active; 'I' for Inactive)
REMARK    1  A    between atoms: C_5  and  C_6 
REMARK       I    between atoms: C_6  and  N_7 
REMARK    2  A    between atoms: N_7  and  C_8 
ROOT
HETATM    1  C   UNL     1       4.633  27.036  49.920  1.00  0.00     0.262 C 
HETATM    2  N   UNL     1       5.158  27.465  51.117  1.00  0.00    -0.306 N 
HETATM    3  O   UNL     1       4.390  25.878  49.591  1.00  0.00    -0.267 OA
HETATM    4  H   UNL     1       5.301  28.463  51.253  1.00  0.00     0.170 HD
ENDROOT
BRANCH   2   5
HETATM    5  C   UNL     1       5.547  26.656  52.163  1.00  0.00     0.152 A 
HETATM    6  N   UNL     1       5.206  26.817  53.440  1.00  0.00    -0.156 NA
HETATM    7  N   UNL     1       5.791  25.794  54.077  1.00  0.00    -0.275 N 
HETATM    8  H   UNL     1       5.659  25.714  55.079  1.00  0.00     0.189 HD
HETATM    9  C   UNL     1       6.502  24.961  53.257  1.00  0.00     0.071 A 
HETATM   10  C   UNL     1       7.193  23.785  53.702  1.00  0.00     0.034 A 
HETATM   11  C   UNL     1       6.369  25.513  52.000  1.00  0.00     0.084 A 
HETATM   12  S   UNL     1       7.189  23.291  55.350  1.00  0.00    -0.076 SA
HETATM   13  C   UNL     1       7.925  22.902  52.925  1.00  0.00     0.023 A 
HETATM   14  C   UNL     1       8.135  21.934  55.007  1.00  0.00     0.075 A 
HETATM   15 CL   UNL     1       8.575  20.859  56.271  1.00  0.00    -0.076 Cl
HETATM   16  C   UNL     1       8.472  21.824  53.685  1.00  0.00     0.033 A 
ENDBRANCH   2   5
BRANCH   1  17
HETATM   17  C   UNL     1       4.363  28.146  48.955  1.00  0.00     0.097 A 
HETATM   18  C   UNL     1       3.346  28.029  48.084  1.00  0.00     0.109 A 
HETATM   19  N   UNL     1       3.025  28.983  47.152  1.00  0.00    -0.368 N 
HETATM   20  C   UNL     1       3.731  30.159  47.030  1.00  0.00     0.008 A 
HETATM   21  H   UNL     1       2.243  28.809  46.525  1.00  0.00     0.165 HD
HETATM   22  C   UNL     1       3.295  31.129  45.971  1.00  0.00     0.068 C 
HETATM   23  C   UNL     1       4.775  30.416  47.839  1.00  0.00     0.080 A 
HETATM   24  C   UNL     1       5.159  29.404  48.863  1.00  0.00     0.190 A 
HETATM   25  O   UNL     1       6.118  29.617  49.603  1.00  0.00    -0.287 OA
ENDBRANCH   1  17
TORSDOF 2
ENDMDL
MODEL 10
REMARK VINA RESULT:      -7.6      6.065      9.322
REMARK  2 active torsions:
REMARK  status: ('A' for Active; 'I' for Inactive)
REMARK    1  A    between atoms: C_5  and  C_6 
REMARK       I    between atoms: C_6  and  N_7 
REMARK    2  A    between atoms: N_7  and  C_8 
ROOT
HETATM    1  C   UNL     1       7.046  25.815  54.639  1.00  0.00     0.262 C 
HETATM    2  N   UNL     1       5.919  25.940  55.418  1.00  0.00    -0.306 N 
HETATM    3  O   UNL     1       7.754  26.723  54.212  1.00  0.00    -0.267 OA
HETATM    4  H   UNL     1       5.433  25.093  55.704  1.00  0.00     0.170 HD
ENDROOT
BRANCH   2   5
HETATM    5  C   UNL     1       5.354  27.125  55.834  1.00  0.00     0.152 A 
HETATM    6  N   UNL     1       5.308  27.568  57.089  1.00  0.00    -0.156 NA
HETATM    7  N   UNL     1       4.693  28.755  57.007  1.00  0.00    -0.275 N 
HETATM    8  H   UNL     1       4.551  29.283  57.861  1.00  0.00     0.189 HD
HETATM    9  C   UNL     1       4.337  29.111  55.734  1.00  0.00     0.071 A 
HETATM   10  C   UNL     1       3.693  30.345  55.389  1.00  0.00     0.034 A 
HETATM   11  C   UNL     1       4.747  28.053  54.950  1.00  0.00     0.084 A 
HETATM   12  S   UNL     1       3.299  31.531  56.572  1.00  0.00    -0.076 SA
HETATM   13  C   UNL     1       3.312  30.764  54.126  1.00  0.00     0.023 A 
HETATM   14  C   UNL     1       2.650  32.565  55.404  1.00  0.00     0.075 A 
HETATM   15 CL   UNL     1       2.006  34.086  55.873  1.00  0.00    -0.076 Cl
HETATM   16  C   UNL     1       2.706  32.057  54.134  1.00  0.00     0.033 A 
ENDBRANCH   2   5
BRANCH   1  17
HETATM   17  C   UNL     1       7.383  24.399  54.299  1.00  0.00     0.097 A 
HETATM   18  C   UNL     1       7.535  24.049  53.010  1.00  0.00     0.109 A 
HETATM   19  N   UNL     1       7.832  22.775  52.595  1.00  0.00    -0.368 N 
HETATM   20  C   UNL     1       8.001  21.733  53.480  1.00  0.00     0.008 A 
HETATM   21  H   UNL     1       7.921  22.596  51.597  1.00  0.00     0.165 HD
HETATM   22  C   UNL     1       8.317  20.380  52.913  1.00  0.00     0.068 C 
HETATM   23  C   UNL     1       7.882  21.936  54.804  1.00  0.00     0.080 A 
HETATM   24  C   UNL     1       7.557  23.303  55.297  1.00  0.00     0.190 A 
HETATM   25  O   UNL     1       7.433  23.505  56.505  1.00  0.00    -0.287 OA
ENDBRANCH   1  17
TORSDOF 2
ENDMDL
