MODEL 1
REMARK VINA RESULT:      -8.6      0.000      0.000
REMARK  9 active torsions:
REMARK  status: ('A' for Active; 'I' for Inactive)
REMARK    1  A    between atoms: C_2  and  N_3 
REMARK    2  A    between atoms: N_3  and  C_5 
REMARK    3  A    between atoms: N_3  and  C_29 
REMARK    4  A    between atoms: C_5  and  C_6 
REMARK    5  A    between atoms: N_7  and  C_8 
REMARK    6  A    between atoms: C_12  and  N_13 
REMARK    7  A    between atoms: C_16  and  C_17 
REMARK       I    between atoms: C_17  and  N_18 
REMARK    8  A    between atoms: N_18  and  N_19 
REMARK    9  A    between atoms: C_20  and  C_21 
ROOT
HETATM    1  C   UNL     1       5.180  32.506  60.749  1.00  0.00     0.096 A 
HETATM    2  N   UNL     1       4.124  32.898  61.568  1.00  0.00    -0.215 N 
HETATM    3  N   UNL     1       2.984  32.918  60.829  1.00  0.00     0.012 NA
HETATM    4  N   UNL     1       3.243  32.468  59.612  1.00  0.00    -0.152 NA
HETATM    5  C   UNL     1       4.578  32.201  59.536  1.00  0.00     0.170 A 
ENDROOT
BRANCH   5   6
HETATM    6  C   UNL     1       5.237  31.672  58.348  1.00  0.00     0.293 C 
HETATM    7  N   UNL     1       5.081  30.311  58.172  1.00  0.00    -0.242 N 
HETATM    8  H   UNL     1       4.544  29.761  58.837  1.00  0.00     0.192 HD
HETATM    9  O   UNL     1       5.881  32.423  57.619  1.00  0.00    -0.264 OA
BRANCH   7  10
HETATM   10  N   UNL     1       5.621  29.720  57.071  1.00  0.00    -0.184 NA
HETATM   11  C   UNL     1       5.900  28.460  57.171  1.00  0.00     0.150 C 
BRANCH  11  12
HETATM   12  C   UNL     1       6.463  27.711  56.030  1.00  0.00    -0.016 A 
HETATM   13  C   UNL     1       6.671  26.331  56.120  1.00  0.00     0.031 A 
HETATM   14  C   UNL     1       7.216  25.647  55.034  1.00  0.00     0.007 A 
HETATM   15  I   UNL     1       7.540  23.597  55.164  1.00  0.00    -0.045 I 
HETATM   16  C   UNL     1       7.548  26.329  53.863  1.00  0.00     0.018 A 
HETATM   17  C   UNL     1       7.335  27.707  53.778  1.00  0.00     0.002 A 
HETATM   18  C   UNL     1       6.794  28.402  54.861  1.00  0.00     0.013 A 
ENDBRANCH  11  12
ENDBRANCH   7  10
ENDBRANCH   5   6
BRANCH   1  19
HETATM   19  C   UNL     1       6.618  32.534  61.115  1.00  0.00     0.296 C 
BRANCH  19  20
HETATM   20  N   UNL     1       7.287  31.182  61.305  1.00  0.00    -0.066 N 
HETATM   21  H   UNL     1       6.528  30.491  61.393  1.00  0.00     0.280 HD
BRANCH  20  22
HETATM   22  C   UNL     1       8.084  31.150  62.604  1.00  0.00     0.231 C 
HETATM   23  C   UNL     1       8.147  32.522  63.249  1.00  0.00     0.034 C 
ENDBRANCH  20  22
BRANCH  20  24
HETATM   24  C   UNL     1       8.157  30.792  60.118  1.00  0.00     0.231 C 
HETATM   25  C   UNL     1       9.018  31.961  59.666  1.00  0.00     0.034 C 
ENDBRANCH  20  24
ENDBRANCH  19  20
ENDBRANCH   1  19
BRANCH   2  26
HETATM   26  C   UNL     1       4.141  33.185  62.952  1.00  0.00     0.225 A 
HETATM   27  N   UNL     1       4.789  32.373  63.793  1.00  0.00    -0.081 NA
HETATM   28  O   UNL     1       4.572  32.957  65.046  1.00  0.00    -0.103 OA
HETATM   29  N   UNL     1       3.778  34.088  64.942  1.00  0.00    -0.083 NA
HETATM   30  C   UNL     1       3.506  34.230  63.646  1.00  0.00     0.201 A 
BRANCH  30  31
HETATM   31  N   UNL     1       2.762  35.218  63.127  1.00  0.00    -0.379 N 
HETATM   32  H   UNL     1       3.206  36.016  62.681  1.00  0.00     0.158 HD
HETATM   33  H   UNL     1       1.762  35.323  63.289  1.00  0.00     0.158 HD
ENDBRANCH  30  31
ENDBRANCH   2  26
TORSDOF 9
ENDMDL
MODEL 2
REMARK VINA RESULT:      -8.3      1.810      2.259
REMARK  9 active torsions:
REMARK  status: ('A' for Active; 'I' for Inactive)
REMARK    1  A    between atoms: C_2  and  N_3 
REMARK    2  A    between atoms: N_3  and  C_5 
REMARK    3  A    between atoms: N_3  and  C_29 
REMARK    4  A    between atoms: C_5  and  C_6 
REMARK    5  A    between atoms: N_7  and  C_8 
REMARK    6  A    between atoms: C_12  and  N_13 
REMARK    7  A    between atoms: C_16  and  C_17 
REMARK       I    between atoms: C_17  and  N_18 
REMARK    8  A    between atoms: N_18  and  N_19 
REMARK    9  A    between atoms: C_20  and  C_21 
ROOT
HETATM    1  C   UNL     1       5.321  31.722  59.258  1.00  0.00     0.096 A 
HETATM    2  N   UNL     1       4.397  32.310  60.118  1.00  0.00    -0.215 N 
HETATM    3  N   UNL     1       3.146  32.079  59.638  1.00  0.00     0.012 NA
HETATM    4  N   UNL     1       3.223  31.296  58.574  1.00  0.00    -0.152 NA
HETATM    5  C   UNL     1       4.542  31.055  58.321  1.00  0.00     0.170 A 
ENDROOT
BRANCH   5   6
HETATM    6  C   UNL     1       5.022  30.217  57.230  1.00  0.00     0.293 C 
HETATM    7  N   UNL     1       4.863  28.862  57.445  1.00  0.00    -0.242 N 
HETATM    8  H   UNL     1       4.441  28.519  58.304  1.00  0.00     0.192 HD
HETATM    9  O   UNL     1       5.537  30.734  56.242  1.00  0.00    -0.264 OA
BRANCH   7  10
HETATM   10  N   UNL     1       5.240  27.989  56.470  1.00  0.00    -0.184 NA
HETATM   11  C   UNL     1       5.543  26.791  56.855  1.00  0.00     0.150 C 
BRANCH  11  12
HETATM   12  C   UNL     1       5.939  25.755  55.880  1.00  0.00    -0.016 A 
HETATM   13  C   UNL     1       6.754  24.687  56.271  1.00  0.00     0.031 A 
HETATM   14  C   UNL     1       7.125  23.728  55.330  1.00  0.00     0.007 A 
HETATM   15  I   UNL     1       8.347  22.144  55.899  1.00  0.00    -0.045 I 
HETATM   16  C   UNL     1       6.686  23.825  54.010  1.00  0.00     0.018 A 
HETATM   17  C   UNL     1       5.869  24.891  53.626  1.00  0.00     0.002 A 
HETATM   18  C   UNL     1       5.495  25.861  54.559  1.00  0.00     0.013 A 
ENDBRANCH  11  12
ENDBRANCH   7  10
ENDBRANCH   5   6
BRANCH   1  19
HETATM   19  C   UNL     1       6.793  31.896  59.316  1.00  0.00     0.296 C 
BRANCH  19  20
HETATM   20  N   UNL     1       7.573  30.779  59.990  1.00  0.00    -0.066 N 
HETATM   21  H   UNL     1       6.916  29.994  60.108  1.00  0.00     0.280 HD
BRANCH  20  22
HETATM   22  C   UNL     1       8.035  31.200  61.380  1.00  0.00     0.231 C 
HETATM   23  C   UNL     1       9.274  30.435  61.807  1.00  0.00     0.034 C 
ENDBRANCH  20  22
BRANCH  20  24
HETATM   24  C   UNL     1       8.746  30.299  59.146  1.00  0.00     0.231 C 
HETATM   25  C   UNL     1       8.306  29.232  58.156  1.00  0.00     0.034 C 
ENDBRANCH  20  24
ENDBRANCH  19  20
ENDBRANCH   1  19
BRANCH   2  26
HETATM   26  C   UNL     1       4.633  32.994  61.332  1.00  0.00     0.225 A 
HETATM   27  N   UNL     1       4.760  34.325  61.332  1.00  0.00    -0.081 NA
HETATM   28  O   UNL     1       4.999  34.632  62.677  1.00  0.00    -0.103 OA
HETATM   29  N   UNL     1       5.040  33.484  63.454  1.00  0.00    -0.083 NA
HETATM   30  C   UNL     1       4.818  32.468  62.622  1.00  0.00     0.201 A 
BRANCH  30  31
HETATM   31  N   UNL     1       4.773  31.179  62.990  1.00  0.00    -0.379 N 
HETATM   32  H   UNL     1       5.466  30.521  62.643  1.00  0.00     0.158 HD
HETATM   33  H   UNL     1       3.984  30.751  63.472  1.00  0.00     0.158 HD
ENDBRANCH  30  31
ENDBRANCH   2  26
TORSDOF 9
ENDMDL
MODEL 3
REMARK VINA RESULT:      -8.3      2.814      5.149
REMARK  9 active torsions:
REMARK  status: ('A' for Active; 'I' for Inactive)
REMARK    1  A    between atoms: C_2  and  N_3 
REMARK    2  A    between atoms: N_3  and  C_5 
REMARK    3  A    between atoms: N_3  and  C_29 
REMARK    4  A    between atoms: C_5  and  C_6 
REMARK    5  A    between atoms: N_7  and  C_8 
REMARK    6  A    between atoms: C_12  and  N_13 
REMARK    7  A    between atoms: C_16  and  C_17 
REMARK       I    between atoms: C_17  and  N_18 
REMARK    8  A    between atoms: N_18  and  N_19 
REMARK    9  A    between atoms: C_20  and  C_21 
ROOT
HETATM    1  C   UNL     1       6.701  30.271  57.817  1.00  0.00     0.096 A 
HETATM    2  N   UNL     1       6.642  31.225  58.830  1.00  0.00    -0.215 N 
HETATM    3  N   UNL     1       7.587  30.931  59.761  1.00  0.00     0.012 NA
HETATM    4  N   UNL     1       8.305  29.900  59.346  1.00  0.00    -0.152 NA
HETATM    5  C   UNL     1       7.790  29.479  58.156  1.00  0.00     0.170 A 
ENDROOT
BRANCH   5   6
HETATM    6  C   UNL     1       8.330  28.368  57.383  1.00  0.00     0.293 C 
HETATM    7  N   UNL     1       7.623  27.188  57.516  1.00  0.00    -0.242 N 
HETATM    8  H   UNL     1       6.801  27.142  58.112  1.00  0.00     0.192 HD
HETATM    9  O   UNL     1       9.345  28.526  56.709  1.00  0.00    -0.264 OA
BRANCH   7  10
HETATM   10  N   UNL     1       8.017  26.097  56.804  1.00  0.00    -0.184 NA
HETATM   11  C   UNL     1       7.240  25.730  55.836  1.00  0.00     0.150 C 
BRANCH  11  12
HETATM   12  C   UNL     1       7.582  24.576  54.980  1.00  0.00    -0.016 A 
HETATM   13  C   UNL     1       7.850  23.326  55.547  1.00  0.00     0.031 A 
HETATM   14  C   UNL     1       8.183  22.255  54.719  1.00  0.00     0.007 A 
HETATM   15  I   UNL     1       8.595  20.396  55.555  1.00  0.00    -0.045 I 
HETATM   16  C   UNL     1       8.246  22.423  53.336  1.00  0.00     0.018 A 
HETATM   17  C   UNL     1       7.975  23.673  52.775  1.00  0.00     0.002 A 
HETATM   18  C   UNL     1       7.644  24.754  53.595  1.00  0.00     0.013 A 
ENDBRANCH  11  12
ENDBRANCH   7  10
ENDBRANCH   5   6
BRANCH   1  19
HETATM   19  C   UNL     1       5.725  30.119  56.710  1.00  0.00     0.296 C 
BRANCH  19  20
HETATM   20  N   UNL     1       4.443  29.374  57.044  1.00  0.00    -0.066 N 
HETATM   21  H   UNL     1       4.600  28.916  57.953  1.00  0.00     0.280 HD
BRANCH  20  22
HETATM   22  C   UNL     1       4.172  28.276  56.022  1.00  0.00     0.231 C 
HETATM   23  C   UNL     1       5.059  28.427  54.800  1.00  0.00     0.034 C 
ENDBRANCH  20  22
BRANCH  20  24
HETATM   24  C   UNL     1       3.247  30.307  57.176  1.00  0.00     0.231 C 
HETATM   25  C   UNL     1       3.243  31.350  56.071  1.00  0.00     0.034 C 
ENDBRANCH  20  24
ENDBRANCH  19  20
ENDBRANCH   1  19
BRANCH   2  26
HETATM   26  C   UNL     1       5.811  32.366  58.919  1.00  0.00     0.225 A 
HETATM   27  N   UNL     1       5.733  33.214  57.889  1.00  0.00    -0.081 NA
HETATM   28  O   UNL     1       4.853  34.203  58.345  1.00  0.00    -0.103 OA
HETATM   29  N   UNL     1       4.442  33.949  59.644  1.00  0.00    -0.083 NA
HETATM   30  C   UNL     1       5.037  32.813  60.004  1.00  0.00     0.201 A 
BRANCH  30  31
HETATM   31  N   UNL     1       4.891  32.221  61.199  1.00  0.00    -0.379 N 
HETATM   32  H   UNL     1       4.076  31.643  61.390  1.00  0.00     0.158 HD
HETATM   33  H   UNL     1       5.460  32.437  62.015  1.00  0.00     0.158 HD
ENDBRANCH  30  31
ENDBRANCH   2  26
TORSDOF 9
ENDMDL
MODEL 4
REMARK VINA RESULT:      -8.2      2.474      3.777
REMARK  9 active torsions:
REMARK  status: ('A' for Active; 'I' for Inactive)
REMARK    1  A    between atoms: C_2  and  N_3 
REMARK    2  A    between atoms: N_3  and  C_5 
REMARK    3  A    between atoms: N_3  and  C_29 
REMARK    4  A    between atoms: C_5  and  C_6 
REMARK    5  A    between atoms: N_7  and  C_8 
REMARK    6  A    between atoms: C_12  and  N_13 
REMARK    7  A    between atoms: C_16  and  C_17 
REMARK       I    between atoms: C_17  and  N_18 
REMARK    8  A    between atoms: N_18  and  N_19 
REMARK    9  A    between atoms: C_20  and  C_21 
ROOT
HETATM    1  C   UNL     1       5.245  30.695  57.597  1.00  0.00     0.096 A 
HETATM    2  N   UNL     1       4.011  31.236  57.946  1.00  0.00    -0.215 N 
HETATM    3  N   UNL     1       3.042  30.611  57.227  1.00  0.00     0.012 NA
HETATM    4  N   UNL     1       3.586  29.639  56.512  1.00  0.00    -0.152 NA
HETATM    5  C   UNL     1       4.933  29.662  56.725  1.00  0.00     0.170 A 
ENDROOT
BRANCH   5   6
HETATM    6  C   UNL     1       5.870  28.726  56.116  1.00  0.00     0.293 C 
HETATM    7  N   UNL     1       5.752  27.428  56.575  1.00  0.00    -0.242 N 
HETATM    8  H   UNL     1       5.058  27.188  57.277  1.00  0.00     0.192 HD
HETATM    9  O   UNL     1       6.686  29.125  55.290  1.00  0.00    -0.264 OA
BRANCH   7  10
HETATM   10  N   UNL     1       6.551  26.463  56.042  1.00  0.00    -0.184 NA
HETATM   11  C   UNL     1       5.958  25.533  55.365  1.00  0.00     0.150 C 
BRANCH  11  12
HETATM   12  C   UNL     1       6.728  24.451  54.718  1.00  0.00    -0.016 A 
HETATM   13  C   UNL     1       7.130  23.330  55.452  1.00  0.00     0.031 A 
HETATM   14  C   UNL     1       7.867  22.327  54.824  1.00  0.00     0.007 A 
HETATM   15  I   UNL     1       8.479  20.663  55.909  1.00  0.00    -0.045 I 
HETATM   16  C   UNL     1       8.200  22.435  53.473  1.00  0.00     0.018 A 
HETATM   17  C   UNL     1       7.794  23.556  52.745  1.00  0.00     0.002 A 
HETATM   18  C   UNL     1       7.058  24.568  53.366  1.00  0.00     0.013 A 
ENDBRANCH  11  12
ENDBRANCH   7  10
ENDBRANCH   5   6
BRANCH   1  19
HETATM   19  C   UNL     1       6.570  31.219  58.012  1.00  0.00     0.296 C 
BRANCH  19  20
HETATM   20  N   UNL     1       7.033  30.839  59.409  1.00  0.00    -0.066 N 
HETATM   21  H   UNL     1       6.321  30.200  59.789  1.00  0.00     0.280 HD
BRANCH  20  22
HETATM   22  C   UNL     1       7.080  32.062  60.317  1.00  0.00     0.231 C 
HETATM   23  C   UNL     1       8.508  32.510  60.570  1.00  0.00     0.034 C 
ENDBRANCH  20  22
BRANCH  20  24
HETATM   24  C   UNL     1       8.372  30.113  59.400  1.00  0.00     0.231 C 
HETATM   25  C   UNL     1       8.839  29.847  57.978  1.00  0.00     0.034 C 
ENDBRANCH  20  24
ENDBRANCH  19  20
ENDBRANCH   1  19
BRANCH   2  26
HETATM   26  C   UNL     1       3.723  32.225  58.914  1.00  0.00     0.225 A 
HETATM   27  N   UNL     1       3.874  33.518  58.611  1.00  0.00    -0.081 NA
HETATM   28  O   UNL     1       3.522  34.177  59.794  1.00  0.00    -0.103 OA
HETATM   29  N   UNL     1       3.194  33.273  60.793  1.00  0.00    -0.083 NA
HETATM   30  C   UNL     1       3.321  32.063  60.251  1.00  0.00     0.201 A 
BRANCH  30  31
HETATM   31  N   UNL     1       3.087  30.911  60.897  1.00  0.00    -0.379 N 
HETATM   32  H   UNL     1       2.140  30.656  61.166  1.00  0.00     0.158 HD
HETATM   33  H   UNL     1       3.815  30.325  61.300  1.00  0.00     0.158 HD
ENDBRANCH  30  31
ENDBRANCH   2  26
TORSDOF 9
ENDMDL
MODEL 5
REMARK VINA RESULT:      -8.2      2.703      5.129
REMARK  9 active torsions:
REMARK  status: ('A' for Active; 'I' for Inactive)
REMARK    1  A    between atoms: C_2  and  N_3 
REMARK    2  A    between atoms: N_3  and  C_5 
REMARK    3  A    between atoms: N_3  and  C_29 
REMARK    4  A    between atoms: C_5  and  C_6 
REMARK    5  A    between atoms: N_7  and  C_8 
REMARK    6  A    between atoms: C_12  and  N_13 
REMARK    7  A    between atoms: C_16  and  C_17 
REMARK       I    between atoms: C_17  and  N_18 
REMARK    8  A    between atoms: N_18  and  N_19 
REMARK    9  A    between atoms: C_20  and  C_21 
ROOT
HETATM    1  C   UNL     1       6.737  30.110  58.008  1.00  0.00     0.096 A 
HETATM    2  N   UNL     1       6.779  31.137  58.948  1.00  0.00    -0.215 N 
HETATM    3  N   UNL     1       7.902  30.995  59.699  1.00  0.00     0.012 NA
HETATM    4  N   UNL     1       8.623  29.991  59.224  1.00  0.00    -0.152 NA
HETATM    5  C   UNL     1       7.938  29.435  58.184  1.00  0.00     0.170 A 
ENDROOT
BRANCH   5   6
HETATM    6  C   UNL     1       8.425  28.310  57.397  1.00  0.00     0.293 C 
HETATM    7  N   UNL     1       7.718  27.138  57.586  1.00  0.00    -0.242 N 
HETATM    8  H   UNL     1       6.930  27.106  58.227  1.00  0.00     0.192 HD
HETATM    9  O   UNL     1       9.402  28.450  56.666  1.00  0.00    -0.264 OA
BRANCH   7  10
HETATM   10  N   UNL     1       8.062  26.034  56.868  1.00  0.00    -0.184 NA
HETATM   11  C   UNL     1       7.287  25.724  55.879  1.00  0.00     0.150 C 
BRANCH  11  12
HETATM   12  C   UNL     1       7.579  24.563  55.015  1.00  0.00    -0.016 A 
HETATM   13  C   UNL     1       7.811  23.302  55.575  1.00  0.00     0.031 A 
HETATM   14  C   UNL     1       8.098  22.224  54.739  1.00  0.00     0.007 A 
HETATM   15  I   UNL     1       8.454  20.348  55.564  1.00  0.00    -0.045 I 
HETATM   16  C   UNL     1       8.152  22.395  53.356  1.00  0.00     0.018 A 
HETATM   17  C   UNL     1       7.918  23.656  52.802  1.00  0.00     0.002 A 
HETATM   18  C   UNL     1       7.633  24.744  53.630  1.00  0.00     0.013 A 
ENDBRANCH  11  12
ENDBRANCH   7  10
ENDBRANCH   5   6
BRANCH   1  19
HETATM   19  C   UNL     1       5.592  29.793  57.119  1.00  0.00     0.296 C 
BRANCH  19  20
HETATM   20  N   UNL     1       5.750  30.181  55.658  1.00  0.00    -0.066 N 
HETATM   21  H   UNL     1       6.622  30.725  55.593  1.00  0.00     0.280 HD
BRANCH  20  22
HETATM   22  C   UNL     1       4.611  31.090  55.212  1.00  0.00     0.231 C 
HETATM   23  C   UNL     1       3.495  31.125  56.239  1.00  0.00     0.034 C 
ENDBRANCH  20  22
BRANCH  20  24
HETATM   24  C   UNL     1       5.872  28.968  54.746  1.00  0.00     0.231 C 
HETATM   25  C   UNL     1       4.661  28.059  54.882  1.00  0.00     0.034 C 
ENDBRANCH  20  24
ENDBRANCH  19  20
ENDBRANCH   1  19
BRANCH   2  26
HETATM   26  C   UNL     1       5.878  32.213  59.118  1.00  0.00     0.225 A 
HETATM   27  N   UNL     1       5.690  33.087  58.125  1.00  0.00    -0.081 NA
HETATM   28  O   UNL     1       4.769  33.997  58.657  1.00  0.00    -0.103 OA
HETATM   29  N   UNL     1       4.444  33.673  59.966  1.00  0.00    -0.083 NA
HETATM   30  C   UNL     1       5.133  32.570  60.255  1.00  0.00     0.201 A 
BRANCH  30  31
HETATM   31  N   UNL     1       5.088  31.931  61.433  1.00  0.00    -0.379 N 
HETATM   32  H   UNL     1       4.481  31.126  61.559  1.00  0.00     0.158 HD
HETATM   33  H   UNL     1       5.500  32.292  62.292  1.00  0.00     0.158 HD
ENDBRANCH  30  31
ENDBRANCH   2  26
TORSDOF 9
ENDMDL
MODEL 6
REMARK VINA RESULT:      -8.0      1.732      3.162
REMARK  9 active torsions:
REMARK  status: ('A' for Active; 'I' for Inactive)
REMARK    1  A    between atoms: C_2  and  N_3 
REMARK    2  A    between atoms: N_3  and  C_5 
REMARK    3  A    between atoms: N_3  and  C_29 
REMARK    4  A    between atoms: C_5  and  C_6 
REMARK    5  A    between atoms: N_7  and  C_8 
REMARK    6  A    between atoms: C_12  and  N_13 
REMARK    7  A    between atoms: C_16  and  C_17 
REMARK       I    between atoms: C_17  and  N_18 
REMARK    8  A    between atoms: N_18  and  N_19 
REMARK    9  A    between atoms: C_20  and  C_21 
ROOT
HETATM    1  C   UNL     1       6.351  32.102  61.691  1.00  0.00     0.096 A 
HETATM    2  N   UNL     1       6.727  32.292  63.018  1.00  0.00    -0.215 N 
HETATM    3  N   UNL     1       7.994  31.829  63.182  1.00  0.00     0.012 NA
HETATM    4  N   UNL     1       8.475  31.444  62.011  1.00  0.00    -0.152 NA
HETATM    5  C   UNL     1       7.494  31.606  61.078  1.00  0.00     0.170 A 
ENDROOT
BRANCH   5   6
HETATM    6  C   UNL     1       7.657  31.301  59.662  1.00  0.00     0.293 C 
HETATM    7  N   UNL     1       7.727  29.951  59.379  1.00  0.00    -0.242 N 
HETATM    8  H   UNL     1       7.664  29.261  60.123  1.00  0.00     0.192 HD
HETATM    9  O   UNL     1       7.745  32.213  58.845  1.00  0.00    -0.264 OA
BRANCH   7  10
HETATM   10  N   UNL     1       7.838  29.552  58.082  1.00  0.00    -0.184 NA
HETATM   11  C   UNL     1       7.493  28.332  57.822  1.00  0.00     0.150 C 
BRANCH  11  12
HETATM   12  C   UNL     1       7.546  27.801  56.445  1.00  0.00    -0.016 A 
HETATM   13  C   UNL     1       7.381  26.433  56.205  1.00  0.00     0.031 A 
HETATM   14  C   UNL     1       7.448  25.953  54.898  1.00  0.00     0.007 A 
HETATM   15  I   UNL     1       7.215  23.919  54.533  1.00  0.00    -0.045 I 
HETATM   16  C   UNL     1       7.674  26.827  53.834  1.00  0.00     0.018 A 
HETATM   17  C   UNL     1       7.835  28.193  54.080  1.00  0.00     0.002 A 
HETATM   18  C   UNL     1       7.774  28.684  55.386  1.00  0.00     0.013 A 
ENDBRANCH  11  12
ENDBRANCH   7  10
ENDBRANCH   5   6
BRANCH   1  19
HETATM   19  C   UNL     1       4.987  32.299  61.139  1.00  0.00     0.296 C 
BRANCH  19  20
HETATM   20  N   UNL     1       4.791  33.523  60.260  1.00  0.00    -0.066 N 
HETATM   21  H   UNL     1       5.729  33.909  60.084  1.00  0.00     0.280 HD
BRANCH  20  22
HETATM   22  C   UNL     1       3.988  34.593  60.991  1.00  0.00     0.231 C 
HETATM   23  C   UNL     1       4.895  35.542  61.753  1.00  0.00     0.034 C 
ENDBRANCH  20  22
BRANCH  20  24
HETATM   24  C   UNL     1       4.154  33.181  58.920  1.00  0.00     0.231 C 
HETATM   25  C   UNL     1       4.016  31.676  58.751  1.00  0.00     0.034 C 
ENDBRANCH  20  24
ENDBRANCH  19  20
ENDBRANCH   1  19
BRANCH   2  26
HETATM   26  C   UNL     1       5.998  32.906  64.062  1.00  0.00     0.225 A 
HETATM   27  N   UNL     1       4.696  32.643  64.209  1.00  0.00    -0.081 NA
HETATM   28  O   UNL     1       4.324  33.429  65.306  1.00  0.00    -0.103 OA
HETATM   29  N   UNL     1       5.396  34.170  65.779  1.00  0.00    -0.083 NA
HETATM   30  C   UNL     1       6.434  33.850  65.008  1.00  0.00     0.201 A 
BRANCH  30  31
HETATM   31  N   UNL     1       7.670  34.353  65.146  1.00  0.00    -0.379 N 
HETATM   32  H   UNL     1       8.195  34.198  66.003  1.00  0.00     0.158 HD
HETATM   33  H   UNL     1       8.080  35.037  64.514  1.00  0.00     0.158 HD
ENDBRANCH  30  31
ENDBRANCH   2  26
TORSDOF 9
ENDMDL
MODEL 7
REMARK VINA RESULT:      -7.9      5.767     11.073
REMARK  9 active torsions:
REMARK  status: ('A' for Active; 'I' for Inactive)
REMARK    1  A    between atoms: C_2  and  N_3 
REMARK    2  A    between atoms: N_3  and  C_5 
REMARK    3  A    between atoms: N_3  and  C_29 
REMARK    4  A    between atoms: C_5  and  C_6 
REMARK    5  A    between atoms: N_7  and  C_8 
REMARK    6  A    between atoms: C_12  and  N_13 
REMARK    7  A    between atoms: C_16  and  C_17 
REMARK       I    between atoms: C_17  and  N_18 
REMARK    8  A    between atoms: N_18  and  N_19 
REMARK    9  A    between atoms: C_20  and  C_21 
ROOT
HETATM    1  C   UNL     1       7.429  23.938  55.370  1.00  0.00     0.096 A 
HETATM    2  N   UNL     1       8.419  22.997  55.104  1.00  0.00    -0.215 N 
HETATM    3  N   UNL     1       9.471  23.224  55.933  1.00  0.00     0.012 NA
HETATM    4  N   UNL     1       9.163  24.198  56.775  1.00  0.00    -0.152 NA
HETATM    5  C   UNL     1       7.915  24.650  56.459  1.00  0.00     0.170 A 
ENDROOT
BRANCH   5   6
HETATM    6  C   UNL     1       7.228  25.714  57.179  1.00  0.00     0.293 C 
HETATM    7  N   UNL     1       7.966  26.873  57.317  1.00  0.00    -0.242 N 
HETATM    8  H   UNL     1       8.905  26.938  56.933  1.00  0.00     0.192 HD
HETATM    9  O   UNL     1       6.098  25.523  57.622  1.00  0.00    -0.264 OA
BRANCH   7  10
HETATM   10  N   UNL     1       7.403  27.946  57.937  1.00  0.00    -0.184 NA
HETATM   11  C   UNL     1       8.175  28.965  58.140  1.00  0.00     0.150 C 
BRANCH  11  12
HETATM   12  C   UNL     1       7.663  30.194  58.779  1.00  0.00    -0.016 A 
HETATM   13  C   UNL     1       8.095  30.561  60.058  1.00  0.00     0.031 A 
HETATM   14  C   UNL     1       7.588  31.719  60.647  1.00  0.00     0.007 A 
HETATM   15  I   UNL     1       8.216  32.266  62.552  1.00  0.00    -0.045 I 
HETATM   16  C   UNL     1       6.660  32.510  59.969  1.00  0.00     0.018 A 
HETATM   17  C   UNL     1       6.234  32.139  58.691  1.00  0.00     0.002 A 
HETATM   18  C   UNL     1       6.733  30.979  58.093  1.00  0.00     0.013 A 
ENDBRANCH  11  12
ENDBRANCH   7  10
ENDBRANCH   5   6
BRANCH   1  19
HETATM   19  C   UNL     1       6.200  24.155  54.567  1.00  0.00     0.296 C 
BRANCH  19  20
HETATM   20  N   UNL     1       6.341  25.067  53.360  1.00  0.00    -0.066 N 
HETATM   21  H   UNL     1       7.302  24.943  53.011  1.00  0.00     0.280 HD
BRANCH  20  22
HETATM   22  C   UNL     1       6.187  26.529  53.762  1.00  0.00     0.231 C 
HETATM   23  C   UNL     1       7.519  27.256  53.727  1.00  0.00     0.034 C 
ENDBRANCH  20  22
BRANCH  20  24
HETATM   24  C   UNL     1       5.374  24.702  52.241  1.00  0.00     0.231 C 
HETATM   25  C   UNL     1       5.250  25.837  51.236  1.00  0.00     0.034 C 
ENDBRANCH  20  24
ENDBRANCH  19  20
ENDBRANCH   1  19
BRANCH   2  26
HETATM   26  C   UNL     1       8.390  21.921  54.187  1.00  0.00     0.225 A 
HETATM   27  N   UNL     1       7.941  22.118  52.943  1.00  0.00    -0.081 NA
HETATM   28  O   UNL     1       8.042  20.853  52.353  1.00  0.00    -0.103 OA
HETATM   29  N   UNL     1       8.520  19.915  53.256  1.00  0.00    -0.083 NA
HETATM   30  C   UNL     1       8.732  20.574  54.394  1.00  0.00     0.201 A 
BRANCH  30  31
HETATM   31  N   UNL     1       9.204  20.017  55.520  1.00  0.00    -0.379 N 
HETATM   32  H   UNL     1      10.191  19.787  55.605  1.00  0.00     0.158 HD
HETATM   33  H   UNL     1       8.614  19.642  56.260  1.00  0.00     0.158 HD
ENDBRANCH  30  31
ENDBRANCH   2  26
TORSDOF 9
ENDMDL
MODEL 8
REMARK VINA RESULT:      -7.9      2.033      3.898
REMARK  9 active torsions:
REMARK  status: ('A' for Active; 'I' for Inactive)
REMARK    1  A    between atoms: C_2  and  N_3 
REMARK    2  A    between atoms: N_3  and  C_5 
REMARK    3  A    between atoms: N_3  and  C_29 
REMARK    4  A    between atoms: C_5  and  C_6 
REMARK    5  A    between atoms: N_7  and  C_8 
REMARK    6  A    between atoms: C_12  and  N_13 
REMARK    7  A    between atoms: C_16  and  C_17 
REMARK       I    between atoms: C_17  and  N_18 
REMARK    8  A    between atoms: N_18  and  N_19 
REMARK    9  A    between atoms: C_20  and  C_21 
ROOT
HETATM    1  C   UNL     1       7.197  31.174  59.568  1.00  0.00     0.096 A 
HETATM    2  N   UNL     1       7.352  31.530  60.905  1.00  0.00    -0.215 N 
HETATM    3  N   UNL     1       8.371  30.803  61.435  1.00  0.00     0.012 NA
HETATM    4  N   UNL     1       8.931  30.076  60.482  1.00  0.00    -0.152 NA
HETATM    5  C   UNL     1       8.238  30.288  59.326  1.00  0.00     0.170 A 
ENDROOT
BRANCH   5   6
HETATM    6  C   UNL     1       8.572  29.667  58.051  1.00  0.00     0.293 C 
HETATM    7  N   UNL     1       7.892  28.491  57.799  1.00  0.00    -0.242 N 
HETATM    8  H   UNL     1       7.223  28.125  58.471  1.00  0.00     0.192 HD
HETATM    9  O   UNL     1       9.414  30.182  57.320  1.00  0.00    -0.264 OA
BRANCH   7  10
HETATM   10  N   UNL     1       8.097  27.849  56.616  1.00  0.00    -0.184 NA
HETATM   11  C   UNL     1       7.441  26.747  56.436  1.00  0.00     0.150 C 
BRANCH  11  12
HETATM   12  C   UNL     1       7.565  25.983  55.179  1.00  0.00    -0.016 A 
HETATM   13  C   UNL     1       7.732  24.594  55.207  1.00  0.00     0.031 A 
HETATM   14  C   UNL     1       7.859  23.895  54.008  1.00  0.00     0.007 A 
HETATM   15  I   UNL     1       8.119  21.832  54.040  1.00  0.00    -0.045 I 
HETATM   16  C   UNL     1       7.818  24.569  52.788  1.00  0.00     0.018 A 
HETATM   17  C   UNL     1       7.649  25.956  52.766  1.00  0.00     0.002 A 
HETATM   18  C   UNL     1       7.524  26.667  53.962  1.00  0.00     0.013 A 
ENDBRANCH  11  12
ENDBRANCH   7  10
ENDBRANCH   5   6
BRANCH   1  19
HETATM   19  C   UNL     1       6.085  31.595  58.682  1.00  0.00     0.296 C 
BRANCH  19  20
HETATM   20  N   UNL     1       4.866  30.687  58.657  1.00  0.00    -0.066 N 
HETATM   21  H   UNL     1       5.007  29.990  59.403  1.00  0.00     0.280 HD
BRANCH  20  22
HETATM   22  C   UNL     1       4.779  29.931  57.337  1.00  0.00     0.231 C 
HETATM   23  C   UNL     1       5.390  30.731  56.200  1.00  0.00     0.034 C 
ENDBRANCH  20  22
BRANCH  20  24
HETATM   24  C   UNL     1       3.574  31.441  58.943  1.00  0.00     0.231 C 
HETATM   25  C   UNL     1       3.851  32.906  59.240  1.00  0.00     0.034 C 
ENDBRANCH  20  24
ENDBRANCH  19  20
ENDBRANCH   1  19
BRANCH   2  26
HETATM   26  C   UNL     1       6.652  32.512  61.644  1.00  0.00     0.225 A 
HETATM   27  N   UNL     1       7.059  33.784  61.613  1.00  0.00    -0.081 NA
HETATM   28  O   UNL     1       6.156  34.439  62.458  1.00  0.00    -0.103 OA
HETATM   29  N   UNL     1       5.243  33.549  63.002  1.00  0.00    -0.083 NA
HETATM   30  C   UNL     1       5.551  32.353  62.502  1.00  0.00     0.201 A 
BRANCH  30  31
HETATM   31  N   UNL     1       4.893  31.218  62.782  1.00  0.00    -0.379 N 
HETATM   32  H   UNL     1       5.402  30.389  63.076  1.00  0.00     0.158 HD
HETATM   33  H   UNL     1       3.912  31.060  62.563  1.00  0.00     0.158 HD
ENDBRANCH  30  31
ENDBRANCH   2  26
TORSDOF 9
ENDMDL
MODEL 9
REMARK VINA RESULT:      -7.9      4.197      9.114
REMARK  9 active torsions:
REMARK  status: ('A' for Active; 'I' for Inactive)
REMARK    1  A    between atoms: C_2  and  N_3 
REMARK    2  A    between atoms: N_3  and  C_5 
REMARK    3  A    between atoms: N_3  and  C_29 
REMARK    4  A    between atoms: C_5  and  C_6 
REMARK    5  A    between atoms: N_7  and  C_8 
REMARK    6  A    between atoms: C_12  and  N_13 
REMARK    7  A    between atoms: C_16  and  C_17 
REMARK       I    between atoms: C_17  and  N_18 
REMARK    8  A    between atoms: N_18  and  N_19 
REMARK    9  A    between atoms: C_20  and  C_21 
ROOT
HETATM    1  C   UNL     1       7.569  29.327  57.496  1.00  0.00     0.096 A 
HETATM    2  N   UNL     1       8.196  28.388  56.682  1.00  0.00    -0.215 N 
HETATM    3  N   UNL     1       9.542  28.524  56.815  1.00  0.00     0.012 NA
HETATM    4  N   UNL     1       9.800  29.433  57.741  1.00  0.00    -0.152 NA
HETATM    5  C   UNL     1       8.611  29.937  58.181  1.00  0.00     0.170 A 
ENDROOT
BRANCH   5   6
HETATM    6  C   UNL     1       8.492  30.955  59.217  1.00  0.00     0.293 C 
HETATM    7  N   UNL     1       8.165  30.458  60.464  1.00  0.00    -0.242 N 
HETATM    8  H   UNL     1       8.029  29.461  60.605  1.00  0.00     0.192 HD
HETATM    9  O   UNL     1       8.656  32.139  58.935  1.00  0.00    -0.264 OA
BRANCH   7  10
HETATM   10  N   UNL     1       8.069  31.319  61.514  1.00  0.00    -0.184 NA
HETATM   11  C   UNL     1       6.950  31.959  61.635  1.00  0.00     0.150 C 
BRANCH  11  12
HETATM   12  C   UNL     1       6.726  32.898  62.753  1.00  0.00    -0.016 A 
HETATM   13  C   UNL     1       5.729  33.876  62.669  1.00  0.00     0.031 A 
HETATM   14  C   UNL     1       5.544  34.759  63.732  1.00  0.00     0.007 A 
HETATM   15  I   UNL     1       4.074  36.224  63.610  1.00  0.00    -0.045 I 
HETATM   16  C   UNL     1       6.341  34.669  64.873  1.00  0.00     0.018 A 
HETATM   17  C   UNL     1       7.333  33.688  64.953  1.00  0.00     0.002 A 
HETATM   18  C   UNL     1       7.529  32.801  63.892  1.00  0.00     0.013 A 
ENDBRANCH  11  12
ENDBRANCH   7  10
ENDBRANCH   5   6
BRANCH   1  19
HETATM   19  C   UNL     1       6.118  29.636  57.506  1.00  0.00     0.296 C 
BRANCH  19  20
HETATM   20  N   UNL     1       5.646  30.668  56.496  1.00  0.00    -0.066 N 
HETATM   21  H   UNL     1       6.450  30.867  55.884  1.00  0.00     0.280 HD
BRANCH  20  22
HETATM   22  C   UNL     1       5.268  31.972  57.188  1.00  0.00     0.231 C 
HETATM   23  C   UNL     1       4.853  31.733  58.629  1.00  0.00     0.034 C 
ENDBRANCH  20  22
BRANCH  20  24
HETATM   24  C   UNL     1       4.501  30.156  55.632  1.00  0.00     0.231 C 
HETATM   25  C   UNL     1       4.123  28.734  56.015  1.00  0.00     0.034 C 
ENDBRANCH  20  24
ENDBRANCH  19  20
ENDBRANCH   1  19
BRANCH   2  26
HETATM   26  C   UNL     1       7.608  27.390  55.871  1.00  0.00     0.225 A 
HETATM   27  N   UNL     1       7.415  26.162  56.362  1.00  0.00    -0.081 NA
HETATM   28  O   UNL     1       6.845  25.465  55.290  1.00  0.00    -0.103 OA
HETATM   29  N   UNL     1       6.732  26.274  54.170  1.00  0.00    -0.083 NA
HETATM   30  C   UNL     1       7.207  27.466  54.526  1.00  0.00     0.201 A 
BRANCH  30  31
HETATM   31  N   UNL     1       7.267  28.535  53.718  1.00  0.00    -0.379 N 
HETATM   32  H   UNL     1       7.825  28.506  52.869  1.00  0.00     0.158 HD
HETATM   33  H   UNL     1       6.924  29.459  53.970  1.00  0.00     0.158 HD
ENDBRANCH  30  31
ENDBRANCH   2  26
TORSDOF 9
ENDMDL
MODEL 10
REMARK VINA RESULT:      -7.8      4.827      9.908
REMARK  9 active torsions:
REMARK  status: ('A' for Active; 'I' for Inactive)
REMARK    1  A    between atoms: C_2  and  N_3 
REMARK    2  A    between atoms: N_3  and  C_5 
REMARK    3  A    between atoms: N_3  and  C_29 
REMARK    4  A    between atoms: C_5  and  C_6 
REMARK    5  A    between atoms: N_7  and  C_8 
REMARK    6  A    between atoms: C_12  and  N_13 
REMARK    7  A    between atoms: C_16  and  C_17 
REMARK       I    between atoms: C_17  and  N_18 
REMARK    8  A    between atoms: N_18  and  N_19 
REMARK    9  A    between atoms: C_20  and  C_21 
ROOT
HETATM    1  C   UNL     1       6.060  27.806  54.081  1.00  0.00     0.096 A 
HETATM    2  N   UNL     1       5.085  27.969  53.101  1.00  0.00    -0.215 N 
HETATM    3  N   UNL     1       3.985  28.529  53.670  1.00  0.00     0.012 NA
HETATM    4  N   UNL     1       4.245  28.818  54.935  1.00  0.00    -0.152 NA
HETATM    5  C   UNL     1       5.511  28.394  55.213  1.00  0.00     0.170 A 
ENDROOT
BRANCH   5   6
HETATM    6  C   UNL     1       6.157  28.554  56.510  1.00  0.00     0.293 C 
HETATM    7  N   UNL     1       6.951  29.680  56.612  1.00  0.00    -0.242 N 
HETATM    8  H   UNL     1       7.048  30.318  55.827  1.00  0.00     0.192 HD
HETATM    9  O   UNL     1       5.988  27.710  57.386  1.00  0.00    -0.264 OA
BRANCH   7  10
HETATM   10  N   UNL     1       7.568  29.949  57.795  1.00  0.00    -0.184 NA
HETATM   11  C   UNL     1       7.057  30.900  58.509  1.00  0.00     0.150 C 
BRANCH  11  12
HETATM   12  C   UNL     1       7.627  31.259  59.822  1.00  0.00    -0.016 A 
HETATM   13  C   UNL     1       6.916  32.078  60.705  1.00  0.00     0.031 A 
HETATM   14  C   UNL     1       7.481  32.414  61.935  1.00  0.00     0.007 A 
HETATM   15  I   UNL     1       6.436  33.642  63.248  1.00  0.00    -0.045 I 
HETATM   16  C   UNL     1       8.743  31.935  62.288  1.00  0.00     0.018 A 
HETATM   17  C   UNL     1       9.447  31.115  61.403  1.00  0.00     0.002 A 
HETATM   18  C   UNL     1       8.893  30.776  60.167  1.00  0.00     0.013 A 
ENDBRANCH  11  12
ENDBRANCH   7  10
ENDBRANCH   5   6
BRANCH   1  19
HETATM   19  C   UNL     1       7.336  27.066  53.921  1.00  0.00     0.296 C 
BRANCH  19  20
HETATM   20  N   UNL     1       7.258  25.556  54.067  1.00  0.00    -0.066 N 
HETATM   21  H   UNL     1       6.263  25.305  53.975  1.00  0.00     0.280 HD
BRANCH  20  22
HETATM   22  C   UNL     1       7.711  25.120  55.455  1.00  0.00     0.231 C 
HETATM   23  C   UNL     1       6.577  24.472  56.230  1.00  0.00     0.034 C 
ENDBRANCH  20  22
BRANCH  20  24
HETATM   24  C   UNL     1       8.038  24.826  52.982  1.00  0.00     0.231 C 
HETATM   25  C   UNL     1       7.553  23.393  52.831  1.00  0.00     0.034 C 
ENDBRANCH  20  24
ENDBRANCH  19  20
ENDBRANCH   1  19
BRANCH   2  26
HETATM   26  C   UNL     1       5.166  27.681  51.719  1.00  0.00     0.225 A 
HETATM   27  N   UNL     1       5.436  28.661  50.851  1.00  0.00    -0.081 NA
HETATM   28  O   UNL     1       5.416  28.014  49.609  1.00  0.00    -0.103 OA
HETATM   29  N   UNL     1       5.109  26.669  49.750  1.00  0.00    -0.083 NA
HETATM   30  C   UNL     1       4.950  26.462  51.056  1.00  0.00     0.201 A 
BRANCH  30  31
HETATM   31  N   UNL     1       4.648  25.277  51.608  1.00  0.00    -0.379 N 
HETATM   32  H   UNL     1       3.981  24.655  51.157  1.00  0.00     0.158 HD
HETATM   33  H   UNL     1       4.912  25.005  52.553  1.00  0.00     0.158 HD
ENDBRANCH  30  31
ENDBRANCH   2  26
TORSDOF 9
ENDMDL
