MODEL 1
REMARK VINA RESULT:      -9.1      0.000      0.000
REMARK  5 active torsions:
REMARK  status: ('A' for Active; 'I' for Inactive)
REMARK    1  A    between atoms: C_7  and  C_8 
REMARK    2  A    between atoms: N_9  and  C_10 
REMARK    3  A    between atoms: C_10  and  C_11 
REMARK       I    between atoms: C_11  and  N_12 
REMARK    4  A    between atoms: N_12  and  C_13 
REMARK    5  A    between atoms: C_13  and  C_14 
ROOT
HETATM    1  C   UNL     1       4.859  28.416  56.210  1.00  0.00     0.158 C 
HETATM    2  N   UNL     1       5.508  27.142  55.952  1.00  0.00    -0.326 N 
HETATM    3  C   UNL     1       5.503  26.852  54.596  1.00  0.00     0.255 C 
HETATM    4  O   UNL     1       5.798  25.799  54.062  1.00  0.00    -0.267 OA
HETATM    5  C   UNL     1       5.047  28.055  53.888  1.00  0.00     0.040 A 
HETATM    6  C   UNL     1       4.678  29.002  54.842  1.00  0.00    -0.015 A 
HETATM    7  C   UNL     1       4.942  28.278  52.528  1.00  0.00     0.017 A 
HETATM    8  C   UNL     1       4.440  29.516  52.120  1.00  0.00     0.001 A 
HETATM    9  C   UNL     1       4.056  30.481  53.068  1.00  0.00     0.001 A 
HETATM   10  C   UNL     1       4.167  30.227  54.439  1.00  0.00     0.011 A 
ENDROOT
BRANCH   1  11
HETATM   11  C   UNL     1       5.694  29.366  57.014  1.00  0.00     0.004 A 
HETATM   12  C   UNL     1       5.197  30.377  57.840  1.00  0.00     0.017 A 
HETATM   13  C   UNL     1       3.786  30.741  58.160  1.00  0.00     0.069 C 
HETATM   14  N   UNL     1       6.271  31.077  58.345  1.00  0.00    -0.354 N 
HETATM   15  C   UNL     1       6.191  32.250  59.192  1.00  0.00     0.156 C 
HETATM   16  C   UNL     1       7.457  30.508  57.931  1.00  0.00     0.045 A 
HETATM   17  C   UNL     1       7.130  29.440  57.092  1.00  0.00     0.001 A 
HETATM   18  C   UNL     1       8.790  30.850  58.223  1.00  0.00     0.030 A 
HETATM   19  C   UNL     1       8.188  28.698  56.519  1.00  0.00     0.014 A 
HETATM   20  C   UNL     1       9.516  29.031  56.802  1.00  0.00     0.001 A 
HETATM   21  C   UNL     1       9.812  30.095  57.645  1.00  0.00     0.002 A 
ENDBRANCH   1  11
BRANCH   2  22
HETATM   22  C   UNL     1       5.535  26.109  56.978  1.00  0.00     0.229 C 
BRANCH  22  23
HETATM   23  C   UNL     1       6.887  25.423  57.218  1.00  0.00     0.235 C 
HETATM   24  N   UNL     1       7.104  24.262  56.512  1.00  0.00    -0.357 N 
HETATM   25  H   UNL     1       6.322  23.871  55.983  1.00  0.00     0.162 HD
HETATM   26  O   UNL     1       7.649  25.802  58.110  1.00  0.00    -0.272 OA
BRANCH  24  27
HETATM   27  C   UNL     1       8.233  23.395  56.797  1.00  0.00     0.154 C 
BRANCH  27  28
HETATM   28  C   UNL     1       8.608  22.491  55.614  1.00  0.00     0.139 C 
HETATM   29  O   UNL     1       7.853  21.264  55.649  1.00  0.00    -0.384 OA
HETATM   30  C   UNL     1       7.884  20.747  54.315  1.00  0.00     0.168 C 
HETATM   31  C   UNL     1       7.815  21.954  53.405  1.00  0.00     0.029 C 
HETATM   32  C   UNL     1       8.285  23.113  54.262  1.00  0.00     0.035 C 
ENDBRANCH  27  28
ENDBRANCH  24  27
ENDBRANCH  22  23
ENDBRANCH   2  22
TORSDOF 5
ENDMDL
MODEL 2
REMARK VINA RESULT:      -8.8      8.657     12.492
REMARK  5 active torsions:
REMARK  status: ('A' for Active; 'I' for Inactive)
REMARK    1  A    between atoms: C_7  and  C_8 
REMARK    2  A    between atoms: N_9  and  C_10 
REMARK    3  A    between atoms: C_10  and  C_11 
REMARK       I    between atoms: C_11  and  N_12 
REMARK    4  A    between atoms: N_12  and  C_13 
REMARK    5  A    between atoms: C_13  and  C_14 
ROOT
HETATM    1  C   UNL     1       4.905  33.614  63.010  1.00  0.00     0.158 C 
HETATM    2  N   UNL     1       5.426  33.809  64.353  1.00  0.00    -0.326 N 
HETATM    3  C   UNL     1       6.705  33.284  64.466  1.00  0.00     0.255 C 
HETATM    4  O   UNL     1       7.350  33.119  65.485  1.00  0.00    -0.267 OA
HETATM    5  C   UNL     1       7.157  32.927  63.116  1.00  0.00     0.040 A 
HETATM    6  C   UNL     1       6.097  33.138  62.236  1.00  0.00    -0.015 A 
HETATM    7  C   UNL     1       8.383  32.435  62.710  1.00  0.00     0.017 A 
HETATM    8  C   UNL     1       8.539  32.144  61.354  1.00  0.00     0.001 A 
HETATM    9  C   UNL     1       7.478  32.343  60.452  1.00  0.00     0.001 A 
HETATM   10  C   UNL     1       6.245  32.838  60.890  1.00  0.00     0.011 A 
ENDROOT
BRANCH   1  11
HETATM   11  C   UNL     1       4.408  34.873  62.368  1.00  0.00     0.004 A 
HETATM   12  C   UNL     1       3.373  34.948  61.432  1.00  0.00     0.017 A 
HETATM   13  C   UNL     1       2.505  33.866  60.880  1.00  0.00     0.069 C 
HETATM   14  N   UNL     1       3.263  36.259  61.026  1.00  0.00    -0.354 N 
HETATM   15  C   UNL     1       2.355  36.756  60.011  1.00  0.00     0.156 C 
HETATM   16  C   UNL     1       4.147  37.057  61.723  1.00  0.00     0.045 A 
HETATM   17  C   UNL     1       4.882  36.218  62.564  1.00  0.00     0.001 A 
HETATM   18  C   UNL     1       4.362  38.446  61.675  1.00  0.00     0.030 A 
HETATM   19  C   UNL     1       5.877  36.803  63.380  1.00  0.00     0.014 A 
HETATM   20  C   UNL     1       6.100  38.184  63.339  1.00  0.00     0.001 A 
HETATM   21  C   UNL     1       5.350  38.993  62.496  1.00  0.00     0.002 A 
ENDBRANCH   1  11
BRANCH   2  22
HETATM   22  C   UNL     1       4.518  33.922  65.485  1.00  0.00     0.229 C 
BRANCH  22  23
HETATM   23  C   UNL     1       4.889  34.959  66.555  1.00  0.00     0.235 C 
HETATM   24  N   UNL     1       5.738  34.520  67.546  1.00  0.00    -0.357 N 
HETATM   25  H   UNL     1       5.960  33.524  67.577  1.00  0.00     0.162 HD
HETATM   26  O   UNL     1       4.326  36.054  66.609  1.00  0.00    -0.272 OA
BRANCH  24  27
HETATM   27  C   UNL     1       6.000  35.314  68.733  1.00  0.00     0.154 C 
BRANCH  27  28
HETATM   28  C   UNL     1       6.001  34.481  70.022  1.00  0.00     0.139 C 
HETATM   29  O   UNL     1       5.378  33.200  69.805  1.00  0.00    -0.384 OA
HETATM   30  C   UNL     1       5.860  32.348  70.848  1.00  0.00     0.168 C 
HETATM   31  C   UNL     1       7.301  32.749  71.075  1.00  0.00     0.029 C 
HETATM   32  C   UNL     1       7.403  34.157  70.522  1.00  0.00     0.035 C 
ENDBRANCH  27  28
ENDBRANCH  24  27
ENDBRANCH  22  23
ENDBRANCH   2  22
TORSDOF 5
ENDMDL
MODEL 3
REMARK VINA RESULT:      -8.8      1.986      4.681
REMARK  5 active torsions:
REMARK  status: ('A' for Active; 'I' for Inactive)
REMARK    1  A    between atoms: C_7  and  C_8 
REMARK    2  A    between atoms: N_9  and  C_10 
REMARK    3  A    between atoms: C_10  and  C_11 
REMARK       I    between atoms: C_11  and  N_12 
REMARK    4  A    between atoms: N_12  and  C_13 
REMARK    5  A    between atoms: C_13  and  C_14 
ROOT
HETATM    1  C   UNL     1       6.390  27.463  54.330  1.00  0.00     0.158 C 
HETATM    2  N   UNL     1       5.807  26.381  55.106  1.00  0.00    -0.326 N 
HETATM    3  C   UNL     1       6.544  26.146  56.256  1.00  0.00     0.255 C 
HETATM    4  O   UNL     1       6.440  25.208  57.025  1.00  0.00    -0.267 OA
HETATM    5  C   UNL     1       7.519  27.237  56.387  1.00  0.00     0.040 A 
HETATM    6  C   UNL     1       7.423  28.039  55.252  1.00  0.00    -0.015 A 
HETATM    7  C   UNL     1       8.425  27.477  57.402  1.00  0.00     0.017 A 
HETATM    8  C   UNL     1       9.269  28.580  57.259  1.00  0.00     0.001 A 
HETATM    9  C   UNL     1       9.191  29.398  56.116  1.00  0.00     0.001 A 
HETATM   10  C   UNL     1       8.269  29.128  55.100  1.00  0.00     0.011 A 
ENDROOT
BRANCH   1  11
HETATM   11  C   UNL     1       5.418  28.551  53.985  1.00  0.00     0.004 A 
HETATM   12  C   UNL     1       5.123  28.989  52.693  1.00  0.00     0.017 A 
HETATM   13  C   UNL     1       5.632  28.499  51.378  1.00  0.00     0.069 C 
HETATM   14  N   UNL     1       4.244  30.045  52.795  1.00  0.00    -0.354 N 
HETATM   15  C   UNL     1       3.739  30.833  51.688  1.00  0.00     0.156 C 
HETATM   16  C   UNL     1       3.900  30.263  54.112  1.00  0.00     0.045 A 
HETATM   17  C   UNL     1       4.623  29.349  54.882  1.00  0.00     0.001 A 
HETATM   18  C   UNL     1       3.016  31.193  54.688  1.00  0.00     0.030 A 
HETATM   19  C   UNL     1       4.454  29.383  56.285  1.00  0.00     0.014 A 
HETATM   20  C   UNL     1       3.579  30.305  56.867  1.00  0.00     0.001 A 
HETATM   21  C   UNL     1       2.869  31.198  56.076  1.00  0.00     0.002 A 
ENDBRANCH   1  11
BRANCH   2  22
HETATM   22  C   UNL     1       5.020  25.347  54.449  1.00  0.00     0.229 C 
BRANCH  22  23
HETATM   23  C   UNL     1       5.731  24.541  53.354  1.00  0.00     0.235 C 
HETATM   24  N   UNL     1       6.792  23.769  53.771  1.00  0.00    -0.357 N 
HETATM   25  H   UNL     1       7.110  23.876  54.736  1.00  0.00     0.162 HD
HETATM   26  O   UNL     1       5.472  24.712  52.161  1.00  0.00    -0.272 OA
BRANCH  24  27
HETATM   27  C   UNL     1       7.689  23.130  52.825  1.00  0.00     0.154 C 
BRANCH  27  28
HETATM   28  C   UNL     1       8.671  22.159  53.494  1.00  0.00     0.139 C 
HETATM   29  O   UNL     1       8.682  22.344  54.923  1.00  0.00    -0.384 OA
HETATM   30  C   UNL     1       9.198  21.128  55.472  1.00  0.00     0.168 C 
HETATM   31  C   UNL     1       8.655  20.019  54.598  1.00  0.00     0.029 C 
HETATM   32  C   UNL     1       8.296  20.696  53.290  1.00  0.00     0.035 C 
ENDBRANCH  27  28
ENDBRANCH  24  27
ENDBRANCH  22  23
ENDBRANCH   2  22
TORSDOF 5
ENDMDL
MODEL 4
REMARK VINA RESULT:      -8.7      2.852      7.393
REMARK  5 active torsions:
REMARK  status: ('A' for Active; 'I' for Inactive)
REMARK    1  A    between atoms: C_7  and  C_8 
REMARK    2  A    between atoms: N_9  and  C_10 
REMARK    3  A    between atoms: C_10  and  C_11 
REMARK       I    between atoms: C_11  and  N_12 
REMARK    4  A    between atoms: N_12  and  C_13 
REMARK    5  A    between atoms: C_13  and  C_14 
ROOT
HETATM    1  C   UNL     1       5.989  28.950  57.463  1.00  0.00     0.158 C 
HETATM    2  N   UNL     1       7.363  29.412  57.355  1.00  0.00    -0.326 N 
HETATM    3  C   UNL     1       8.233  28.341  57.218  1.00  0.00     0.255 C 
HETATM    4  O   UNL     1       9.448  28.361  57.282  1.00  0.00    -0.267 OA
HETATM    5  C   UNL     1       7.422  27.137  56.998  1.00  0.00     0.040 A 
HETATM    6  C   UNL     1       6.080  27.493  57.123  1.00  0.00    -0.015 A 
HETATM    7  C   UNL     1       7.835  25.843  56.740  1.00  0.00     0.017 A 
HETATM    8  C   UNL     1       6.843  24.870  56.604  1.00  0.00     0.001 A 
HETATM    9  C   UNL     1       5.484  25.209  56.734  1.00  0.00     0.001 A 
HETATM   10  C   UNL     1       5.093  26.525  57.001  1.00  0.00     0.011 A 
ENDROOT
BRANCH   1  11
HETATM   11  C   UNL     1       5.056  29.597  56.484  1.00  0.00     0.004 A 
HETATM   12  C   UNL     1       4.054  30.513  56.809  1.00  0.00     0.017 A 
HETATM   13  C   UNL     1       3.684  31.096  58.132  1.00  0.00     0.069 C 
HETATM   14  N   UNL     1       3.369  30.818  55.653  1.00  0.00    -0.354 N 
HETATM   15  C   UNL     1       2.208  31.681  55.562  1.00  0.00     0.156 C 
HETATM   16  C   UNL     1       3.941  30.184  54.570  1.00  0.00     0.045 A 
HETATM   17  C   UNL     1       4.994  29.407  55.058  1.00  0.00     0.001 A 
HETATM   18  C   UNL     1       3.613  30.227  53.203  1.00  0.00     0.030 A 
HETATM   19  C   UNL     1       5.735  28.638  54.133  1.00  0.00     0.014 A 
HETATM   20  C   UNL     1       5.416  28.672  52.772  1.00  0.00     0.001 A 
HETATM   21  C   UNL     1       4.367  29.459  52.314  1.00  0.00     0.002 A 
ENDBRANCH   1  11
BRANCH   2  22
HETATM   22  C   UNL     1       7.761  30.680  57.949  1.00  0.00     0.229 C 
BRANCH  22  23
HETATM   23  C   UNL     1       8.320  30.617  59.378  1.00  0.00     0.235 C 
HETATM   24  N   UNL     1       7.420  30.880  60.385  1.00  0.00    -0.357 N 
HETATM   25  H   UNL     1       6.492  31.216  60.121  1.00  0.00     0.162 HD
HETATM   26  O   UNL     1       9.529  30.506  59.589  1.00  0.00    -0.272 OA
BRANCH  24  27
HETATM   27  C   UNL     1       7.847  31.071  61.760  1.00  0.00     0.154 C 
BRANCH  27  28
HETATM   28  C   UNL     1       7.168  32.270  62.437  1.00  0.00     0.139 C 
HETATM   29  O   UNL     1       5.899  31.888  63.001  1.00  0.00    -0.384 OA
HETATM   30  C   UNL     1       5.600  32.871  63.996  1.00  0.00     0.168 C 
HETATM   31  C   UNL     1       6.925  33.229  64.632  1.00  0.00     0.029 C 
HETATM   32  C   UNL     1       7.968  32.825  63.609  1.00  0.00     0.035 C 
ENDBRANCH  27  28
ENDBRANCH  24  27
ENDBRANCH  22  23
ENDBRANCH   2  22
TORSDOF 5
ENDMDL
MODEL 5
REMARK VINA RESULT:      -8.6      6.864     10.669
REMARK  5 active torsions:
REMARK  status: ('A' for Active; 'I' for Inactive)
REMARK    1  A    between atoms: C_7  and  C_8 
REMARK    2  A    between atoms: N_9  and  C_10 
REMARK    3  A    between atoms: C_10  and  C_11 
REMARK       I    between atoms: C_11  and  N_12 
REMARK    4  A    between atoms: N_12  and  C_13 
REMARK    5  A    between atoms: C_13  and  C_14 
ROOT
HETATM    1  C   UNL     1       4.401  36.663  63.274  1.00  0.00     0.158 C 
HETATM    2  N   UNL     1       3.912  36.174  61.996  1.00  0.00    -0.326 N 
HETATM    3  C   UNL     1       4.308  37.012  60.964  1.00  0.00     0.255 C 
HETATM    4  O   UNL     1       3.926  36.995  59.808  1.00  0.00    -0.267 OA
HETATM    5  C   UNL     1       5.276  37.967  61.516  1.00  0.00     0.040 A 
HETATM    6  C   UNL     1       5.353  37.756  62.892  1.00  0.00    -0.015 A 
HETATM    7  C   UNL     1       5.998  38.951  60.866  1.00  0.00     0.017 A 
HETATM    8  C   UNL     1       6.833  39.752  61.646  1.00  0.00     0.001 A 
HETATM    9  C   UNL     1       6.919  39.558  63.037  1.00  0.00     0.001 A 
HETATM   10  C   UNL     1       6.172  38.560  63.671  1.00  0.00     0.011 A 
ENDROOT
BRANCH   1  11
HETATM   11  C   UNL     1       5.161  35.640  64.062  1.00  0.00     0.004 A 
HETATM   12  C   UNL     1       5.126  35.501  65.451  1.00  0.00     0.017 A 
HETATM   13  C   UNL     1       4.339  36.260  66.467  1.00  0.00     0.069 C 
HETATM   14  N   UNL     1       6.010  34.504  65.799  1.00  0.00    -0.354 N 
HETATM   15  C   UNL     1       6.327  34.090  67.152  1.00  0.00     0.156 C 
HETATM   16  C   UNL     1       6.568  33.937  64.672  1.00  0.00     0.045 A 
HETATM   17  C   UNL     1       6.062  34.631  63.570  1.00  0.00     0.001 A 
HETATM   18  C   UNL     1       7.479  32.875  64.535  1.00  0.00     0.030 A 
HETATM   19  C   UNL     1       6.502  34.244  62.284  1.00  0.00     0.014 A 
HETATM   20  C   UNL     1       7.410  33.190  62.137  1.00  0.00     0.001 A 
HETATM   21  C   UNL     1       7.891  32.515  63.250  1.00  0.00     0.002 A 
ENDBRANCH   1  11
BRANCH   2  22
HETATM   22  C   UNL     1       2.707  35.359  61.932  1.00  0.00     0.229 C 
BRANCH  22  23
HETATM   23  C   UNL     1       2.916  33.841  61.841  1.00  0.00     0.235 C 
HETATM   24  N   UNL     1       3.130  33.340  60.577  1.00  0.00    -0.357 N 
HETATM   25  H   UNL     1       3.014  33.975  59.785  1.00  0.00     0.162 HD
HETATM   26  O   UNL     1       2.732  33.110  62.816  1.00  0.00    -0.272 OA
BRANCH  24  27
HETATM   27  C   UNL     1       3.125  31.913  60.311  1.00  0.00     0.154 C 
BRANCH  27  28
HETATM   28  C   UNL     1       3.759  31.553  58.960  1.00  0.00     0.139 C 
HETATM   29  O   UNL     1       3.078  32.222  57.881  1.00  0.00    -0.384 OA
HETATM   30  C   UNL     1       3.999  32.239  56.787  1.00  0.00     0.168 C 
HETATM   31  C   UNL     1       5.366  32.443  57.404  1.00  0.00     0.029 C 
HETATM   32  C   UNL     1       5.211  31.999  58.845  1.00  0.00     0.035 C 
ENDBRANCH  27  28
ENDBRANCH  24  27
ENDBRANCH  22  23
ENDBRANCH   2  22
TORSDOF 5
ENDMDL
MODEL 6
REMARK VINA RESULT:      -8.3      1.438      2.531
REMARK  5 active torsions:
REMARK  status: ('A' for Active; 'I' for Inactive)
REMARK    1  A    between atoms: C_7  and  C_8 
REMARK    2  A    between atoms: N_9  and  C_10 
REMARK    3  A    between atoms: C_10  and  C_11 
REMARK       I    between atoms: C_11  and  N_12 
REMARK    4  A    between atoms: N_12  and  C_13 
REMARK    5  A    between atoms: C_13  and  C_14 
ROOT
HETATM    1  C   UNL     1       5.561  29.020  56.321  1.00  0.00     0.158 C 
HETATM    2  N   UNL     1       5.573  27.745  55.625  1.00  0.00    -0.326 N 
HETATM    3  C   UNL     1       4.864  27.826  54.435  1.00  0.00     0.255 C 
HETATM    4  O   UNL     1       4.530  26.909  53.708  1.00  0.00    -0.267 OA
HETATM    5  C   UNL     1       4.554  29.241  54.201  1.00  0.00     0.040 A 
HETATM    6  C   UNL     1       4.982  29.966  55.312  1.00  0.00    -0.015 A 
HETATM    7  C   UNL     1       3.925  29.828  53.119  1.00  0.00     0.017 A 
HETATM    8  C   UNL     1       3.723  31.208  53.167  1.00  0.00     0.001 A 
HETATM    9  C   UNL     1       4.142  31.955  54.284  1.00  0.00     0.001 A 
HETATM   10  C   UNL     1       4.771  31.336  55.369  1.00  0.00     0.011 A 
ENDROOT
BRANCH   1  11
HETATM   11  C   UNL     1       6.925  29.518  56.693  1.00  0.00     0.004 A 
HETATM   12  C   UNL     1       8.096  29.278  55.971  1.00  0.00     0.017 A 
HETATM   13  C   UNL     1       8.294  28.540  54.689  1.00  0.00     0.069 C 
HETATM   14  N   UNL     1       9.145  29.835  56.670  1.00  0.00    -0.354 N 
HETATM   15  C   UNL     1      10.544  29.752  56.300  1.00  0.00     0.156 C 
HETATM   16  C   UNL     1       8.684  30.494  57.790  1.00  0.00     0.045 A 
HETATM   17  C   UNL     1       7.301  30.308  57.836  1.00  0.00     0.001 A 
HETATM   18  C   UNL     1       9.374  31.234  58.767  1.00  0.00     0.030 A 
HETATM   19  C   UNL     1       6.590  30.882  58.915  1.00  0.00     0.014 A 
HETATM   20  C   UNL     1       7.267  31.617  59.893  1.00  0.00     0.001 A 
HETATM   21  C   UNL     1       8.642  31.791  59.818  1.00  0.00     0.002 A 
ENDBRANCH   1  11
BRANCH   2  22
HETATM   22  C   UNL     1       5.726  26.502  56.368  1.00  0.00     0.229 C 
BRANCH  22  23
HETATM   23  C   UNL     1       7.002  25.695  56.091  1.00  0.00     0.235 C 
HETATM   24  N   UNL     1       7.064  25.074  54.864  1.00  0.00    -0.357 N 
HETATM   25  H   UNL     1       6.226  25.085  54.280  1.00  0.00     0.162 HD
HETATM   26  O   UNL     1       7.831  25.483  56.977  1.00  0.00    -0.272 OA
BRANCH  24  27
HETATM   27  C   UNL     1       8.100  24.107  54.550  1.00  0.00     0.154 C 
BRANCH  27  28
HETATM   28  C   UNL     1       7.570  22.670  54.457  1.00  0.00     0.139 C 
HETATM   29  O   UNL     1       8.423  21.862  53.623  1.00  0.00    -0.384 OA
HETATM   30  C   UNL     1       8.160  20.505  53.991  1.00  0.00     0.168 C 
HETATM   31  C   UNL     1       7.927  20.522  55.486  1.00  0.00     0.029 C 
HETATM   32  C   UNL     1       7.544  21.955  55.802  1.00  0.00     0.035 C 
ENDBRANCH  27  28
ENDBRANCH  24  27
ENDBRANCH  22  23
ENDBRANCH   2  22
TORSDOF 5
ENDMDL
MODEL 7
REMARK VINA RESULT:      -8.1      3.755      7.475
REMARK  5 active torsions:
REMARK  status: ('A' for Active; 'I' for Inactive)
REMARK    1  A    between atoms: C_7  and  C_8 
REMARK    2  A    between atoms: N_9  and  C_10 
REMARK    3  A    between atoms: C_10  and  C_11 
REMARK       I    between atoms: C_11  and  N_12 
REMARK    4  A    between atoms: N_12  and  C_13 
REMARK    5  A    between atoms: C_13  and  C_14 
ROOT
HETATM    1  C   UNL     1       4.613  29.053  51.133  1.00  0.00     0.158 C 
HETATM    2  N   UNL     1       3.777  29.409  52.267  1.00  0.00    -0.326 N 
HETATM    3  C   UNL     1       3.884  30.761  52.554  1.00  0.00     0.255 C 
HETATM    4  O   UNL     1       3.465  31.346  53.536  1.00  0.00    -0.267 OA
HETATM    5  C   UNL     1       4.630  31.388  51.455  1.00  0.00     0.040 A 
HETATM    6  C   UNL     1       5.054  30.380  50.591  1.00  0.00    -0.015 A 
HETATM    7  C   UNL     1       4.929  32.723  51.256  1.00  0.00     0.017 A 
HETATM    8  C   UNL     1       5.691  33.047  50.132  1.00  0.00     0.001 A 
HETATM    9  C   UNL     1       6.134  32.042  49.253  1.00  0.00     0.001 A 
HETATM   10  C   UNL     1       5.822  30.698  49.481  1.00  0.00     0.011 A 
ENDROOT
BRANCH   1  11
HETATM   11  C   UNL     1       3.879  28.329  50.045  1.00  0.00     0.004 A 
HETATM   12  C   UNL     1       4.109  27.008  49.657  1.00  0.00     0.017 A 
HETATM   13  C   UNL     1       5.063  26.002  50.210  1.00  0.00     0.069 C 
HETATM   14  N   UNL     1       3.291  26.733  48.583  1.00  0.00    -0.354 N 
HETATM   15  C   UNL     1       3.268  25.492  47.835  1.00  0.00     0.156 C 
HETATM   16  C   UNL     1       2.480  27.814  48.304  1.00  0.00     0.045 A 
HETATM   17  C   UNL     1       2.829  28.830  49.197  1.00  0.00     0.001 A 
HETATM   18  C   UNL     1       1.474  27.979  47.336  1.00  0.00     0.030 A 
HETATM   19  C   UNL     1       2.142  30.062  49.101  1.00  0.00     0.014 A 
HETATM   20  C   UNL     1       1.141  30.237  48.140  1.00  0.00     0.001 A 
HETATM   21  C   UNL     1       0.812  29.207  47.270  1.00  0.00     0.002 A 
ENDBRANCH   1  11
BRANCH   2  22
HETATM   22  C   UNL     1       3.445  28.413  53.276  1.00  0.00     0.229 C 
BRANCH  22  23
HETATM   23  C   UNL     1       4.603  27.919  54.154  1.00  0.00     0.235 C 
HETATM   24  N   UNL     1       4.786  26.556  54.195  1.00  0.00    -0.357 N 
HETATM   25  H   UNL     1       4.078  25.966  53.752  1.00  0.00     0.162 HD
HETATM   26  O   UNL     1       5.215  28.687  54.899  1.00  0.00    -0.272 OA
BRANCH  24  27
HETATM   27  C   UNL     1       5.693  25.935  55.144  1.00  0.00     0.154 C 
BRANCH  27  28
HETATM   28  C   UNL     1       6.860  25.204  54.466  1.00  0.00     0.139 C 
HETATM   29  O   UNL     1       6.388  24.059  53.730  1.00  0.00    -0.384 OA
HETATM   30  C   UNL     1       7.407  23.763  52.770  1.00  0.00     0.168 C 
HETATM   31  C   UNL     1       7.951  25.102  52.322  1.00  0.00     0.029 C 
HETATM   32  C   UNL     1       7.584  26.062  53.437  1.00  0.00     0.035 C 
ENDBRANCH  27  28
ENDBRANCH  24  27
ENDBRANCH  22  23
ENDBRANCH   2  22
TORSDOF 5
ENDMDL
MODEL 8
REMARK VINA RESULT:      -8.0      2.400      4.821
REMARK  5 active torsions:
REMARK  status: ('A' for Active; 'I' for Inactive)
REMARK    1  A    between atoms: C_7  and  C_8 
REMARK    2  A    between atoms: N_9  and  C_10 
REMARK    3  A    between atoms: C_10  and  C_11 
REMARK       I    between atoms: C_11  and  N_12 
REMARK    4  A    between atoms: N_12  and  C_13 
REMARK    5  A    between atoms: C_13  and  C_14 
ROOT
HETATM    1  C   UNL     1       7.010  30.635  57.655  1.00  0.00     0.158 C 
HETATM    2  N   UNL     1       6.427  29.304  57.626  1.00  0.00    -0.326 N 
HETATM    3  C   UNL     1       7.376  28.359  57.265  1.00  0.00     0.255 C 
HETATM    4  O   UNL     1       7.186  27.192  56.973  1.00  0.00    -0.267 OA
HETATM    5  C   UNL     1       8.685  29.022  57.269  1.00  0.00     0.040 A 
HETATM    6  C   UNL     1       8.481  30.378  57.519  1.00  0.00    -0.015 A 
HETATM    7  C   UNL     1       9.937  28.481  57.043  1.00  0.00     0.017 A 
HETATM    8  C   UNL     1      11.026  29.353  57.073  1.00  0.00     0.001 A 
HETATM    9  C   UNL     1      10.838  30.726  57.317  1.00  0.00     0.001 A 
HETATM   10  C   UNL     1       9.560  31.249  57.537  1.00  0.00     0.011 A 
ENDROOT
BRANCH   1  11
HETATM   11  C   UNL     1       6.784  31.364  58.944  1.00  0.00     0.004 A 
HETATM   12  C   UNL     1       5.794  32.324  59.166  1.00  0.00     0.017 A 
HETATM   13  C   UNL     1       4.730  32.828  58.249  1.00  0.00     0.069 C 
HETATM   14  N   UNL     1       5.956  32.812  60.444  1.00  0.00    -0.354 N 
HETATM   15  C   UNL     1       5.176  33.875  61.047  1.00  0.00     0.156 C 
HETATM   16  C   UNL     1       6.977  32.147  61.090  1.00  0.00     0.045 A 
HETATM   17  C   UNL     1       7.519  31.240  60.176  1.00  0.00     0.001 A 
HETATM   18  C   UNL     1       7.470  32.275  62.401  1.00  0.00     0.030 A 
HETATM   19  C   UNL     1       8.605  30.441  60.599  1.00  0.00     0.014 A 
HETATM   20  C   UNL     1       9.104  30.562  61.900  1.00  0.00     0.001 A 
HETATM   21  C   UNL     1       8.541  31.468  62.789  1.00  0.00     0.002 A 
ENDBRANCH   1  11
BRANCH   2  22
HETATM   22  C   UNL     1       5.004  29.129  57.371  1.00  0.00     0.229 C 
BRANCH  22  23
HETATM   23  C   UNL     1       4.578  29.070  55.898  1.00  0.00     0.235 C 
HETATM   24  N   UNL     1       4.638  27.829  55.306  1.00  0.00    -0.357 N 
HETATM   25  H   UNL     1       5.072  27.069  55.833  1.00  0.00     0.162 HD
HETATM   26  O   UNL     1       4.360  30.096  55.252  1.00  0.00    -0.272 OA
BRANCH  24  27
HETATM   27  C   UNL     1       4.477  27.658  53.873  1.00  0.00     0.154 C 
BRANCH  27  28
HETATM   28  C   UNL     1       5.412  26.590  53.289  1.00  0.00     0.139 C 
HETATM   29  O   UNL     1       6.790  26.992  53.413  1.00  0.00    -0.384 OA
HETATM   30  C   UNL     1       7.559  25.789  53.324  1.00  0.00     0.168 C 
HETATM   31  C   UNL     1       6.746  24.727  54.031  1.00  0.00     0.029 C 
HETATM   32  C   UNL     1       5.325  25.256  54.019  1.00  0.00     0.035 C 
ENDBRANCH  27  28
ENDBRANCH  24  27
ENDBRANCH  22  23
ENDBRANCH   2  22
TORSDOF 5
ENDMDL
MODEL 9
REMARK VINA RESULT:      -7.9      4.491      7.100
REMARK  5 active torsions:
REMARK  status: ('A' for Active; 'I' for Inactive)
REMARK    1  A    between atoms: C_7  and  C_8 
REMARK    2  A    between atoms: N_9  and  C_10 
REMARK    3  A    between atoms: C_10  and  C_11 
REMARK       I    between atoms: C_11  and  N_12 
REMARK    4  A    between atoms: N_12  and  C_13 
REMARK    5  A    between atoms: C_13  and  C_14 
ROOT
HETATM    1  C   UNL     1       3.734  33.477  60.032  1.00  0.00     0.158 C 
HETATM    2  N   UNL     1       4.218  32.628  58.956  1.00  0.00    -0.326 N 
HETATM    3  C   UNL     1       4.481  33.377  57.819  1.00  0.00     0.255 C 
HETATM    4  O   UNL     1       4.723  32.964  56.699  1.00  0.00    -0.267 OA
HETATM    5  C   UNL     1       4.394  34.794  58.192  1.00  0.00     0.040 A 
HETATM    6  C   UNL     1       3.967  34.865  59.517  1.00  0.00    -0.015 A 
HETATM    7  C   UNL     1       4.641  35.915  57.421  1.00  0.00     0.017 A 
HETATM    8  C   UNL     1       4.447  37.160  58.022  1.00  0.00     0.001 A 
HETATM    9  C   UNL     1       4.009  37.251  59.356  1.00  0.00     0.001 A 
HETATM   10  C   UNL     1       3.761  36.101  60.112  1.00  0.00     0.011 A 
ENDROOT
BRANCH   1  11
HETATM   11  C   UNL     1       4.499  33.323  61.312  1.00  0.00     0.004 A 
HETATM   12  C   UNL     1       3.978  33.523  62.592  1.00  0.00     0.017 A 
HETATM   13  C   UNL     1       2.592  33.883  63.014  1.00  0.00     0.069 C 
HETATM   14  N   UNL     1       5.004  33.359  63.497  1.00  0.00    -0.354 N 
HETATM   15  C   UNL     1       4.903  33.546  64.931  1.00  0.00     0.156 C 
HETATM   16  C   UNL     1       6.164  32.986  62.850  1.00  0.00     0.045 A 
HETATM   17  C   UNL     1       5.882  32.962  61.483  1.00  0.00     0.001 A 
HETATM   18  C   UNL     1       7.437  32.674  63.359  1.00  0.00     0.030 A 
HETATM   19  C   UNL     1       6.928  32.621  60.596  1.00  0.00     0.014 A 
HETATM   20  C   UNL     1       8.199  32.311  61.091  1.00  0.00     0.001 A 
HETATM   21  C   UNL     1       8.448  32.337  62.457  1.00  0.00     0.002 A 
ENDBRANCH   1  11
BRANCH   2  22
HETATM   22  C   UNL     1       3.847  31.222  58.905  1.00  0.00     0.229 C 
BRANCH  22  23
HETATM   23  C   UNL     1       4.528  30.376  57.820  1.00  0.00     0.235 C 
HETATM   24  N   UNL     1       5.902  30.327  57.873  1.00  0.00    -0.357 N 
HETATM   25  H   UNL     1       6.377  30.943  58.537  1.00  0.00     0.162 HD
HETATM   26  O   UNL     1       3.891  29.915  56.872  1.00  0.00    -0.272 OA
BRANCH  24  27
HETATM   27  C   UNL     1       6.688  29.753  56.796  1.00  0.00     0.154 C 
BRANCH  27  28
HETATM   28  C   UNL     1       8.123  29.407  57.219  1.00  0.00     0.139 C 
HETATM   29  O   UNL     1       9.003  29.391  56.079  1.00  0.00    -0.384 OA
HETATM   30  C   UNL     1      10.324  29.563  56.602  1.00  0.00     0.168 C 
HETATM   31  C   UNL     1      10.185  30.524  57.762  1.00  0.00     0.029 C 
HETATM   32  C   UNL     1       8.728  30.431  58.170  1.00  0.00     0.035 C 
ENDBRANCH  27  28
ENDBRANCH  24  27
ENDBRANCH  22  23
ENDBRANCH   2  22
TORSDOF 5
ENDMDL
MODEL 10
REMARK VINA RESULT:      -7.9      8.654     12.484
REMARK  5 active torsions:
REMARK  status: ('A' for Active; 'I' for Inactive)
REMARK    1  A    between atoms: C_7  and  C_8 
REMARK    2  A    between atoms: N_9  and  C_10 
REMARK    3  A    between atoms: C_10  and  C_11 
REMARK       I    between atoms: C_11  and  N_12 
REMARK    4  A    between atoms: N_12  and  C_13 
REMARK    5  A    between atoms: C_13  and  C_14 
ROOT
HETATM    1  C   UNL     1       4.880  33.755  62.777  1.00  0.00     0.158 C 
HETATM    2  N   UNL     1       5.324  33.906  64.153  1.00  0.00    -0.326 N 
HETATM    3  C   UNL     1       6.578  33.341  64.332  1.00  0.00     0.255 C 
HETATM    4  O   UNL     1       7.155  33.136  65.384  1.00  0.00    -0.267 OA
HETATM    5  C   UNL     1       7.101  32.997  63.004  1.00  0.00     0.040 A 
HETATM    6  C   UNL     1       6.103  33.257  62.066  1.00  0.00    -0.015 A 
HETATM    7  C   UNL     1       8.335  32.475  62.662  1.00  0.00     0.017 A 
HETATM    8  C   UNL     1       8.564  32.207  61.311  1.00  0.00     0.001 A 
HETATM    9  C   UNL     1       7.566  32.456  60.352  1.00  0.00     0.001 A 
HETATM   10  C   UNL     1       6.324  32.980  60.725  1.00  0.00     0.011 A 
ENDROOT
BRANCH   1  11
HETATM   11  C   UNL     1       4.461  35.041  62.133  1.00  0.00     0.004 A 
HETATM   12  C   UNL     1       5.018  36.294  62.395  1.00  0.00     0.017 A 
HETATM   13  C   UNL     1       6.142  36.669  63.302  1.00  0.00     0.069 C 
HETATM   14  N   UNL     1       4.318  37.229  61.665  1.00  0.00    -0.354 N 
HETATM   15  C   UNL     1       4.532  38.662  61.703  1.00  0.00     0.156 C 
HETATM   16  C   UNL     1       3.366  36.615  60.878  1.00  0.00     0.045 A 
HETATM   17  C   UNL     1       3.426  35.247  61.153  1.00  0.00     0.001 A 
HETATM   18  C   UNL     1       2.456  37.154  59.951  1.00  0.00     0.030 A 
HETATM   19  C   UNL     1       2.526  34.394  60.475  1.00  0.00     0.014 A 
HETATM   20  C   UNL     1       1.615  34.920  59.553  1.00  0.00     0.001 A 
HETATM   21  C   UNL     1       1.582  36.284  59.295  1.00  0.00     0.002 A 
ENDBRANCH   1  11
BRANCH   2  22
HETATM   22  C   UNL     1       4.352  34.025  65.230  1.00  0.00     0.229 C 
BRANCH  22  23
HETATM   23  C   UNL     1       4.843  34.699  66.519  1.00  0.00     0.235 C 
HETATM   24  N   UNL     1       5.211  33.850  67.537  1.00  0.00    -0.357 N 
HETATM   25  H   UNL     1       5.020  32.853  67.420  1.00  0.00     0.162 HD
HETATM   26  O   UNL     1       4.749  35.917  66.681  1.00  0.00    -0.272 OA
BRANCH  24  27
HETATM   27  C   UNL     1       5.485  34.338  68.877  1.00  0.00     0.154 C 
BRANCH  27  28
HETATM   28  C   UNL     1       6.891  33.974  69.372  1.00  0.00     0.139 C 
HETATM   29  O   UNL     1       7.607  35.151  69.792  1.00  0.00    -0.384 OA
HETATM   30  C   UNL     1       8.642  34.690  70.666  1.00  0.00     0.168 C 
HETATM   31  C   UNL     1       8.042  33.538  71.442  1.00  0.00     0.029 C 
HETATM   32  C   UNL     1       6.877  33.065  70.594  1.00  0.00     0.035 C 
ENDBRANCH  27  28
ENDBRANCH  24  27
ENDBRANCH  22  23
ENDBRANCH   2  22
TORSDOF 5
ENDMDL
