MODEL 1
REMARK VINA RESULT:      -9.5      0.000      0.000
REMARK  7 active torsions:
REMARK  status: ('A' for Active; 'I' for Inactive)
REMARK    1  A    between atoms: C_4  and  C_5 
REMARK    2  A    between atoms: C_5  and  N_6 
REMARK       I    between atoms: N_6  and  C_7 
REMARK       I    between atoms: C_7  and  N_8 
REMARK    3  A    between atoms: N_8  and  C_9 
REMARK    4  A    between atoms: C_9  and  C_10 
REMARK    5  A    between atoms: C_12  and  O_13 
REMARK    6  A    between atoms: O_13  and  C_14 
REMARK    7  A    between atoms: C_23  and  O_24 
ROOT
HETATM    1  N   UNL     1       6.794  26.120  54.555  1.00  0.00    -0.335 N 
HETATM    2  C   UNL     1       6.097  27.192  55.019  1.00  0.00     0.316 C 
HETATM    3  N   UNL     1       6.821  28.314  55.261  1.00  0.00    -0.339 N 
HETATM    4  O   UNL     1       4.885  27.213  55.197  1.00  0.00    -0.247 OA
HETATM    5  H   UNL     1       7.777  26.099  54.762  1.00  0.00     0.165 HD
HETATM    6  H   UNL     1       6.243  29.085  55.572  1.00  0.00     0.164 HD
ENDROOT
BRANCH   1   7
HETATM    7  C   UNL     1       6.155  24.829  54.319  1.00  0.00     0.118 C 
HETATM    8  C   UNL     1       5.672  24.769  52.869  1.00  0.00     0.037 C 
BRANCH   7   9
HETATM    9  C   UNL     1       7.069  23.640  54.616  1.00  0.00    -0.002 A 
HETATM   10  C   UNL     1       7.364  22.675  53.631  1.00  0.00     0.018 A 
HETATM   11  C   UNL     1       8.176  21.570  53.912  1.00  0.00    -0.061 A 
HETATM   12  C   UNL     1       8.485  20.550  52.855  1.00  0.00     0.048 C 
HETATM   13  C   UNL     1       8.693  21.419  55.200  1.00  0.00     0.009 A 
HETATM   14  C   UNL     1       8.401  22.355  56.194  1.00  0.00     0.038 A 
HETATM   15  C   UNL     1       7.593  23.462  55.915  1.00  0.00     0.076 A 
BRANCH  15  16
HETATM   16  O   UNL     1       7.233  24.406  56.843  1.00  0.00    -0.355 OA
HETATM   17  C   UNL     1       8.276  25.126  57.486  1.00  0.00     0.210 C 
ENDBRANCH  15  16
ENDBRANCH   7   9
ENDBRANCH   1   7
BRANCH   3  18
HETATM   18  C   UNL     1       8.216  28.578  54.983  1.00  0.00     0.163 C 
BRANCH  18  19
HETATM   19  C   UNL     1       8.919  29.251  56.133  1.00  0.00    -0.035 A 
HETATM   20  C   UNL     1       8.268  29.423  57.357  1.00  0.00     0.066 A 
HETATM   21  C   UNL     1       8.952  30.041  58.393  1.00  0.00     0.164 A 
HETATM   22  N   UNL     1      10.222  30.483  58.302  1.00  0.00    -0.237 NA
HETATM   23  C   UNL     1      10.842  30.290  57.120  1.00  0.00     0.120 A 
HETATM   24  C   UNL     1      10.245  29.686  56.025  1.00  0.00     0.028 A 
BRANCH  21  25
HETATM   25  O   UNL     1       8.260  30.208  59.578  1.00  0.00    -0.329 OA
BRANCH  25  26
HETATM   26  C   UNL     1       8.836  31.137  60.520  1.00  0.00     0.130 C 
HETATM   27  C   UNL     1       7.890  32.222  61.102  1.00  0.00     0.032 C 
HETATM   28  C   UNL     1       8.579  32.008  62.461  1.00  0.00     0.005 C 
HETATM   29  C   UNL     1       8.957  30.599  61.971  1.00  0.00     0.032 C 
ENDBRANCH  25  26
ENDBRANCH  21  25
ENDBRANCH  18  19
ENDBRANCH   3  18
TORSDOF 7
ENDMDL
MODEL 2
REMARK VINA RESULT:      -8.7      2.003      9.000
REMARK  7 active torsions:
REMARK  status: ('A' for Active; 'I' for Inactive)
REMARK    1  A    between atoms: C_4  and  C_5 
REMARK    2  A    between atoms: C_5  and  N_6 
REMARK       I    between atoms: N_6  and  C_7 
REMARK       I    between atoms: C_7  and  N_8 
REMARK    3  A    between atoms: N_8  and  C_9 
REMARK    4  A    between atoms: C_9  and  C_10 
REMARK    5  A    between atoms: C_12  and  O_13 
REMARK    6  A    between atoms: O_13  and  C_14 
REMARK    7  A    between atoms: C_23  and  O_24 
ROOT
HETATM    1  N   UNL     1       6.237  29.940  58.025  1.00  0.00    -0.335 N 
HETATM    2  C   UNL     1       6.070  29.603  56.718  1.00  0.00     0.316 C 
HETATM    3  N   UNL     1       5.941  28.277  56.457  1.00  0.00    -0.339 N 
HETATM    4  O   UNL     1       6.000  30.403  55.794  1.00  0.00    -0.247 OA
HETATM    5  H   UNL     1       6.607  29.228  58.629  1.00  0.00     0.165 HD
HETATM    6  H   UNL     1       5.786  28.092  55.474  1.00  0.00     0.164 HD
ENDROOT
BRANCH   1   7
HETATM    7  C   UNL     1       6.459  31.321  58.442  1.00  0.00     0.118 C 
HETATM    8  C   UNL     1       5.134  31.916  58.923  1.00  0.00     0.037 C 
BRANCH   7   9
HETATM    9  C   UNL     1       7.521  31.459  59.532  1.00  0.00    -0.002 A 
HETATM   10  C   UNL     1       7.195  31.924  60.823  1.00  0.00     0.018 A 
HETATM   11  C   UNL     1       8.173  32.080  61.813  1.00  0.00    -0.061 A 
HETATM   12  C   UNL     1       7.813  32.575  63.183  1.00  0.00     0.048 C 
HETATM   13  C   UNL     1       9.501  31.778  61.505  1.00  0.00     0.009 A 
HETATM   14  C   UNL     1       9.848  31.329  60.229  1.00  0.00     0.038 A 
HETATM   15  C   UNL     1       8.872  31.170  59.240  1.00  0.00     0.076 A 
BRANCH  15  16
HETATM   16  O   UNL     1       9.137  30.768  57.955  1.00  0.00    -0.355 OA
HETATM   17  C   UNL     1      10.499  30.706  57.555  1.00  0.00     0.210 C 
ENDBRANCH  15  16
ENDBRANCH   7   9
ENDBRANCH   1   7
BRANCH   3  18
HETATM   18  C   UNL     1       5.834  27.170  57.382  1.00  0.00     0.163 C 
BRANCH  18  19
HETATM   19  C   UNL     1       6.775  26.042  57.048  1.00  0.00    -0.035 A 
HETATM   20  C   UNL     1       6.469  25.146  56.021  1.00  0.00     0.066 A 
HETATM   21  C   UNL     1       7.364  24.125  55.740  1.00  0.00     0.164 A 
HETATM   22  N   UNL     1       8.530  23.943  56.391  1.00  0.00    -0.237 NA
HETATM   23  C   UNL     1       8.820  24.830  57.365  1.00  0.00     0.120 A 
HETATM   24  C   UNL     1       7.991  25.880  57.723  1.00  0.00     0.028 A 
BRANCH  21  25
HETATM   25  O   UNL     1       7.009  23.252  54.730  1.00  0.00    -0.329 OA
BRANCH  25  26
HETATM   26  C   UNL     1       8.015  22.292  54.341  1.00  0.00     0.130 C 
HETATM   27  C   UNL     1       7.764  20.813  54.739  1.00  0.00     0.032 C 
HETATM   28  C   UNL     1       8.318  20.411  53.361  1.00  0.00     0.005 C 
HETATM   29  C   UNL     1       7.921  21.814  52.868  1.00  0.00     0.032 C 
ENDBRANCH  25  26
ENDBRANCH  21  25
ENDBRANCH  18  19
ENDBRANCH   3  18
TORSDOF 7
ENDMDL
MODEL 3
REMARK VINA RESULT:      -8.7      1.985      3.014
REMARK  7 active torsions:
REMARK  status: ('A' for Active; 'I' for Inactive)
REMARK    1  A    between atoms: C_4  and  C_5 
REMARK    2  A    between atoms: C_5  and  N_6 
REMARK       I    between atoms: N_6  and  C_7 
REMARK       I    between atoms: C_7  and  N_8 
REMARK    3  A    between atoms: N_8  and  C_9 
REMARK    4  A    between atoms: C_9  and  C_10 
REMARK    5  A    between atoms: C_12  and  O_13 
REMARK    6  A    between atoms: O_13  and  C_14 
REMARK    7  A    between atoms: C_23  and  O_24 
ROOT
HETATM    1  N   UNL     1       6.907  26.553  56.998  1.00  0.00    -0.335 N 
HETATM    2  C   UNL     1       8.205  26.788  57.328  1.00  0.00     0.316 C 
HETATM    3  N   UNL     1       8.575  28.093  57.395  1.00  0.00    -0.339 N 
HETATM    4  O   UNL     1       9.027  25.919  57.592  1.00  0.00    -0.247 OA
HETATM    5  H   UNL     1       6.433  27.279  56.491  1.00  0.00     0.165 HD
HETATM    6  H   UNL     1       9.541  28.204  57.677  1.00  0.00     0.164 HD
ENDROOT
BRANCH   1   7
HETATM    7  C   UNL     1       6.390  25.199  56.820  1.00  0.00     0.118 C 
HETATM    8  C   UNL     1       4.903  25.182  57.181  1.00  0.00     0.037 C 
BRANCH   7   9
HETATM    9  C   UNL     1       6.593  24.656  55.407  1.00  0.00    -0.002 A 
HETATM   10  C   UNL     1       5.781  25.078  54.333  1.00  0.00     0.018 A 
HETATM   11  C   UNL     1       5.947  24.558  53.044  1.00  0.00    -0.061 A 
HETATM   12  C   UNL     1       5.079  25.016  51.909  1.00  0.00     0.048 C 
HETATM   13  C   UNL     1       6.930  23.591  52.825  1.00  0.00     0.009 A 
HETATM   14  C   UNL     1       7.735  23.148  53.877  1.00  0.00     0.038 A 
HETATM   15  C   UNL     1       7.573  23.670  55.165  1.00  0.00     0.076 A 
BRANCH  15  16
HETATM   16  O   UNL     1       8.299  23.263  56.256  1.00  0.00    -0.355 OA
HETATM   17  C   UNL     1       8.275  21.879  56.581  1.00  0.00     0.210 C 
ENDBRANCH  15  16
ENDBRANCH   7   9
ENDBRANCH   1   7
BRANCH   3  18
HETATM   18  C   UNL     1       7.758  29.281  57.282  1.00  0.00     0.163 C 
BRANCH  18  19
HETATM   19  C   UNL     1       8.248  30.407  58.154  1.00  0.00    -0.035 A 
HETATM   20  C   UNL     1       7.398  30.993  59.097  1.00  0.00     0.066 A 
HETATM   21  C   UNL     1       7.889  32.022  59.885  1.00  0.00     0.164 A 
HETATM   22  N   UNL     1       9.149  32.495  59.812  1.00  0.00    -0.237 NA
HETATM   23  C   UNL     1       9.961  31.904  58.912  1.00  0.00     0.120 A 
HETATM   24  C   UNL     1       9.565  30.871  58.077  1.00  0.00     0.028 A 
BRANCH  21  25
HETATM   25  O   UNL     1       7.006  32.583  60.789  1.00  0.00    -0.329 OA
BRANCH  25  26
HETATM   26  C   UNL     1       7.595  33.140  61.984  1.00  0.00     0.130 C 
HETATM   27  C   UNL     1       6.616  33.688  63.057  1.00  0.00     0.032 C 
HETATM   28  C   UNL     1       7.538  33.076  64.125  1.00  0.00     0.005 C 
HETATM   29  C   UNL     1       8.022  32.091  63.046  1.00  0.00     0.032 C 
ENDBRANCH  25  26
ENDBRANCH  21  25
ENDBRANCH  18  19
ENDBRANCH   3  18
TORSDOF 7
ENDMDL
MODEL 4
REMARK VINA RESULT:      -8.5      1.869      3.055
REMARK  7 active torsions:
REMARK  status: ('A' for Active; 'I' for Inactive)
REMARK    1  A    between atoms: C_4  and  C_5 
REMARK    2  A    between atoms: C_5  and  N_6 
REMARK       I    between atoms: N_6  and  C_7 
REMARK       I    between atoms: C_7  and  N_8 
REMARK    3  A    between atoms: N_8  and  C_9 
REMARK    4  A    between atoms: C_9  and  C_10 
REMARK    5  A    between atoms: C_12  and  O_13 
REMARK    6  A    between atoms: O_13  and  C_14 
REMARK    7  A    between atoms: C_23  and  O_24 
ROOT
HETATM    1  N   UNL     1       6.653  27.724  55.729  1.00  0.00    -0.335 N 
HETATM    2  C   UNL     1       5.880  28.522  56.514  1.00  0.00     0.316 C 
HETATM    3  N   UNL     1       6.396  28.842  57.728  1.00  0.00    -0.339 N 
HETATM    4  O   UNL     1       4.792  28.980  56.187  1.00  0.00    -0.247 OA
HETATM    5  H   UNL     1       7.332  27.152  56.199  1.00  0.00     0.165 HD
HETATM    6  H   UNL     1       5.791  29.464  58.250  1.00  0.00     0.164 HD
ENDROOT
BRANCH   1   7
HETATM    7  C   UNL     1       6.192  27.243  54.430  1.00  0.00     0.118 C 
HETATM    8  C   UNL     1       6.741  28.161  53.335  1.00  0.00     0.037 C 
BRANCH   7   9
HETATM    9  C   UNL     1       6.590  25.795  54.146  1.00  0.00    -0.002 A 
HETATM   10  C   UNL     1       7.577  25.140  54.911  1.00  0.00     0.018 A 
HETATM   11  C   UNL     1       7.963  23.823  54.632  1.00  0.00    -0.061 A 
HETATM   12  C   UNL     1       9.013  23.135  55.454  1.00  0.00     0.048 C 
HETATM   13  C   UNL     1       7.362  23.153  53.564  1.00  0.00     0.009 A 
HETATM   14  C   UNL     1       6.393  23.789  52.785  1.00  0.00     0.038 A 
HETATM   15  C   UNL     1       6.004  25.103  53.065  1.00  0.00     0.076 A 
BRANCH  15  16
HETATM   16  O   UNL     1       5.086  25.806  52.326  1.00  0.00    -0.355 OA
HETATM   17  C   UNL     1       5.275  25.856  50.918  1.00  0.00     0.210 C 
ENDBRANCH  15  16
ENDBRANCH   7   9
ENDBRANCH   1   7
BRANCH   3  18
HETATM   18  C   UNL     1       7.708  28.556  58.266  1.00  0.00     0.163 C 
BRANCH  18  19
HETATM   19  C   UNL     1       8.568  29.788  58.384  1.00  0.00    -0.035 A 
HETATM   20  C   UNL     1       8.292  30.753  59.356  1.00  0.00     0.066 A 
HETATM   21  C   UNL     1       9.111  31.869  59.436  1.00  0.00     0.164 A 
HETATM   22  N   UNL     1      10.176  32.083  58.638  1.00  0.00    -0.237 NA
HETATM   23  C   UNL     1      10.439  31.131  57.720  1.00  0.00     0.120 A 
HETATM   24  C   UNL     1       9.681  29.983  57.558  1.00  0.00     0.028 A 
BRANCH  21  25
HETATM   25  O   UNL     1       8.787  32.806  60.399  1.00  0.00    -0.329 OA
BRANCH  25  26
HETATM   26  C   UNL     1       7.855  32.373  61.413  1.00  0.00     0.130 C 
HETATM   27  C   UNL     1       8.385  32.309  62.870  1.00  0.00     0.032 C 
HETATM   28  C   UNL     1       7.029  32.877  63.325  1.00  0.00     0.005 C 
HETATM   29  C   UNL     1       6.883  33.474  61.914  1.00  0.00     0.032 C 
ENDBRANCH  25  26
ENDBRANCH  21  25
ENDBRANCH  18  19
ENDBRANCH   3  18
TORSDOF 7
ENDMDL
MODEL 5
REMARK VINA RESULT:      -8.4      2.048      8.666
REMARK  7 active torsions:
REMARK  status: ('A' for Active; 'I' for Inactive)
REMARK    1  A    between atoms: C_4  and  C_5 
REMARK    2  A    between atoms: C_5  and  N_6 
REMARK       I    between atoms: N_6  and  C_7 
REMARK       I    between atoms: C_7  and  N_8 
REMARK    3  A    between atoms: N_8  and  C_9 
REMARK    4  A    between atoms: C_9  and  C_10 
REMARK    5  A    between atoms: C_12  and  O_13 
REMARK    6  A    between atoms: O_13  and  C_14 
REMARK    7  A    between atoms: C_23  and  O_24 
ROOT
HETATM    1  N   UNL     1       7.353  27.746  57.148  1.00  0.00    -0.335 N 
HETATM    2  C   UNL     1       7.316  26.443  57.534  1.00  0.00     0.316 C 
HETATM    3  N   UNL     1       6.409  25.658  56.898  1.00  0.00    -0.339 N 
HETATM    4  O   UNL     1       8.053  25.942  58.375  1.00  0.00    -0.247 OA
HETATM    5  H   UNL     1       6.519  28.113  56.724  1.00  0.00     0.165 HD
HETATM    6  H   UNL     1       6.453  24.695  57.204  1.00  0.00     0.164 HD
ENDROOT
BRANCH   1   7
HETATM    7  C   UNL     1       8.229  28.718  57.797  1.00  0.00     0.118 C 
HETATM    8  C   UNL     1       9.354  29.096  56.831  1.00  0.00     0.037 C 
BRANCH   7   9
HETATM    9  C   UNL     1       7.496  29.974  58.265  1.00  0.00    -0.002 A 
HETATM   10  C   UNL     1       6.465  30.554  57.496  1.00  0.00     0.018 A 
HETATM   11  C   UNL     1       5.814  31.723  57.909  1.00  0.00    -0.061 A 
HETATM   12  C   UNL     1       4.718  32.330  57.084  1.00  0.00     0.048 C 
HETATM   13  C   UNL     1       6.206  32.329  59.105  1.00  0.00     0.009 A 
HETATM   14  C   UNL     1       7.234  31.779  59.874  1.00  0.00     0.038 A 
HETATM   15  C   UNL     1       7.883  30.610  59.464  1.00  0.00     0.076 A 
BRANCH  15  16
HETATM   16  O   UNL     1       8.923  30.028  60.144  1.00  0.00    -0.355 OA
HETATM   17  C   UNL     1       9.239  30.548  61.429  1.00  0.00     0.210 C 
ENDBRANCH  15  16
ENDBRANCH   7   9
ENDBRANCH   1   7
BRANCH   3  18
HETATM   18  C   UNL     1       5.551  25.979  55.778  1.00  0.00     0.163 C 
BRANCH  18  19
HETATM   19  C   UNL     1       6.190  25.667  54.450  1.00  0.00    -0.035 A 
HETATM   20  C   UNL     1       7.001  24.539  54.303  1.00  0.00     0.066 A 
HETATM   21  C   UNL     1       7.565  24.283  53.062  1.00  0.00     0.164 A 
HETATM   22  N   UNL     1       7.373  25.051  51.972  1.00  0.00    -0.237 NA
HETATM   23  C   UNL     1       6.571  26.124  52.127  1.00  0.00     0.120 A 
HETATM   24  C   UNL     1       5.963  26.467  53.324  1.00  0.00     0.028 A 
BRANCH  21  25
HETATM   25  O   UNL     1       8.375  23.167  52.970  1.00  0.00    -0.329 OA
BRANCH  25  26
HETATM   26  C   UNL     1       7.972  22.027  53.759  1.00  0.00     0.130 C 
HETATM   27  C   UNL     1       8.081  20.634  53.083  1.00  0.00     0.032 C 
HETATM   28  C   UNL     1       8.590  20.087  54.429  1.00  0.00     0.005 C 
HETATM   29  C   UNL     1       9.044  21.520  54.761  1.00  0.00     0.032 C 
ENDBRANCH  25  26
ENDBRANCH  21  25
ENDBRANCH  18  19
ENDBRANCH   3  18
TORSDOF 7
ENDMDL
MODEL 6
REMARK VINA RESULT:      -8.3      2.326      3.532
REMARK  7 active torsions:
REMARK  status: ('A' for Active; 'I' for Inactive)
REMARK    1  A    between atoms: C_4  and  C_5 
REMARK    2  A    between atoms: C_5  and  N_6 
REMARK       I    between atoms: N_6  and  C_7 
REMARK       I    between atoms: C_7  and  N_8 
REMARK    3  A    between atoms: N_8  and  C_9 
REMARK    4  A    between atoms: C_9  and  C_10 
REMARK    5  A    between atoms: C_12  and  O_13 
REMARK    6  A    between atoms: O_13  and  C_14 
REMARK    7  A    between atoms: C_23  and  O_24 
ROOT
HETATM    1  N   UNL     1       5.593  28.391  55.863  1.00  0.00    -0.335 N 
HETATM    2  C   UNL     1       5.283  29.005  57.036  1.00  0.00     0.316 C 
HETATM    3  N   UNL     1       6.275  29.054  57.963  1.00  0.00    -0.339 N 
HETATM    4  O   UNL     1       4.205  29.529  57.287  1.00  0.00    -0.247 OA
HETATM    5  H   UNL     1       6.347  27.728  55.888  1.00  0.00     0.165 HD
HETATM    6  H   UNL     1       5.995  29.551  58.799  1.00  0.00     0.164 HD
ENDROOT
BRANCH   1   7
HETATM    7  C   UNL     1       4.603  28.204  54.807  1.00  0.00     0.118 C 
HETATM    8  C   UNL     1       4.467  29.507  54.015  1.00  0.00     0.037 C 
BRANCH   7   9
HETATM    9  C   UNL     1       4.938  27.050  53.862  1.00  0.00    -0.002 A 
HETATM   10  C   UNL     1       4.828  27.190  52.463  1.00  0.00     0.018 A 
HETATM   11  C   UNL     1       5.105  26.124  51.598  1.00  0.00    -0.061 A 
HETATM   12  C   UNL     1       4.985  26.283  50.111  1.00  0.00     0.048 C 
HETATM   13  C   UNL     1       5.489  24.895  52.141  1.00  0.00     0.009 A 
HETATM   14  C   UNL     1       5.590  24.732  53.524  1.00  0.00     0.038 A 
HETATM   15  C   UNL     1       5.317  25.797  54.388  1.00  0.00     0.076 A 
BRANCH  15  16
HETATM   16  O   UNL     1       5.360  25.707  55.757  1.00  0.00    -0.355 OA
HETATM   17  C   UNL     1       6.352  24.864  56.328  1.00  0.00     0.210 C 
ENDBRANCH  15  16
ENDBRANCH   7   9
ENDBRANCH   1   7
BRANCH   3  18
HETATM   18  C   UNL     1       7.659  28.652  57.841  1.00  0.00     0.163 C 
BRANCH  18  19
HETATM   19  C   UNL     1       8.617  29.789  58.082  1.00  0.00    -0.035 A 
HETATM   20  C   UNL     1       8.352  30.739  59.073  1.00  0.00     0.066 A 
HETATM   21  C   UNL     1       9.262  31.766  59.268  1.00  0.00     0.164 A 
HETATM   22  N   UNL     1      10.405  31.907  58.568  1.00  0.00    -0.237 NA
HETATM   23  C   UNL     1      10.654  30.970  57.630  1.00  0.00     0.120 A 
HETATM   24  C   UNL     1       9.808  29.908  57.356  1.00  0.00     0.028 A 
BRANCH  21  25
HETATM   25  O   UNL     1       8.948  32.692  60.245  1.00  0.00    -0.329 OA
BRANCH  25  26
HETATM   26  C   UNL     1       8.002  32.258  61.246  1.00  0.00     0.130 C 
HETATM   27  C   UNL     1       8.527  32.137  62.701  1.00  0.00     0.032 C 
HETATM   28  C   UNL     1       7.187  32.732  63.170  1.00  0.00     0.005 C 
HETATM   29  C   UNL     1       7.063  33.374  61.776  1.00  0.00     0.032 C 
ENDBRANCH  25  26
ENDBRANCH  21  25
ENDBRANCH  18  19
ENDBRANCH   3  18
TORSDOF 7
ENDMDL
MODEL 7
REMARK VINA RESULT:      -8.3      3.501      6.837
REMARK  7 active torsions:
REMARK  status: ('A' for Active; 'I' for Inactive)
REMARK    1  A    between atoms: C_4  and  C_5 
REMARK    2  A    between atoms: C_5  and  N_6 
REMARK       I    between atoms: N_6  and  C_7 
REMARK       I    between atoms: C_7  and  N_8 
REMARK    3  A    between atoms: N_8  and  C_9 
REMARK    4  A    between atoms: C_9  and  C_10 
REMARK    5  A    between atoms: C_12  and  O_13 
REMARK    6  A    between atoms: O_13  and  C_14 
REMARK    7  A    between atoms: C_23  and  O_24 
ROOT
HETATM    1  N   UNL     1       8.798  30.398  59.097  1.00  0.00    -0.335 N 
HETATM    2  C   UNL     1       9.293  31.612  59.461  1.00  0.00     0.316 C 
HETATM    3  N   UNL     1       9.123  31.959  60.762  1.00  0.00    -0.339 N 
HETATM    4  O   UNL     1       9.894  32.373  58.712  1.00  0.00    -0.247 OA
HETATM    5  H   UNL     1       8.061  30.024  59.668  1.00  0.00     0.165 HD
HETATM    6  H   UNL     1       9.541  32.855  60.978  1.00  0.00     0.164 HD
ENDROOT
BRANCH   1   7
HETATM    7  C   UNL     1       8.847  29.928  57.716  1.00  0.00     0.118 C 
HETATM    8  C   UNL     1      10.287  29.537  57.374  1.00  0.00     0.037 C 
BRANCH   7   9
HETATM    9  C   UNL     1       7.908  28.754  57.444  1.00  0.00    -0.002 A 
HETATM   10  C   UNL     1       8.404  27.459  57.186  1.00  0.00     0.018 A 
HETATM   11  C   UNL     1       7.544  26.390  56.906  1.00  0.00    -0.061 A 
HETATM   12  C   UNL     1       8.083  25.016  56.635  1.00  0.00     0.048 C 
HETATM   13  C   UNL     1       6.167  26.620  56.872  1.00  0.00     0.009 A 
HETATM   14  C   UNL     1       5.656  27.897  57.110  1.00  0.00     0.038 A 
HETATM   15  C   UNL     1       6.513  28.966  57.393  1.00  0.00     0.076 A 
BRANCH  15  16
HETATM   16  O   UNL     1       6.092  30.254  57.604  1.00  0.00    -0.355 OA
HETATM   17  C   UNL     1       4.691  30.487  57.657  1.00  0.00     0.210 C 
ENDBRANCH  15  16
ENDBRANCH   7   9
ENDBRANCH   1   7
BRANCH   3  18
HETATM   18  C   UNL     1       8.594  31.173  61.855  1.00  0.00     0.163 C 
BRANCH  18  19
HETATM   19  C   UNL     1       7.651  31.956  62.730  1.00  0.00    -0.035 A 
HETATM   20  C   UNL     1       6.273  31.909  62.505  1.00  0.00     0.066 A 
HETATM   21  C   UNL     1       5.438  32.639  63.337  1.00  0.00     0.164 A 
HETATM   22  N   UNL     1       5.869  33.392  64.368  1.00  0.00    -0.237 NA
HETATM   23  C   UNL     1       7.201  33.410  64.583  1.00  0.00     0.120 A 
HETATM   24  C   UNL     1       8.117  32.718  63.808  1.00  0.00     0.028 A 
BRANCH  21  25
HETATM   25  O   UNL     1       4.085  32.577  63.063  1.00  0.00    -0.329 OA
BRANCH  25  26
HETATM   26  C   UNL     1       3.480  33.799  62.588  1.00  0.00     0.130 C 
HETATM   27  C   UNL     1       2.859  33.766  61.166  1.00  0.00     0.032 C 
HETATM   28  C   UNL     1       1.701  34.618  61.716  1.00  0.00     0.005 C 
HETATM   29  C   UNL     1       2.040  34.055  63.109  1.00  0.00     0.032 C 
ENDBRANCH  25  26
ENDBRANCH  21  25
ENDBRANCH  18  19
ENDBRANCH   3  18
TORSDOF 7
ENDMDL
MODEL 8
REMARK VINA RESULT:      -8.3      1.985      8.680
REMARK  7 active torsions:
REMARK  status: ('A' for Active; 'I' for Inactive)
REMARK    1  A    between atoms: C_4  and  C_5 
REMARK    2  A    between atoms: C_5  and  N_6 
REMARK       I    between atoms: N_6  and  C_7 
REMARK       I    between atoms: C_7  and  N_8 
REMARK    3  A    between atoms: N_8  and  C_9 
REMARK    4  A    between atoms: C_9  and  C_10 
REMARK    5  A    between atoms: C_12  and  O_13 
REMARK    6  A    between atoms: O_13  and  C_14 
REMARK    7  A    between atoms: C_23  and  O_24 
ROOT
HETATM    1  N   UNL     1       7.562  27.774  56.951  1.00  0.00    -0.335 N 
HETATM    2  C   UNL     1       7.441  26.495  57.397  1.00  0.00     0.316 C 
HETATM    3  N   UNL     1       6.427  25.770  56.859  1.00  0.00    -0.339 N 
HETATM    4  O   UNL     1       8.189  25.965  58.209  1.00  0.00    -0.247 OA
HETATM    5  H   UNL     1       6.735  28.197  56.566  1.00  0.00     0.165 HD
HETATM    6  H   UNL     1       6.409  24.819  57.205  1.00  0.00     0.164 HD
ENDROOT
BRANCH   1   7
HETATM    7  C   UNL     1       8.562  28.689  57.494  1.00  0.00     0.118 C 
HETATM    8  C   UNL     1       9.417  29.231  56.347  1.00  0.00     0.037 C 
BRANCH   7   9
HETATM    9  C   UNL     1       7.955  29.846  58.287  1.00  0.00    -0.002 A 
HETATM   10  C   UNL     1       8.476  30.233  59.539  1.00  0.00     0.018 A 
HETATM   11  C   UNL     1       7.901  31.273  60.280  1.00  0.00    -0.061 A 
HETATM   12  C   UNL     1       8.464  31.677  61.610  1.00  0.00     0.048 C 
HETATM   13  C   UNL     1       6.780  31.930  59.767  1.00  0.00     0.009 A 
HETATM   14  C   UNL     1       6.240  31.553  58.535  1.00  0.00     0.038 A 
HETATM   15  C   UNL     1       6.815  30.516  57.793  1.00  0.00     0.076 A 
BRANCH  15  16
HETATM   16  O   UNL     1       6.324  30.065  56.594  1.00  0.00    -0.355 OA
HETATM   17  C   UNL     1       5.332  30.855  55.951  1.00  0.00     0.210 C 
ENDBRANCH  15  16
ENDBRANCH   7   9
ENDBRANCH   1   7
BRANCH   3  18
HETATM   18  C   UNL     1       5.523  26.121  55.786  1.00  0.00     0.163 C 
BRANCH  18  19
HETATM   19  C   UNL     1       6.082  25.793  54.426  1.00  0.00    -0.035 A 
HETATM   20  C   UNL     1       6.896  24.671  54.248  1.00  0.00     0.066 A 
HETATM   21  C   UNL     1       7.385  24.399  52.979  1.00  0.00     0.164 A 
HETATM   22  N   UNL     1       7.116  25.145  51.890  1.00  0.00    -0.237 NA
HETATM   23  C   UNL     1       6.312  26.212  52.076  1.00  0.00     0.120 A 
HETATM   24  C   UNL     1       5.776  26.569  53.303  1.00  0.00     0.028 A 
BRANCH  21  25
HETATM   25  O   UNL     1       8.202  23.291  52.856  1.00  0.00    -0.329 OA
BRANCH  25  26
HETATM   26  C   UNL     1       7.872  22.166  53.699  1.00  0.00     0.130 C 
HETATM   27  C   UNL     1       7.938  20.759  53.047  1.00  0.00     0.032 C 
HETATM   28  C   UNL     1       8.557  20.246  54.360  1.00  0.00     0.005 C 
HETATM   29  C   UNL     1       9.023  21.689  54.624  1.00  0.00     0.032 C 
ENDBRANCH  25  26
ENDBRANCH  21  25
ENDBRANCH  18  19
ENDBRANCH   3  18
TORSDOF 7
ENDMDL
MODEL 9
REMARK VINA RESULT:      -8.3      2.288      3.745
REMARK  7 active torsions:
REMARK  status: ('A' for Active; 'I' for Inactive)
REMARK    1  A    between atoms: C_4  and  C_5 
REMARK    2  A    between atoms: C_5  and  N_6 
REMARK       I    between atoms: N_6  and  C_7 
REMARK       I    between atoms: C_7  and  N_8 
REMARK    3  A    between atoms: N_8  and  C_9 
REMARK    4  A    between atoms: C_9  and  C_10 
REMARK    5  A    between atoms: C_12  and  O_13 
REMARK    6  A    between atoms: O_13  and  C_14 
REMARK    7  A    between atoms: C_23  and  O_24 
ROOT
HETATM    1  N   UNL     1       6.765  26.344  56.049  1.00  0.00    -0.335 N 
HETATM    2  C   UNL     1       5.601  25.950  56.631  1.00  0.00     0.316 C 
HETATM    3  N   UNL     1       4.587  26.853  56.606  1.00  0.00    -0.339 N 
HETATM    4  O   UNL     1       5.409  24.850  57.136  1.00  0.00    -0.247 OA
HETATM    5  H   UNL     1       6.920  27.334  55.977  1.00  0.00     0.165 HD
HETATM    6  H   UNL     1       3.740  26.490  57.024  1.00  0.00     0.164 HD
ENDROOT
BRANCH   1   7
HETATM    7  C   UNL     1       7.958  25.503  56.066  1.00  0.00     0.118 C 
HETATM    8  C   UNL     1       8.258  25.093  57.509  1.00  0.00     0.037 C 
BRANCH   7   9
HETATM    9  C   UNL     1       7.834  24.261  55.184  1.00  0.00    -0.002 A 
HETATM   10  C   UNL     1       7.936  22.962  55.724  1.00  0.00     0.018 A 
HETATM   11  C   UNL     1       7.853  21.825  54.911  1.00  0.00    -0.061 A 
HETATM   12  C   UNL     1       7.961  20.448  55.497  1.00  0.00     0.048 C 
HETATM   13  C   UNL     1       7.678  21.987  53.535  1.00  0.00     0.009 A 
HETATM   14  C   UNL     1       7.590  23.265  52.979  1.00  0.00     0.038 A 
HETATM   15  C   UNL     1       7.668  24.402  53.789  1.00  0.00     0.076 A 
BRANCH  15  16
HETATM   16  O   UNL     1       7.625  25.689  53.315  1.00  0.00    -0.355 OA
HETATM   17  C   UNL     1       6.769  25.953  52.211  1.00  0.00     0.210 C 
ENDBRANCH  15  16
ENDBRANCH   7   9
ENDBRANCH   1   7
BRANCH   3  18
HETATM   18  C   UNL     1       4.524  28.136  55.940  1.00  0.00     0.163 C 
BRANCH  18  19
HETATM   19  C   UNL     1       4.996  29.267  56.816  1.00  0.00    -0.035 A 
HETATM   20  C   UNL     1       6.324  29.320  57.248  1.00  0.00     0.066 A 
HETATM   21  C   UNL     1       6.721  30.382  58.047  1.00  0.00     0.164 A 
HETATM   22  N   UNL     1       5.906  31.384  58.431  1.00  0.00    -0.237 NA
HETATM   23  C   UNL     1       4.634  31.327  57.987  1.00  0.00     0.120 A 
HETATM   24  C   UNL     1       4.139  30.309  57.188  1.00  0.00     0.028 A 
BRANCH  21  25
HETATM   25  O   UNL     1       8.038  30.381  58.466  1.00  0.00    -0.329 OA
BRANCH  25  26
HETATM   26  C   UNL     1       9.033  30.353  57.420  1.00  0.00     0.130 C 
HETATM   27  C   UNL     1      10.458  30.841  57.796  1.00  0.00     0.032 C 
HETATM   28  C   UNL     1      11.014  29.688  56.941  1.00  0.00     0.005 C 
HETATM   29  C   UNL     1       9.677  28.962  57.174  1.00  0.00     0.032 C 
ENDBRANCH  25  26
ENDBRANCH  21  25
ENDBRANCH  18  19
ENDBRANCH   3  18
TORSDOF 7
ENDMDL
MODEL 10
REMARK VINA RESULT:      -8.0      3.713      7.333
REMARK  7 active torsions:
REMARK  status: ('A' for Active; 'I' for Inactive)
REMARK    1  A    between atoms: C_4  and  C_5 
REMARK    2  A    between atoms: C_5  and  N_6 
REMARK       I    between atoms: N_6  and  C_7 
REMARK       I    between atoms: C_7  and  N_8 
REMARK    3  A    between atoms: N_8  and  C_9 
REMARK    4  A    between atoms: C_9  and  C_10 
REMARK    5  A    between atoms: C_12  and  O_13 
REMARK    6  A    between atoms: O_13  and  C_14 
REMARK    7  A    between atoms: C_23  and  O_24 
ROOT
HETATM    1  N   UNL     1       6.963  26.305  55.562  1.00  0.00    -0.335 N 
HETATM    2  C   UNL     1       7.149  27.652  55.574  1.00  0.00     0.316 C 
HETATM    3  N   UNL     1       6.107  28.401  55.130  1.00  0.00    -0.339 N 
HETATM    4  O   UNL     1       8.160  28.215  55.978  1.00  0.00    -0.247 OA
HETATM    5  H   UNL     1       6.273  25.952  54.924  1.00  0.00     0.165 HD
HETATM    6  H   UNL     1       6.293  29.394  55.194  1.00  0.00     0.164 HD
ENDROOT
BRANCH   1   7
HETATM    7  C   UNL     1       8.024  25.378  55.944  1.00  0.00     0.118 C 
HETATM    8  C   UNL     1       7.981  25.168  57.459  1.00  0.00     0.037 C 
BRANCH   7   9
HETATM    9  C   UNL     1       7.937  24.031  55.227  1.00  0.00    -0.002 A 
HETATM   10  C   UNL     1       7.950  22.815  55.941  1.00  0.00     0.018 A 
HETATM   11  C   UNL     1       7.901  21.581  55.282  1.00  0.00    -0.061 A 
HETATM   12  C   UNL     1       7.915  20.293  56.051  1.00  0.00     0.048 C 
HETATM   13  C   UNL     1       7.850  21.560  53.886  1.00  0.00     0.009 A 
HETATM   14  C   UNL     1       7.850  22.753  53.160  1.00  0.00     0.038 A 
HETATM   15  C   UNL     1       7.895  23.987  53.817  1.00  0.00     0.076 A 
BRANCH  15  16
HETATM   16  O   UNL     1       7.934  25.198  53.175  1.00  0.00    -0.355 OA
HETATM   17  C   UNL     1       7.139  25.348  52.005  1.00  0.00     0.210 C 
ENDBRANCH  15  16
ENDBRANCH   7   9
ENDBRANCH   1   7
BRANCH   3  18
HETATM   18  C   UNL     1       4.775  27.980  54.756  1.00  0.00     0.163 C 
BRANCH  18  19
HETATM   19  C   UNL     1       4.191  28.819  53.650  1.00  0.00    -0.035 A 
HETATM   20  C   UNL     1       3.912  28.252  52.403  1.00  0.00     0.066 A 
HETATM   21  C   UNL     1       3.368  29.056  51.414  1.00  0.00     0.164 A 
HETATM   22  N   UNL     1       3.076  30.362  51.577  1.00  0.00    -0.237 NA
HETATM   23  C   UNL     1       3.332  30.887  52.792  1.00  0.00     0.120 A 
HETATM   24  C   UNL     1       3.876  30.169  53.844  1.00  0.00     0.028 A 
BRANCH  21  25
HETATM   25  O   UNL     1       3.128  28.456  50.192  1.00  0.00    -0.329 OA
BRANCH  25  26
HETATM   26  C   UNL     1       4.279  27.886  49.532  1.00  0.00     0.130 C 
HETATM   27  C   UNL     1       4.213  26.372  49.193  1.00  0.00     0.032 C 
HETATM   28  C   UNL     1       4.895  26.704  47.854  1.00  0.00     0.005 C 
HETATM   29  C   UNL     1       4.336  28.130  48.000  1.00  0.00     0.032 C 
ENDBRANCH  25  26
ENDBRANCH  21  25
ENDBRANCH  18  19
ENDBRANCH   3  18
TORSDOF 7
ENDMDL
