MODEL 1
REMARK VINA RESULT:      -7.9      0.000      0.000
REMARK  4 active torsions:
REMARK  status: ('A' for Active; 'I' for Inactive)
REMARK    1  A    between atoms: C_2  and  C_3 
REMARK    2  A    between atoms: C_3  and  C_4 
REMARK    3  A    between atoms: C_4  and  C_5 
REMARK    4  A    between atoms: C_25  and  N_26 
ROOT
HETATM    1  C   UNL     1       7.177  24.396  54.860  1.00  0.00     0.067 A 
HETATM    2  N   UNL     1       7.142  23.586  53.787  1.00  0.00    -0.177 NA
HETATM    3  N   UNL     1       6.242  24.157  52.964  1.00  0.00    -0.256 N 
HETATM    4  H   UNL     1       6.025  23.702  52.084  1.00  0.00     0.191 HD
HETATM    5  C   UNL     1       5.716  25.297  53.476  1.00  0.00     0.176 A 
HETATM    6  C   UNL     1       6.323  25.516  54.688  1.00  0.00     0.049 A 
HETATM    7  C   UNL     1       5.935  26.712  55.489  1.00  0.00     0.144 A 
HETATM    8  C   UNL     1       5.562  26.328  56.946  1.00  0.00     0.246 A 
HETATM    9  O   UNL     1       4.616  25.655  57.324  1.00  0.00    -0.271 OA
HETATM   10  N   UNL     1       6.503  26.921  57.781  1.00  0.00    -0.325 N 
HETATM   11  C   UNL     1       7.442  27.642  57.058  1.00  0.00     0.043 A 
HETATM   12  C   UNL     1       7.181  27.561  55.682  1.00  0.00     0.003 A 
HETATM   13  C   UNL     1       8.501  28.351  57.585  1.00  0.00     0.030 A 
HETATM   14  C   UNL     1       9.336  29.012  56.689  1.00  0.00     0.003 A 
HETATM   15  C   UNL     1       9.094  28.953  55.305  1.00  0.00     0.007 A 
HETATM   16  C   UNL     1       8.005  28.233  54.777  1.00  0.00    -0.051 A 
HETATM   17  C   UNL     1       7.793  28.202  53.293  1.00  0.00     0.049 C 
HETATM   18  C   UNL     1       4.764  27.441  54.844  1.00  0.00     0.081 A 
HETATM   19  C   UNL     1       4.095  28.535  55.659  1.00  0.00     0.021 C 
HETATM   20  N   UNL     1       3.539  29.443  56.336  1.00  0.00    -0.096 N 
HETATM   21  C   UNL     1       4.244  27.090  53.636  1.00  0.00     0.140 A 
HETATM   22  O   UNL     1       4.768  26.020  52.889  1.00  0.00    -0.279 OA
HETATM   23  H   UNL     1       6.470  26.838  58.787  1.00  0.00     0.169 HD
ENDROOT
BRANCH  21  24
HETATM   24  N   UNL     1       3.174  27.696  53.017  1.00  0.00    -0.282 NA
HETATM   25  H   UNL     1       2.856  27.254  52.158  1.00  0.00     0.126 HD
HETATM   26  H   UNL     1       3.319  28.697  52.909  1.00  0.00     0.126 HD
ENDBRANCH  21  24
BRANCH   1  27
HETATM   27  C   UNL     1       8.029  24.021  56.030  1.00  0.00     0.062 C 
BRANCH  27  28
HETATM   28  C   UNL     1       8.852  22.759  55.753  1.00  0.00     0.006 C 
BRANCH  28  29
HETATM   29  C   UNL     1       8.412  21.592  56.636  1.00  0.00    -0.004 C 
HETATM   30  C   UNL     1       7.682  20.532  55.827  1.00  0.00     0.005 C 
ENDBRANCH  28  29
ENDBRANCH  27  28
ENDBRANCH   1  27
TORSDOF 4
ENDMDL
MODEL 2
REMARK VINA RESULT:      -7.4     14.947     17.489
REMARK  4 active torsions:
REMARK  status: ('A' for Active; 'I' for Inactive)
REMARK    1  A    between atoms: C_2  and  C_3 
REMARK    2  A    between atoms: C_3  and  C_4 
REMARK    3  A    between atoms: C_4  and  C_5 
REMARK    4  A    between atoms: C_25  and  N_26 
ROOT
HETATM    1  C   UNL     1      13.853  11.126  51.455  1.00  0.00     0.067 A 
HETATM    2  N   UNL     1      13.675  12.143  50.593  1.00  0.00    -0.177 NA
HETATM    3  N   UNL     1      12.668  12.862  51.123  1.00  0.00    -0.256 N 
HETATM    4  H   UNL     1      12.335  13.681  50.626  1.00  0.00     0.191 HD
HETATM    5  C   UNL     1      12.210  12.339  52.288  1.00  0.00     0.176 A 
HETATM    6  C   UNL     1      12.977  11.234  52.566  1.00  0.00     0.049 A 
HETATM    7  C   UNL     1      12.695  10.448  53.801  1.00  0.00     0.144 A 
HETATM    8  C   UNL     1      12.527   8.936  53.490  1.00  0.00     0.246 A 
HETATM    9  O   UNL     1      11.645   8.400  52.837  1.00  0.00    -0.271 OA
HETATM   10  N   UNL     1      13.570   8.269  54.122  1.00  0.00    -0.325 N 
HETATM   11  C   UNL     1      14.397   9.148  54.806  1.00  0.00     0.043 A 
HETATM   12  C   UNL     1      13.950  10.469  54.657  1.00  0.00     0.003 A 
HETATM   13  C   UNL     1      15.514   8.806  55.539  1.00  0.00     0.030 A 
HETATM   14  C   UNL     1      16.215   9.840  56.154  1.00  0.00     0.003 A 
HETATM   15  C   UNL     1      15.785  11.173  56.026  1.00  0.00     0.007 A 
HETATM   16  C   UNL     1      14.639  11.511  55.282  1.00  0.00    -0.051 A 
HETATM   17  C   UNL     1      14.226  12.948  55.178  1.00  0.00     0.049 C 
HETATM   18  C   UNL     1      11.442  10.962  54.499  1.00  0.00     0.081 A 
HETATM   19  C   UNL     1      10.885  10.118  55.632  1.00  0.00     0.021 C 
HETATM   20  N   UNL     1      10.422   9.416  56.573  1.00  0.00    -0.096 N 
HETATM   21  C   UNL     1      10.764  12.068  54.088  1.00  0.00     0.140 A 
HETATM   22  O   UNL     1      11.187  12.826  52.982  1.00  0.00    -0.279 OA
HETATM   23  H   UNL     1      13.675   7.264  54.090  1.00  0.00     0.169 HD
ENDROOT
BRANCH  21  24
HETATM   24  N   UNL     1       9.616  12.564  54.664  1.00  0.00    -0.282 NA
HETATM   25  H   UNL     1       8.751  12.347  54.175  1.00  0.00     0.126 HD
HETATM   26  H   UNL     1       9.701  13.553  54.885  1.00  0.00     0.126 HD
ENDBRANCH  21  24
BRANCH   1  27
HETATM   27  C   UNL     1      14.859  10.067  51.138  1.00  0.00     0.062 C 
BRANCH  27  28
HETATM   28  C   UNL     1      16.207  10.343  51.810  1.00  0.00     0.006 C 
BRANCH  28  29
HETATM   29  C   UNL     1      16.963   9.050  52.114  1.00  0.00    -0.004 C 
HETATM   30  C   UNL     1      16.159   7.829  51.696  1.00  0.00     0.005 C 
ENDBRANCH  28  29
ENDBRANCH  27  28
ENDBRANCH   1  27
TORSDOF 4
ENDMDL
MODEL 3
REMARK VINA RESULT:      -7.4      2.396      5.412
REMARK  4 active torsions:
REMARK  status: ('A' for Active; 'I' for Inactive)
REMARK    1  A    between atoms: C_2  and  C_3 
REMARK    2  A    between atoms: C_3  and  C_4 
REMARK    3  A    between atoms: C_4  and  C_5 
REMARK    4  A    between atoms: C_25  and  N_26 
ROOT
HETATM    1  C   UNL     1       4.554  28.998  54.552  1.00  0.00     0.067 A 
HETATM    2  N   UNL     1       4.465  30.339  54.536  1.00  0.00    -0.177 NA
HETATM    3  N   UNL     1       5.426  30.750  55.384  1.00  0.00    -0.256 N 
HETATM    4  H   UNL     1       5.536  31.744  55.557  1.00  0.00     0.191 HD
HETATM    5  C   UNL     1       6.120  29.719  55.927  1.00  0.00     0.176 A 
HETATM    6  C   UNL     1       5.617  28.562  55.384  1.00  0.00     0.049 A 
HETATM    7  C   UNL     1       6.195  27.254  55.804  1.00  0.00     0.144 A 
HETATM    8  C   UNL     1       5.091  26.262  56.261  1.00  0.00     0.246 A 
HETATM    9  O   UNL     1       4.357  26.354  57.232  1.00  0.00    -0.271 OA
HETATM   10  N   UNL     1       5.094  25.202  55.361  1.00  0.00    -0.325 N 
HETATM   11  C   UNL     1       6.057  25.371  54.376  1.00  0.00     0.043 A 
HETATM   12  C   UNL     1       6.751  26.576  54.563  1.00  0.00     0.003 A 
HETATM   13  C   UNL     1       6.321  24.499  53.341  1.00  0.00     0.030 A 
HETATM   14  C   UNL     1       7.331  24.853  52.452  1.00  0.00     0.003 A 
HETATM   15  C   UNL     1       8.048  26.050  52.619  1.00  0.00     0.007 A 
HETATM   16  C   UNL     1       7.776  26.931  53.684  1.00  0.00    -0.051 A 
HETATM   17  C   UNL     1       8.570  28.195  53.814  1.00  0.00     0.049 C 
HETATM   18  C   UNL     1       7.202  27.440  56.931  1.00  0.00     0.081 A 
HETATM   19  C   UNL     1       7.697  26.187  57.633  1.00  0.00     0.021 C 
HETATM   20  N   UNL     1       8.107  25.146  58.216  1.00  0.00    -0.096 N 
HETATM   21  C   UNL     1       7.588  28.663  57.387  1.00  0.00     0.140 A 
HETATM   22  O   UNL     1       7.082  29.852  56.833  1.00  0.00    -0.279 OA
HETATM   23  H   UNL     1       4.476  24.407  55.451  1.00  0.00     0.169 HD
ENDROOT
BRANCH  21  24
HETATM   24  N   UNL     1       8.475  28.891  58.415  1.00  0.00    -0.282 NA
HETATM   25  H   UNL     1       9.428  28.571  58.252  1.00  0.00     0.126 HD
HETATM   26  H   UNL     1       8.106  28.574  59.309  1.00  0.00     0.126 HD
ENDBRANCH  21  24
BRANCH   1  27
HETATM   27  C   UNL     1       3.568  28.191  53.769  1.00  0.00     0.062 C 
BRANCH  27  28
HETATM   28  C   UNL     1       3.641  28.501  52.271  1.00  0.00     0.006 C 
BRANCH  28  29
HETATM   29  C   UNL     1       5.016  28.172  51.692  1.00  0.00    -0.004 C 
HETATM   30  C   UNL     1       4.937  27.027  50.696  1.00  0.00     0.005 C 
ENDBRANCH  28  29
ENDBRANCH  27  28
ENDBRANCH   1  27
TORSDOF 4
ENDMDL
MODEL 4
REMARK VINA RESULT:      -7.3      6.025      9.057
REMARK  4 active torsions:
REMARK  status: ('A' for Active; 'I' for Inactive)
REMARK    1  A    between atoms: C_2  and  C_3 
REMARK    2  A    between atoms: C_3  and  C_4 
REMARK    3  A    between atoms: C_4  and  C_5 
REMARK    4  A    between atoms: C_25  and  N_26 
ROOT
HETATM    1  C   UNL     1       4.252  31.027  47.770  1.00  0.00     0.067 A 
HETATM    2  N   UNL     1       3.636  31.996  47.071  1.00  0.00    -0.177 NA
HETATM    3  N   UNL     1       2.550  31.396  46.548  1.00  0.00    -0.256 N 
HETATM    4  H   UNL     1       1.933  31.934  45.949  1.00  0.00     0.191 HD
HETATM    5  C   UNL     1       2.458  30.088  46.896  1.00  0.00     0.176 A 
HETATM    6  C   UNL     1       3.519  29.814  47.724  1.00  0.00     0.049 A 
HETATM    7  C   UNL     1       3.677  28.434  48.266  1.00  0.00     0.144 A 
HETATM    8  C   UNL     1       5.104  27.880  48.011  1.00  0.00     0.246 A 
HETATM    9  O   UNL     1       5.624  27.615  46.938  1.00  0.00    -0.271 OA
HETATM   10  N   UNL     1       5.705  27.703  49.253  1.00  0.00    -0.325 N 
HETATM   11  C   UNL     1       4.855  28.070  50.287  1.00  0.00     0.043 A 
HETATM   12  C   UNL     1       3.628  28.527  49.782  1.00  0.00     0.003 A 
HETATM   13  C   UNL     1       5.143  28.011  51.634  1.00  0.00     0.030 A 
HETATM   14  C   UNL     1       4.152  28.428  52.518  1.00  0.00     0.003 A 
HETATM   15  C   UNL     1       2.910  28.883  52.040  1.00  0.00     0.007 A 
HETATM   16  C   UNL     1       2.622  28.933  50.662  1.00  0.00    -0.051 A 
HETATM   17  C   UNL     1       1.283  29.429  50.208  1.00  0.00     0.049 C 
HETATM   18  C   UNL     1       2.652  27.488  47.655  1.00  0.00     0.081 A 
HETATM   19  C   UNL     1       2.834  26.003  47.919  1.00  0.00     0.021 C 
HETATM   20  N   UNL     1       2.987  24.770  48.138  1.00  0.00    -0.096 N 
HETATM   21  C   UNL     1       1.662  27.905  46.819  1.00  0.00     0.140 A 
HETATM   22  O   UNL     1       1.513  29.259  46.467  1.00  0.00    -0.279 OA
HETATM   23  H   UNL     1       6.638  27.330  49.361  1.00  0.00     0.169 HD
ENDROOT
BRANCH  21  24
HETATM   24  N   UNL     1       0.725  27.094  46.220  1.00  0.00    -0.282 NA
HETATM   25  H   UNL     1       0.585  27.247  45.224  1.00  0.00     0.126 HD
HETATM   26  H   UNL     1      -0.151  27.083  46.738  1.00  0.00     0.126 HD
ENDBRANCH  21  24
BRANCH   1  27
HETATM   27  C   UNL     1       5.559  31.324  48.433  1.00  0.00     0.062 C 
BRANCH  27  28
HETATM   28  C   UNL     1       5.419  32.411  49.504  1.00  0.00     0.006 C 
BRANCH  28  29
HETATM   29  C   UNL     1       4.970  31.830  50.844  1.00  0.00    -0.004 C 
HETATM   30  C   UNL     1       3.669  32.463  51.312  1.00  0.00     0.005 C 
ENDBRANCH  28  29
ENDBRANCH  27  28
ENDBRANCH   1  27
TORSDOF 4
ENDMDL
MODEL 5
REMARK VINA RESULT:      -7.2      4.872      7.654
REMARK  4 active torsions:
REMARK  status: ('A' for Active; 'I' for Inactive)
REMARK    1  A    between atoms: C_2  and  C_3 
REMARK    2  A    between atoms: C_3  and  C_4 
REMARK    3  A    between atoms: C_4  and  C_5 
REMARK    4  A    between atoms: C_25  and  N_26 
ROOT
HETATM    1  C   UNL     1       4.462  28.427  52.189  1.00  0.00     0.067 A 
HETATM    2  N   UNL     1       3.882  28.677  53.376  1.00  0.00    -0.177 NA
HETATM    3  N   UNL     1       3.095  29.745  53.148  1.00  0.00    -0.256 N 
HETATM    4  H   UNL     1       2.565  30.138  53.919  1.00  0.00     0.191 HD
HETATM    5  C   UNL     1       3.154  30.172  51.862  1.00  0.00     0.176 A 
HETATM    6  C   UNL     1       3.997  29.321  51.191  1.00  0.00     0.049 A 
HETATM    7  C   UNL     1       4.256  29.552  49.741  1.00  0.00     0.144 A 
HETATM    8  C   UNL     1       5.777  29.593  49.432  1.00  0.00     0.246 A 
HETATM    9  O   UNL     1       6.594  30.421  49.803  1.00  0.00    -0.271 OA
HETATM   10  N   UNL     1       6.059  28.507  48.611  1.00  0.00    -0.325 N 
HETATM   11  C   UNL     1       4.920  27.761  48.344  1.00  0.00     0.043 A 
HETATM   12  C   UNL     1       3.802  28.312  48.989  1.00  0.00     0.003 A 
HETATM   13  C   UNL     1       4.858  26.628  47.560  1.00  0.00     0.030 A 
HETATM   14  C   UNL     1       3.614  26.020  47.415  1.00  0.00     0.003 A 
HETATM   15  C   UNL     1       2.476  26.555  48.044  1.00  0.00     0.007 A 
HETATM   16  C   UNL     1       2.548  27.717  48.836  1.00  0.00    -0.051 A 
HETATM   17  C   UNL     1       1.304  28.244  49.485  1.00  0.00     0.049 C 
HETATM   18  C   UNL     1       3.611  30.850  49.273  1.00  0.00     0.081 A 
HETATM   19  C   UNL     1       3.984  31.350  47.887  1.00  0.00     0.021 C 
HETATM   20  N   UNL     1       4.296  31.764  46.737  1.00  0.00    -0.096 N 
HETATM   21  C   UNL     1       2.811  31.611  50.068  1.00  0.00     0.140 A 
HETATM   22  O   UNL     1       2.516  31.239  51.392  1.00  0.00    -0.279 OA
HETATM   23  H   UNL     1       6.984  28.320  48.250  1.00  0.00     0.169 HD
ENDROOT
BRANCH  21  24
HETATM   24  N   UNL     1       2.222  32.802  49.707  1.00  0.00    -0.282 NA
HETATM   25  H   UNL     1       2.832  33.470  49.242  1.00  0.00     0.126 HD
HETATM   26  H   UNL     1       1.707  33.217  50.480  1.00  0.00     0.126 HD
ENDBRANCH  21  24
BRANCH   1  27
HETATM   27  C   UNL     1       5.478  27.335  52.089  1.00  0.00     0.062 C 
BRANCH  27  28
HETATM   28  C   UNL     1       4.863  26.031  51.570  1.00  0.00     0.006 C 
BRANCH  28  29
HETATM   29  C   UNL     1       4.856  24.943  52.642  1.00  0.00    -0.004 C 
HETATM   30  C   UNL     1       6.266  24.465  52.953  1.00  0.00     0.005 C 
ENDBRANCH  28  29
ENDBRANCH  27  28
ENDBRANCH   1  27
TORSDOF 4
ENDMDL
MODEL 6
REMARK VINA RESULT:      -6.7      1.992      5.784
REMARK  4 active torsions:
REMARK  status: ('A' for Active; 'I' for Inactive)
REMARK    1  A    between atoms: C_2  and  C_3 
REMARK    2  A    between atoms: C_3  and  C_4 
REMARK    3  A    between atoms: C_4  and  C_5 
REMARK    4  A    between atoms: C_25  and  N_26 
ROOT
HETATM    1  C   UNL     1       5.299  28.606  56.796  1.00  0.00     0.067 A 
HETATM    2  N   UNL     1       5.749  29.567  57.622  1.00  0.00    -0.177 NA
HETATM    3  N   UNL     1       6.939  29.110  58.054  1.00  0.00    -0.256 N 
HETATM    4  H   UNL     1       7.465  29.665  58.720  1.00  0.00     0.191 HD
HETATM    5  C   UNL     1       7.257  27.902  57.526  1.00  0.00     0.176 A 
HETATM    6  C   UNL     1       6.241  27.553  56.670  1.00  0.00     0.049 A 
HETATM    7  C   UNL     1       6.321  26.255  55.940  1.00  0.00     0.144 A 
HETATM    8  C   UNL     1       5.026  25.419  56.119  1.00  0.00     0.246 A 
HETATM    9  O   UNL     1       4.593  24.919  57.145  1.00  0.00    -0.271 OA
HETATM   10  N   UNL     1       4.433  25.307  54.866  1.00  0.00    -0.325 N 
HETATM   11  C   UNL     1       5.173  25.962  53.892  1.00  0.00     0.043 A 
HETATM   12  C   UNL     1       6.310  26.563  54.452  1.00  0.00     0.003 A 
HETATM   13  C   UNL     1       4.862  26.035  52.550  1.00  0.00     0.030 A 
HETATM   14  C   UNL     1       5.737  26.744  51.731  1.00  0.00     0.003 A 
HETATM   15  C   UNL     1       6.888  27.350  52.265  1.00  0.00     0.007 A 
HETATM   16  C   UNL     1       7.200  27.263  53.635  1.00  0.00    -0.051 A 
HETATM   17  C   UNL     1       8.440  27.929  54.151  1.00  0.00     0.049 C 
HETATM   18  C   UNL     1       7.518  25.439  56.411  1.00  0.00     0.081 A 
HETATM   19  C   UNL     1       7.600  23.996  55.943  1.00  0.00     0.021 C 
HETATM   20  N   UNL     1       7.668  22.798  55.554  1.00  0.00    -0.096 N 
HETATM   21  C   UNL     1       8.438  25.912  57.295  1.00  0.00     0.140 A 
HETATM   22  O   UNL     1       8.349  27.209  57.832  1.00  0.00    -0.279 OA
HETATM   23  H   UNL     1       3.580  24.787  54.709  1.00  0.00     0.169 HD
ENDROOT
BRANCH  21  24
HETATM   24  N   UNL     1       9.524  25.213  57.772  1.00  0.00    -0.282 NA
HETATM   25  H   UNL     1      10.121  25.720  58.422  1.00  0.00     0.126 HD
HETATM   26  H   UNL     1      10.051  24.775  57.020  1.00  0.00     0.126 HD
ENDBRANCH  21  24
BRANCH   1  27
HETATM   27  C   UNL     1       3.942  28.746  56.184  1.00  0.00     0.062 C 
BRANCH  27  28
HETATM   28  C   UNL     1       3.847  29.985  55.288  1.00  0.00     0.006 C 
BRANCH  28  29
HETATM   29  C   UNL     1       4.454  29.733  53.909  1.00  0.00    -0.004 C 
HETATM   30  C   UNL     1       3.379  29.407  52.884  1.00  0.00     0.005 C 
ENDBRANCH  28  29
ENDBRANCH  27  28
ENDBRANCH   1  27
TORSDOF 4
ENDMDL
MODEL 7
REMARK VINA RESULT:      -6.7      5.886      8.565
REMARK  4 active torsions:
REMARK  status: ('A' for Active; 'I' for Inactive)
REMARK    1  A    between atoms: C_2  and  C_3 
REMARK    2  A    between atoms: C_3  and  C_4 
REMARK    3  A    between atoms: C_4  and  C_5 
REMARK    4  A    between atoms: C_25  and  N_26 
ROOT
HETATM    1  C   UNL     1       4.945  28.744  51.053  1.00  0.00     0.067 A 
HETATM    2  N   UNL     1       5.868  27.945  51.616  1.00  0.00    -0.177 NA
HETATM    3  N   UNL     1       5.708  26.759  51.000  1.00  0.00    -0.256 N 
HETATM    4  H   UNL     1       6.290  25.978  51.281  1.00  0.00     0.191 HD
HETATM    5  C   UNL     1       4.724  26.784  50.067  1.00  0.00     0.176 A 
HETATM    6  C   UNL     1       4.227  28.064  50.036  1.00  0.00     0.049 A 
HETATM    7  C   UNL     1       3.119  28.388  49.092  1.00  0.00     0.144 A 
HETATM    8  C   UNL     1       1.936  29.084  49.818  1.00  0.00     0.246 A 
HETATM    9  O   UNL     1       1.197  28.611  50.666  1.00  0.00    -0.271 OA
HETATM   10  N   UNL     1       1.838  30.372  49.303  1.00  0.00    -0.325 N 
HETATM   11  C   UNL     1       2.804  30.609  48.336  1.00  0.00     0.043 A 
HETATM   12  C   UNL     1       3.616  29.478  48.157  1.00  0.00     0.003 A 
HETATM   13  C   UNL     1       2.974  31.781  47.629  1.00  0.00     0.030 A 
HETATM   14  C   UNL     1       4.007  31.820  46.697  1.00  0.00     0.003 A 
HETATM   15  C   UNL     1       4.831  30.699  46.492  1.00  0.00     0.007 A 
HETATM   16  C   UNL     1       4.645  29.504  47.213  1.00  0.00    -0.051 A 
HETATM   17  C   UNL     1       5.553  28.340  46.955  1.00  0.00     0.049 C 
HETATM   18  C   UNL     1       2.614  27.133  48.393  1.00  0.00     0.081 A 
HETATM   19  C   UNL     1       1.333  27.257  47.586  1.00  0.00     0.021 C 
HETATM   20  N   UNL     1       0.269  27.360  46.917  1.00  0.00    -0.096 N 
HETATM   21  C   UNL     1       3.199  25.914  48.543  1.00  0.00     0.140 A 
HETATM   22  O   UNL     1       4.330  25.731  49.358  1.00  0.00    -0.279 OA
HETATM   23  H   UNL     1       1.128  31.026  49.599  1.00  0.00     0.169 HD
ENDROOT
BRANCH  21  24
HETATM   24  N   UNL     1       2.773  24.743  47.956  1.00  0.00    -0.282 NA
HETATM   25  H   UNL     1       1.768  24.586  47.969  1.00  0.00     0.126 HD
HETATM   26  H   UNL     1       3.297  23.939  48.293  1.00  0.00     0.126 HD
ENDBRANCH  21  24
BRANCH   1  27
HETATM   27  C   UNL     1       4.782  30.142  51.558  1.00  0.00     0.062 C 
BRANCH  27  28
HETATM   28  C   UNL     1       5.537  31.153  50.690  1.00  0.00     0.006 C 
BRANCH  28  29
HETATM   29  C   UNL     1       4.913  32.545  50.771  1.00  0.00    -0.004 C 
HETATM   30  C   UNL     1       3.604  32.519  51.543  1.00  0.00     0.005 C 
ENDBRANCH  28  29
ENDBRANCH  27  28
ENDBRANCH   1  27
TORSDOF 4
ENDMDL
MODEL 8
REMARK VINA RESULT:      -6.7      5.273      8.173
REMARK  4 active torsions:
REMARK  status: ('A' for Active; 'I' for Inactive)
REMARK    1  A    between atoms: C_2  and  C_3 
REMARK    2  A    between atoms: C_3  and  C_4 
REMARK    3  A    between atoms: C_4  and  C_5 
REMARK    4  A    between atoms: C_25  and  N_26 
ROOT
HETATM    1  C   UNL     1       4.797  27.346  49.541  1.00  0.00     0.067 A 
HETATM    2  N   UNL     1       4.856  26.194  50.233  1.00  0.00    -0.177 NA
HETATM    3  N   UNL     1       4.694  26.565  51.517  1.00  0.00    -0.256 N 
HETATM    4  H   UNL     1       4.728  25.854  52.240  1.00  0.00     0.191 HD
HETATM    5  C   UNL     1       4.529  27.903  51.658  1.00  0.00     0.176 A 
HETATM    6  C   UNL     1       4.547  28.448  50.398  1.00  0.00     0.049 A 
HETATM    7  C   UNL     1       4.387  29.923  50.243  1.00  0.00     0.144 A 
HETATM    8  C   UNL     1       5.515  30.531  49.367  1.00  0.00     0.246 A 
HETATM    9  O   UNL     1       6.708  30.594  49.620  1.00  0.00    -0.271 OA
HETATM   10  N   UNL     1       4.917  31.032  48.216  1.00  0.00    -0.325 N 
HETATM   11  C   UNL     1       3.544  30.830  48.226  1.00  0.00     0.043 A 
HETATM   12  C   UNL     1       3.148  30.166  49.397  1.00  0.00     0.003 A 
HETATM   13  C   UNL     1       2.660  31.214  47.240  1.00  0.00     0.030 A 
HETATM   14  C   UNL     1       1.314  30.918  47.438  1.00  0.00     0.003 A 
HETATM   15  C   UNL     1       0.889  30.260  48.605  1.00  0.00     0.007 A 
HETATM   16  C   UNL     1       1.798  29.879  49.611  1.00  0.00    -0.051 A 
HETATM   17  C   UNL     1       1.291  29.178  50.835  1.00  0.00     0.049 C 
HETATM   18  C   UNL     1       4.375  30.614  51.600  1.00  0.00     0.081 A 
HETATM   19  C   UNL     1       4.464  32.131  51.607  1.00  0.00     0.021 C 
HETATM   20  N   UNL     1       4.539  33.390  51.611  1.00  0.00    -0.096 N 
HETATM   21  C   UNL     1       4.388  29.935  52.779  1.00  0.00     0.140 A 
HETATM   22  O   UNL     1       4.405  28.529  52.823  1.00  0.00    -0.279 OA
HETATM   23  H   UNL     1       5.438  31.501  47.488  1.00  0.00     0.169 HD
ENDROOT
BRANCH  21  24
HETATM   24  N   UNL     1       4.402  30.506  54.032  1.00  0.00    -0.282 NA
HETATM   25  H   UNL     1       4.549  29.862  54.806  1.00  0.00     0.126 HD
HETATM   26  H   UNL     1       3.598  31.112  54.179  1.00  0.00     0.126 HD
ENDBRANCH  21  24
BRANCH   1  27
HETATM   27  C   UNL     1       5.019  27.321  48.063  1.00  0.00     0.062 C 
BRANCH  27  28
HETATM   28  C   UNL     1       3.699  27.385  47.288  1.00  0.00     0.006 C 
BRANCH  28  29
HETATM   29  C   UNL     1       2.630  26.494  47.918  1.00  0.00    -0.004 C 
HETATM   30  C   UNL     1       1.236  26.892  47.457  1.00  0.00     0.005 C 
ENDBRANCH  28  29
ENDBRANCH  27  28
ENDBRANCH   1  27
TORSDOF 4
ENDMDL
MODEL 9
REMARK VINA RESULT:      -6.4     10.456     13.686
REMARK  4 active torsions:
REMARK  status: ('A' for Active; 'I' for Inactive)
REMARK    1  A    between atoms: C_2  and  C_3 
REMARK    2  A    between atoms: C_3  and  C_4 
REMARK    3  A    between atoms: C_4  and  C_5 
REMARK    4  A    between atoms: C_25  and  N_26 
ROOT
HETATM    1  C   UNL     1       6.231  37.967  62.882  1.00  0.00     0.067 A 
HETATM    2  N   UNL     1       6.714  38.907  63.713  1.00  0.00    -0.177 NA
HETATM    3  N   UNL     1       6.151  38.626  64.903  1.00  0.00    -0.256 N 
HETATM    4  H   UNL     1       6.351  39.227  65.694  1.00  0.00     0.191 HD
HETATM    5  C   UNL     1       5.337  37.543  64.852  1.00  0.00     0.176 A 
HETATM    6  C   UNL     1       5.390  37.055  63.570  1.00  0.00     0.049 A 
HETATM    7  C   UNL     1       4.582  35.852  63.217  1.00  0.00     0.144 A 
HETATM    8  C   UNL     1       3.714  36.098  61.954  1.00  0.00     0.246 A 
HETATM    9  O   UNL     1       2.780  36.874  61.826  1.00  0.00    -0.271 OA
HETATM   10  N   UNL     1       4.175  35.236  60.965  1.00  0.00    -0.325 N 
HETATM   11  C   UNL     1       5.232  34.460  61.417  1.00  0.00     0.043 A 
HETATM   12  C   UNL     1       5.544  34.773  62.749  1.00  0.00     0.003 A 
HETATM   13  C   UNL     1       5.909  33.505  60.687  1.00  0.00     0.030 A 
HETATM   14  C   UNL     1       6.947  32.831  61.325  1.00  0.00     0.003 A 
HETATM   15  C   UNL     1       7.275  33.120  62.661  1.00  0.00     0.007 A 
HETATM   16  C   UNL     1       6.573  34.091  63.401  1.00  0.00    -0.051 A 
HETATM   17  C   UNL     1       6.967  34.360  64.822  1.00  0.00     0.049 C 
HETATM   18  C   UNL     1       3.682  35.442  64.376  1.00  0.00     0.081 A 
HETATM   19  C   UNL     1       2.625  34.389  64.093  1.00  0.00     0.021 C 
HETATM   20  N   UNL     1       1.747  33.514  63.857  1.00  0.00    -0.096 N 
HETATM   21  C   UNL     1       3.724  36.042  65.596  1.00  0.00     0.140 A 
HETATM   22  O   UNL     1       4.620  37.090  65.875  1.00  0.00    -0.279 OA
HETATM   23  H   UNL     1       3.759  35.186  60.045  1.00  0.00     0.169 HD
ENDROOT
BRANCH  21  24
HETATM   24  N   UNL     1       2.921  35.730  66.670  1.00  0.00    -0.282 NA
HETATM   25  H   UNL     1       2.807  34.736  66.858  1.00  0.00     0.126 HD
HETATM   26  H   UNL     1       2.032  36.223  66.632  1.00  0.00     0.126 HD
ENDBRANCH  21  24
BRANCH   1  27
HETATM   27  C   UNL     1       6.592  38.019  61.432  1.00  0.00     0.062 C 
BRANCH  27  28
HETATM   28  C   UNL     1       6.295  39.393  60.820  1.00  0.00     0.006 C 
BRANCH  28  29
HETATM   29  C   UNL     1       4.904  39.443  60.192  1.00  0.00    -0.004 C 
HETATM   30  C   UNL     1       4.727  38.348  59.153  1.00  0.00     0.005 C 
ENDBRANCH  28  29
ENDBRANCH  27  28
ENDBRANCH   1  27
TORSDOF 4
ENDMDL
MODEL 10
REMARK VINA RESULT:      -6.2      5.582      7.516
REMARK  4 active torsions:
REMARK  status: ('A' for Active; 'I' for Inactive)
REMARK    1  A    between atoms: C_2  and  C_3 
REMARK    2  A    between atoms: C_3  and  C_4 
REMARK    3  A    between atoms: C_4  and  C_5 
REMARK    4  A    between atoms: C_25  and  N_26 
ROOT
HETATM    1  C   UNL     1       4.284  27.178  49.366  1.00  0.00     0.067 A 
HETATM    2  N   UNL     1       4.525  26.097  48.603  1.00  0.00    -0.177 NA
HETATM    3  N   UNL     1       3.748  26.270  47.518  1.00  0.00    -0.256 N 
HETATM    4  H   UNL     1       3.743  25.555  46.799  1.00  0.00     0.191 HD
HETATM    5  C   UNL     1       3.032  27.421  47.567  1.00  0.00     0.176 A 
HETATM    6  C   UNL     1       3.378  28.065  48.729  1.00  0.00     0.049 A 
HETATM    7  C   UNL     1       2.738  29.373  49.051  1.00  0.00     0.144 A 
HETATM    8  C   UNL     1       2.134  29.375  50.482  1.00  0.00     0.246 A 
HETATM    9  O   UNL     1       1.200  28.711  50.901  1.00  0.00    -0.271 OA
HETATM   10  N   UNL     1       2.843  30.313  51.225  1.00  0.00    -0.325 N 
HETATM   11  C   UNL     1       3.831  30.923  50.466  1.00  0.00     0.043 A 
HETATM   12  C   UNL     1       3.842  30.411  49.160  1.00  0.00     0.003 A 
HETATM   13  C   UNL     1       4.703  31.899  50.902  1.00  0.00     0.030 A 
HETATM   14  C   UNL     1       5.627  32.386  49.983  1.00  0.00     0.003 A 
HETATM   15  C   UNL     1       5.655  31.897  48.666  1.00  0.00     0.007 A 
HETATM   16  C   UNL     1       4.756  30.905  48.227  1.00  0.00    -0.051 A 
HETATM   17  C   UNL     1       4.831  30.418  46.811  1.00  0.00     0.049 C 
HETATM   18  C   UNL     1       1.647  29.708  48.043  1.00  0.00     0.081 A 
HETATM   19  C   UNL     1       0.739  30.882  48.368  1.00  0.00     0.021 C 
HETATM   20  N   UNL     1      -0.014  31.856  48.640  1.00  0.00    -0.096 N 
HETATM   21  C   UNL     1       1.398  28.952  46.939  1.00  0.00     0.140 A 
HETATM   22  O   UNL     1       2.150  27.799  46.648  1.00  0.00    -0.279 OA
HETATM   23  H   UNL     1       2.629  30.521  52.190  1.00  0.00     0.169 HD
ENDROOT
BRANCH  21  24
HETATM   24  N   UNL     1       0.413  29.193  46.008  1.00  0.00    -0.282 NA
HETATM   25  H   UNL     1      -0.493  29.459  46.388  1.00  0.00     0.126 HD
HETATM   26  H   UNL     1       0.344  28.440  45.328  1.00  0.00     0.126 HD
ENDBRANCH  21  24
BRANCH   1  27
HETATM   27  C   UNL     1       4.931  27.283  50.709  1.00  0.00     0.062 C 
BRANCH  27  28
HETATM   28  C   UNL     1       5.325  25.909  51.260  1.00  0.00     0.006 C 
BRANCH  28  29
HETATM   29  C   UNL     1       6.495  26.006  52.237  1.00  0.00    -0.004 C 
HETATM   30  C   UNL     1       7.557  24.961  51.933  1.00  0.00     0.005 C 
ENDBRANCH  28  29
ENDBRANCH  27  28
ENDBRANCH   1  27
TORSDOF 4
ENDMDL
