MODEL 1
REMARK VINA RESULT:      -9.7      0.000      0.000
REMARK  7 active torsions:
REMARK  status: ('A' for Active; 'I' for Inactive)
REMARK    1  A    between atoms: C_2  and  N_3 
REMARK    2  A    between atoms: C_2  and  C_10 
REMARK    3  A    between atoms: N_11  and  C_12 
REMARK    4  A    between atoms: C_19  and  S_20 
REMARK    5  A    between atoms: S_20  and  C_21 
REMARK    6  A    between atoms: C_21  and  C_22 
REMARK    7  A    between atoms: C_21  and  C_28 
REMARK       I    between atoms: C_22  and  N_23 
REMARK       I    between atoms: N_23  and  C_24 
REMARK       I    between atoms: C_24  and  N_25 
ROOT
HETATM    1  C   UNL     1       7.455  28.377  57.373  1.00  0.00     0.166 A 
HETATM    2  N   UNL     1       6.760  27.499  56.549  1.00  0.00    -0.274 N 
HETATM    3  C   UNL     1       6.845  26.287  57.211  1.00  0.00     0.197 A 
HETATM    4  N   UNL     1       7.578  26.415  58.293  1.00  0.00    -0.122 NA
HETATM    5  N   UNL     1       7.967  27.721  58.394  1.00  0.00    -0.131 NA
ENDROOT
BRANCH   3   6
HETATM    6  S   UNL     1       6.227  24.765  56.661  1.00  0.00    -0.070 SA
BRANCH   6   7
HETATM    7  C   UNL     1       7.443  24.283  55.381  1.00  0.00     0.180 C 
BRANCH   7   8
HETATM    8  C   UNL     1       7.882  22.827  55.602  1.00  0.00     0.244 C 
HETATM    9  N   UNL     1       7.694  21.983  54.518  1.00  0.00    -0.278 N 
HETATM   10  C   UNL     1       8.181  20.725  54.322  1.00  0.00     0.320 C 
HETATM   11  H   UNL     1       7.269  22.353  53.676  1.00  0.00     0.173 HD
HETATM   12  N   UNL     1       8.889  20.176  55.330  1.00  0.00    -0.352 N 
HETATM   13  O   UNL     1       8.019  20.137  53.260  1.00  0.00    -0.247 OA
HETATM   14  H   UNL     1       8.806  20.559  56.264  1.00  0.00     0.160 HD
HETATM   15  H   UNL     1       9.175  19.212  55.220  1.00  0.00     0.160 HD
HETATM   16  O   UNL     1       8.281  22.452  56.711  1.00  0.00    -0.271 OA
ENDBRANCH   7   8
BRANCH   7  17
HETATM   17  C   UNL     1       7.025  24.563  53.940  1.00  0.00    -0.035 A 
HETATM   18  C   UNL     1       7.926  24.828  52.895  1.00  0.00     0.009 A 
HETATM   19  C   UNL     1       7.467  25.105  51.605  1.00  0.00     0.001 A 
HETATM   20  C   UNL     1       6.102  25.137  51.337  1.00  0.00     0.000 A 
HETATM   21  C   UNL     1       5.191  24.889  52.358  1.00  0.00     0.001 A 
HETATM   22  C   UNL     1       5.647  24.603  53.646  1.00  0.00     0.009 A 
ENDBRANCH   7  17
ENDBRANCH   6   7
ENDBRANCH   3   6
BRANCH   2  23
HETATM   23  C   UNL     1       6.113  27.807  55.329  1.00  0.00     0.043 A 
HETATM   24  C   UNL     1       6.884  28.090  54.190  1.00  0.00     0.033 A 
HETATM   25  C   UNL     1       6.250  28.393  52.984  1.00  0.00     0.044 A 
HETATM   26  C   UNL     1       4.862  28.406  52.920  1.00  0.00     0.116 A 
HETATM   27  F   UNL     1       4.261  28.699  51.760  1.00  0.00    -0.206 F 
HETATM   28  C   UNL     1       4.091  28.112  54.038  1.00  0.00     0.044 A 
HETATM   29  C   UNL     1       4.714  27.807  55.250  1.00  0.00     0.033 A 
ENDBRANCH   2  23
BRANCH   1  30
HETATM   30  C   UNL     1       7.485  29.872  57.260  1.00  0.00     0.255 C 
HETATM   31  C   UNL     1       6.075  30.347  56.881  1.00  0.00     0.049 C 
BRANCH  30  32
HETATM   32  N   UNL     1       7.928  30.517  58.595  1.00  0.00    -0.060 N 
HETATM   33  H   UNL     1       8.027  29.721  59.247  1.00  0.00     0.280 HD
HETATM   34  C   UNL     1       9.310  31.138  58.470  1.00  0.00     0.236 C 
HETATM   35  C   UNL     1       9.781  31.656  59.821  1.00  0.00     0.028 C 
HETATM   36  C   UNL     1       8.795  32.653  60.409  1.00  0.00     0.003 C 
HETATM   37  C   UNL     1       7.410  32.033  60.510  1.00  0.00     0.028 C 
HETATM   38  C   UNL     1       6.928  31.494  59.171  1.00  0.00     0.236 C 
ENDBRANCH  30  32
ENDBRANCH   1  30
TORSDOF 7
ENDMDL
MODEL 2
REMARK VINA RESULT:      -9.7      3.227      4.916
REMARK  7 active torsions:
REMARK  status: ('A' for Active; 'I' for Inactive)
REMARK    1  A    between atoms: C_2  and  N_3 
REMARK    2  A    between atoms: C_2  and  C_10 
REMARK    3  A    between atoms: N_11  and  C_12 
REMARK    4  A    between atoms: C_19  and  S_20 
REMARK    5  A    between atoms: S_20  and  C_21 
REMARK    6  A    between atoms: C_21  and  C_22 
REMARK    7  A    between atoms: C_21  and  C_28 
REMARK       I    between atoms: C_22  and  N_23 
REMARK       I    between atoms: N_23  and  C_24 
REMARK       I    between atoms: C_24  and  N_25 
ROOT
HETATM    1  C   UNL     1       5.590  29.442  57.230  1.00  0.00     0.166 A 
HETATM    2  N   UNL     1       6.771  28.721  57.095  1.00  0.00    -0.274 N 
HETATM    3  C   UNL     1       6.342  27.433  56.827  1.00  0.00     0.197 A 
HETATM    4  N   UNL     1       5.030  27.378  56.864  1.00  0.00    -0.122 NA
HETATM    5  N   UNL     1       4.557  28.632  57.122  1.00  0.00    -0.131 NA
ENDROOT
BRANCH   3   6
HETATM    6  S   UNL     1       7.343  26.035  56.620  1.00  0.00    -0.070 SA
BRANCH   6   7
HETATM    7  C   UNL     1       6.765  25.368  55.016  1.00  0.00     0.180 C 
BRANCH   7   8
HETATM    8  C   UNL     1       6.709  26.496  53.973  1.00  0.00     0.244 C 
HETATM    9  N   UNL     1       5.434  26.869  53.576  1.00  0.00    -0.278 N 
HETATM   10  C   UNL     1       5.050  27.964  52.860  1.00  0.00     0.320 C 
HETATM   11  H   UNL     1       4.636  26.378  53.962  1.00  0.00     0.173 HD
HETATM   12  N   UNL     1       6.026  28.777  52.408  1.00  0.00    -0.352 N 
HETATM   13  O   UNL     1       3.867  28.221  52.674  1.00  0.00    -0.247 OA
HETATM   14  H   UNL     1       6.977  28.431  52.355  1.00  0.00     0.160 HD
HETATM   15  H   UNL     1       5.749  29.538  51.804  1.00  0.00     0.160 HD
HETATM   16  O   UNL     1       7.748  26.948  53.479  1.00  0.00    -0.271 OA
ENDBRANCH   7   8
BRANCH   7  17
HETATM   17  C   UNL     1       7.509  24.134  54.513  1.00  0.00    -0.035 A 
HETATM   18  C   UNL     1       7.213  23.473  53.309  1.00  0.00     0.009 A 
HETATM   19  C   UNL     1       7.920  22.329  52.927  1.00  0.00     0.001 A 
HETATM   20  C   UNL     1       8.921  21.816  53.746  1.00  0.00     0.000 A 
HETATM   21  C   UNL     1       9.223  22.448  54.947  1.00  0.00     0.001 A 
HETATM   22  C   UNL     1       8.526  23.596  55.327  1.00  0.00     0.009 A 
ENDBRANCH   7  17
ENDBRANCH   6   7
ENDBRANCH   3   6
BRANCH   2  23
HETATM   23  C   UNL     1       8.091  29.219  57.200  1.00  0.00     0.043 A 
HETATM   24  C   UNL     1       8.553  29.695  58.437  1.00  0.00     0.033 A 
HETATM   25  C   UNL     1       9.856  30.187  58.545  1.00  0.00     0.044 A 
HETATM   26  C   UNL     1      10.684  30.195  57.429  1.00  0.00     0.116 A 
HETATM   27  F   UNL     1      11.930  30.670  57.540  1.00  0.00    -0.206 F 
HETATM   28  C   UNL     1      10.238  29.712  56.204  1.00  0.00     0.044 A 
HETATM   29  C   UNL     1       8.938  29.217  56.084  1.00  0.00     0.033 A 
ENDBRANCH   2  23
BRANCH   1  30
HETATM   30  C   UNL     1       5.460  30.935  57.296  1.00  0.00     0.255 C 
HETATM   31  C   UNL     1       4.329  31.355  56.347  1.00  0.00     0.049 C 
BRANCH  30  32
HETATM   32  N   UNL     1       5.149  31.397  58.740  1.00  0.00    -0.060 N 
HETATM   33  H   UNL     1       5.265  30.547  59.315  1.00  0.00     0.280 HD
HETATM   34  C   UNL     1       6.191  32.389  59.234  1.00  0.00     0.236 C 
HETATM   35  C   UNL     1       5.941  32.735  60.694  1.00  0.00     0.028 C 
HETATM   36  C   UNL     1       4.538  33.284  60.902  1.00  0.00     0.003 C 
HETATM   37  C   UNL     1       3.501  32.298  60.385  1.00  0.00     0.028 C 
HETATM   38  C   UNL     1       3.744  31.924  58.930  1.00  0.00     0.236 C 
ENDBRANCH  30  32
ENDBRANCH   1  30
TORSDOF 7
ENDMDL
MODEL 3
REMARK VINA RESULT:      -9.0      3.386      7.837
REMARK  7 active torsions:
REMARK  status: ('A' for Active; 'I' for Inactive)
REMARK    1  A    between atoms: C_2  and  N_3 
REMARK    2  A    between atoms: C_2  and  C_10 
REMARK    3  A    between atoms: N_11  and  C_12 
REMARK    4  A    between atoms: C_19  and  S_20 
REMARK    5  A    between atoms: S_20  and  C_21 
REMARK    6  A    between atoms: C_21  and  C_22 
REMARK    7  A    between atoms: C_21  and  C_28 
REMARK       I    between atoms: C_22  and  N_23 
REMARK       I    between atoms: N_23  and  C_24 
REMARK       I    between atoms: C_24  and  N_25 
ROOT
HETATM    1  C   UNL     1       7.730  25.241  56.325  1.00  0.00     0.166 A 
HETATM    2  N   UNL     1       6.724  25.990  55.725  1.00  0.00    -0.274 N 
HETATM    3  C   UNL     1       6.252  26.791  56.750  1.00  0.00     0.197 A 
HETATM    4  N   UNL     1       6.872  26.500  57.871  1.00  0.00    -0.122 NA
HETATM    5  N   UNL     1       7.793  25.526  57.610  1.00  0.00    -0.131 NA
ENDROOT
BRANCH   3   6
HETATM    6  S   UNL     1       4.937  27.914  56.659  1.00  0.00    -0.070 SA
BRANCH   6   7
HETATM    7  C   UNL     1       5.791  29.496  56.314  1.00  0.00     0.180 C 
BRANCH   7   8
HETATM    8  C   UNL     1       4.964  30.666  56.870  1.00  0.00     0.244 C 
HETATM    9  N   UNL     1       4.132  30.348  57.932  1.00  0.00    -0.278 N 
HETATM   10  C   UNL     1       3.464  31.189  58.774  1.00  0.00     0.320 C 
HETATM   11  H   UNL     1       4.096  29.390  58.258  1.00  0.00     0.173 HD
HETATM   12  N   UNL     1       3.554  32.510  58.521  1.00  0.00    -0.352 N 
HETATM   13  O   UNL     1       2.846  30.762  59.741  1.00  0.00    -0.247 OA
HETATM   14  H   UNL     1       3.850  32.823  57.605  1.00  0.00     0.160 HD
HETATM   15  H   UNL     1       2.989  33.127  59.090  1.00  0.00     0.160 HD
HETATM   16  O   UNL     1       4.997  31.774  56.323  1.00  0.00    -0.271 OA
ENDBRANCH   7   8
BRANCH   7  17
HETATM   17  C   UNL     1       7.257  29.554  56.734  1.00  0.00    -0.035 A 
HETATM   18  C   UNL     1       7.695  29.922  58.017  1.00  0.00     0.009 A 
HETATM   19  C   UNL     1       9.058  29.981  58.321  1.00  0.00     0.001 A 
HETATM   20  C   UNL     1      10.007  29.689  57.346  1.00  0.00     0.000 A 
HETATM   21  C   UNL     1       9.597  29.333  56.067  1.00  0.00     0.001 A 
HETATM   22  C   UNL     1       8.237  29.264  55.763  1.00  0.00     0.009 A 
ENDBRANCH   7  17
ENDBRANCH   6   7
ENDBRANCH   3   6
BRANCH   2  23
HETATM   23  C   UNL     1       6.311  25.933  54.373  1.00  0.00     0.043 A 
HETATM   24  C   UNL     1       5.340  24.995  53.986  1.00  0.00     0.033 A 
HETATM   25  C   UNL     1       4.929  24.937  52.653  1.00  0.00     0.044 A 
HETATM   26  C   UNL     1       5.479  25.811  51.723  1.00  0.00     0.116 A 
HETATM   27  F   UNL     1       5.081  25.748  50.447  1.00  0.00    -0.206 F 
HETATM   28  C   UNL     1       6.429  26.753  52.101  1.00  0.00     0.044 A 
HETATM   29  C   UNL     1       6.848  26.821  53.432  1.00  0.00     0.033 A 
ENDBRANCH   2  23
BRANCH   1  30
HETATM   30  C   UNL     1       8.736  24.376  55.626  1.00  0.00     0.255 C 
HETATM   31  C   UNL     1       9.869  24.071  56.615  1.00  0.00     0.049 C 
BRANCH  30  32
HETATM   32  N   UNL     1       8.085  23.061  55.134  1.00  0.00    -0.060 N 
HETATM   33  H   UNL     1       7.068  23.241  55.183  1.00  0.00     0.280 HD
HETATM   34  C   UNL     1       8.401  22.809  53.668  1.00  0.00     0.236 C 
HETATM   35  C   UNL     1       7.652  21.582  53.169  1.00  0.00     0.028 C 
HETATM   36  C   UNL     1       7.975  20.355  54.007  1.00  0.00     0.003 C 
HETATM   37  C   UNL     1       7.679  20.621  55.474  1.00  0.00     0.028 C 
HETATM   38  C   UNL     1       8.405  21.856  55.989  1.00  0.00     0.236 C 
ENDBRANCH  30  32
ENDBRANCH   1  30
TORSDOF 7
ENDMDL
MODEL 4
REMARK VINA RESULT:      -8.9      4.261      7.842
REMARK  7 active torsions:
REMARK  status: ('A' for Active; 'I' for Inactive)
REMARK    1  A    between atoms: C_2  and  N_3 
REMARK    2  A    between atoms: C_2  and  C_10 
REMARK    3  A    between atoms: N_11  and  C_12 
REMARK    4  A    between atoms: C_19  and  S_20 
REMARK    5  A    between atoms: S_20  and  C_21 
REMARK    6  A    between atoms: C_21  and  C_22 
REMARK    7  A    between atoms: C_21  and  C_28 
REMARK       I    between atoms: C_22  and  N_23 
REMARK       I    between atoms: N_23  and  C_24 
REMARK       I    between atoms: C_24  and  N_25 
ROOT
HETATM    1  C   UNL     1       6.304  25.058  54.231  1.00  0.00     0.166 A 
HETATM    2  N   UNL     1       6.053  26.426  54.239  1.00  0.00    -0.274 N 
HETATM    3  C   UNL     1       4.964  26.567  53.397  1.00  0.00     0.197 A 
HETATM    4  N   UNL     1       4.638  25.403  52.884  1.00  0.00    -0.122 NA
HETATM    5  N   UNL     1       5.478  24.458  53.399  1.00  0.00    -0.131 NA
ENDROOT
BRANCH   3   6
HETATM    6  S   UNL     1       4.204  28.053  52.934  1.00  0.00    -0.070 SA
BRANCH   6   7
HETATM    7  C   UNL     1       5.030  28.442  51.347  1.00  0.00     0.180 C 
BRANCH   7   8
HETATM    8  C   UNL     1       4.392  27.622  50.214  1.00  0.00     0.244 C 
HETATM    9  N   UNL     1       3.100  27.991  49.874  1.00  0.00    -0.278 N 
HETATM   10  C   UNL     1       2.367  27.623  48.784  1.00  0.00     0.320 C 
HETATM   11  H   UNL     1       2.651  28.738  50.389  1.00  0.00     0.173 HD
HETATM   12  N   UNL     1       2.923  26.729  47.942  1.00  0.00    -0.352 N 
HETATM   13  O   UNL     1       1.269  28.117  48.559  1.00  0.00    -0.247 OA
HETATM   14  H   UNL     1       3.698  26.160  48.261  1.00  0.00     0.160 HD
HETATM   15  H   UNL     1       2.347  26.391  47.184  1.00  0.00     0.160 HD
HETATM   16  O   UNL     1       4.986  26.651  49.730  1.00  0.00    -0.271 OA
ENDBRANCH   7   8
BRANCH   7  17
HETATM   17  C   UNL     1       5.140  29.927  51.013  1.00  0.00    -0.035 A 
HETATM   18  C   UNL     1       4.461  30.943  51.706  1.00  0.00     0.009 A 
HETATM   19  C   UNL     1       4.589  32.282  51.323  1.00  0.00     0.001 A 
HETATM   20  C   UNL     1       5.384  32.627  50.235  1.00  0.00     0.000 A 
HETATM   21  C   UNL     1       6.057  31.637  49.528  1.00  0.00     0.001 A 
HETATM   22  C   UNL     1       5.938  30.301  49.913  1.00  0.00     0.009 A 
ENDBRANCH   7  17
ENDBRANCH   6   7
ENDBRANCH   3   6
BRANCH   2  23
HETATM   23  C   UNL     1       6.758  27.417  54.962  1.00  0.00     0.043 A 
HETATM   24  C   UNL     1       6.279  27.829  56.215  1.00  0.00     0.033 A 
HETATM   25  C   UNL     1       6.972  28.805  56.934  1.00  0.00     0.044 A 
HETATM   26  C   UNL     1       8.133  29.356  56.403  1.00  0.00     0.116 A 
HETATM   27  F   UNL     1       8.791  30.293  57.096  1.00  0.00    -0.206 F 
HETATM   28  C   UNL     1       8.622  28.943  55.170  1.00  0.00     0.044 A 
HETATM   29  C   UNL     1       7.938  27.966  54.443  1.00  0.00     0.033 A 
ENDBRANCH   2  23
BRANCH   1  30
HETATM   30  C   UNL     1       7.227  24.315  55.150  1.00  0.00     0.255 C 
HETATM   31  C   UNL     1       6.669  24.425  56.575  1.00  0.00     0.049 C 
BRANCH  30  32
HETATM   32  N   UNL     1       7.344  22.830  54.732  1.00  0.00    -0.060 N 
HETATM   33  H   UNL     1       6.382  22.560  54.467  1.00  0.00     0.280 HD
HETATM   34  C   UNL     1       8.188  22.679  53.476  1.00  0.00     0.236 C 
HETATM   35  C   UNL     1       8.188  21.231  53.010  1.00  0.00     0.028 C 
HETATM   36  C   UNL     1       8.679  20.295  54.103  1.00  0.00     0.003 C 
HETATM   37  C   UNL     1       7.845  20.467  55.363  1.00  0.00     0.028 C 
HETATM   38  C   UNL     1       7.819  21.913  55.836  1.00  0.00     0.236 C 
ENDBRANCH  30  32
ENDBRANCH   1  30
TORSDOF 7
ENDMDL
MODEL 5
REMARK VINA RESULT:      -8.8      4.095      8.849
REMARK  7 active torsions:
REMARK  status: ('A' for Active; 'I' for Inactive)
REMARK    1  A    between atoms: C_2  and  N_3 
REMARK    2  A    between atoms: C_2  and  C_10 
REMARK    3  A    between atoms: N_11  and  C_12 
REMARK    4  A    between atoms: C_19  and  S_20 
REMARK    5  A    between atoms: S_20  and  C_21 
REMARK    6  A    between atoms: C_21  and  C_22 
REMARK    7  A    between atoms: C_21  and  C_28 
REMARK       I    between atoms: C_22  and  N_23 
REMARK       I    between atoms: N_23  and  C_24 
REMARK       I    between atoms: C_24  and  N_25 
ROOT
HETATM    1  C   UNL     1       5.987  27.653  56.270  1.00  0.00     0.166 A 
HETATM    2  N   UNL     1       6.579  28.884  56.530  1.00  0.00    -0.274 N 
HETATM    3  C   UNL     1       5.506  29.752  56.628  1.00  0.00     0.197 A 
HETATM    4  N   UNL     1       4.385  29.112  56.384  1.00  0.00    -0.122 NA
HETATM    5  N   UNL     1       4.684  27.800  56.152  1.00  0.00    -0.131 NA
ENDROOT
BRANCH   3   6
HETATM    6  S   UNL     1       5.584  31.463  56.881  1.00  0.00    -0.070 SA
BRANCH   6   7
HETATM    7  C   UNL     1       5.364  31.607  58.692  1.00  0.00     0.180 C 
BRANCH   7   8
HETATM    8  C   UNL     1       6.731  31.786  59.371  1.00  0.00     0.244 C 
HETATM    9  N   UNL     1       6.777  31.427  60.709  1.00  0.00    -0.278 N 
HETATM   10  C   UNL     1       7.868  31.254  61.509  1.00  0.00     0.320 C 
HETATM   11  H   UNL     1       5.930  31.102  61.159  1.00  0.00     0.173 HD
HETATM   12  N   UNL     1       9.074  31.525  60.971  1.00  0.00    -0.352 N 
HETATM   13  O   UNL     1       7.758  30.829  62.652  1.00  0.00    -0.247 OA
HETATM   14  H   UNL     1       9.130  32.095  60.135  1.00  0.00     0.160 HD
HETATM   15  H   UNL     1       9.873  31.481  61.588  1.00  0.00     0.160 HD
HETATM   16  O   UNL     1       7.673  32.303  58.760  1.00  0.00    -0.271 OA
ENDBRANCH   7   8
BRANCH   7  17
HETATM   17  C   UNL     1       4.337  32.641  59.147  1.00  0.00    -0.035 A 
HETATM   18  C   UNL     1       3.523  32.495  60.283  1.00  0.00     0.009 A 
HETATM   19  C   UNL     1       2.583  33.473  60.621  1.00  0.00     0.001 A 
HETATM   20  C   UNL     1       2.430  34.604  59.826  1.00  0.00     0.000 A 
HETATM   21  C   UNL     1       3.217  34.764  58.692  1.00  0.00     0.001 A 
HETATM   22  C   UNL     1       4.163  33.794  58.356  1.00  0.00     0.009 A 
ENDBRANCH   7  17
ENDBRANCH   6   7
ENDBRANCH   3   6
BRANCH   2  23
HETATM   23  C   UNL     1       7.961  29.152  56.671  1.00  0.00     0.043 A 
HETATM   24  C   UNL     1       8.515  29.266  57.956  1.00  0.00     0.033 A 
HETATM   25  C   UNL     1       9.879  29.529  58.100  1.00  0.00     0.044 A 
HETATM   26  C   UNL     1      10.676  29.669  56.970  1.00  0.00     0.116 A 
HETATM   27  F   UNL     1      11.982  29.923  57.116  1.00  0.00    -0.206 F 
HETATM   28  C   UNL     1      10.139  29.542  55.695  1.00  0.00     0.044 A 
HETATM   29  C   UNL     1       8.776  29.279  55.538  1.00  0.00     0.033 A 
ENDBRANCH   2  23
BRANCH   1  30
HETATM   30  C   UNL     1       6.663  26.314  56.299  1.00  0.00     0.255 C 
HETATM   31  C   UNL     1       5.919  25.428  57.307  1.00  0.00     0.049 C 
BRANCH  30  32
HETATM   32  N   UNL     1       6.650  25.659  54.897  1.00  0.00    -0.060 N 
HETATM   33  H   UNL     1       5.656  25.670  54.615  1.00  0.00     0.280 HD
HETATM   34  C   UNL     1       7.388  26.521  53.883  1.00  0.00     0.236 C 
HETATM   35  C   UNL     1       7.257  25.925  52.489  1.00  0.00     0.028 C 
HETATM   36  C   UNL     1       7.766  24.493  52.447  1.00  0.00     0.003 C 
HETATM   37  C   UNL     1       7.041  23.642  53.478  1.00  0.00     0.028 C 
HETATM   38  C   UNL     1       7.144  24.231  54.878  1.00  0.00     0.236 C 
ENDBRANCH  30  32
ENDBRANCH   1  30
TORSDOF 7
ENDMDL
MODEL 6
REMARK VINA RESULT:      -8.8      3.402      7.213
REMARK  7 active torsions:
REMARK  status: ('A' for Active; 'I' for Inactive)
REMARK    1  A    between atoms: C_2  and  N_3 
REMARK    2  A    between atoms: C_2  and  C_10 
REMARK    3  A    between atoms: N_11  and  C_12 
REMARK    4  A    between atoms: C_19  and  S_20 
REMARK    5  A    between atoms: S_20  and  C_21 
REMARK    6  A    between atoms: C_21  and  C_22 
REMARK    7  A    between atoms: C_21  and  C_28 
REMARK       I    between atoms: C_22  and  N_23 
REMARK       I    between atoms: N_23  and  C_24 
REMARK       I    between atoms: C_24  and  N_25 
ROOT
HETATM    1  C   UNL     1       6.854  25.452  55.783  1.00  0.00     0.166 A 
HETATM    2  N   UNL     1       6.747  26.822  55.995  1.00  0.00    -0.274 N 
HETATM    3  C   UNL     1       5.383  27.039  56.071  1.00  0.00     0.197 A 
HETATM    4  N   UNL     1       4.735  25.916  55.859  1.00  0.00    -0.122 NA
HETATM    5  N   UNL     1       5.653  24.922  55.671  1.00  0.00    -0.131 NA
ENDROOT
BRANCH   3   6
HETATM    6  S   UNL     1       4.591  28.567  56.263  1.00  0.00    -0.070 SA
BRANCH   6   7
HETATM    7  C   UNL     1       4.668  29.267  54.574  1.00  0.00     0.180 C 
BRANCH   7   8
HETATM    8  C   UNL     1       4.408  28.161  53.539  1.00  0.00     0.244 C 
HETATM    9  N   UNL     1       5.545  27.602  52.975  1.00  0.00    -0.278 N 
HETATM   10  C   UNL     1       5.654  26.471  52.220  1.00  0.00     0.320 C 
HETATM   11  H   UNL     1       6.453  27.957  53.248  1.00  0.00     0.173 HD
HETATM   12  N   UNL     1       4.512  25.827  51.908  1.00  0.00    -0.352 N 
HETATM   13  O   UNL     1       6.748  26.038  51.878  1.00  0.00    -0.247 OA
HETATM   14  H   UNL     1       3.628  26.317  51.982  1.00  0.00     0.160 HD
HETATM   15  H   UNL     1       4.585  25.041  51.276  1.00  0.00     0.160 HD
HETATM   16  O   UNL     1       3.254  27.884  53.191  1.00  0.00    -0.271 OA
ENDBRANCH   7   8
BRANCH   7  17
HETATM   17  C   UNL     1       3.811  30.509  54.339  1.00  0.00    -0.035 A 
HETATM   18  C   UNL     1       3.786  31.233  53.135  1.00  0.00     0.009 A 
HETATM   19  C   UNL     1       2.998  32.380  53.004  1.00  0.00     0.001 A 
HETATM   20  C   UNL     1       2.233  32.832  54.075  1.00  0.00     0.000 A 
HETATM   21  C   UNL     1       2.251  32.137  55.279  1.00  0.00     0.001 A 
HETATM   22  C   UNL     1       3.030  30.987  55.411  1.00  0.00     0.009 A 
ENDBRANCH   7  17
ENDBRANCH   6   7
ENDBRANCH   3   6
BRANCH   2  23
HETATM   23  C   UNL     1       7.808  27.751  56.114  1.00  0.00     0.043 A 
HETATM   24  C   UNL     1       8.362  28.319  54.956  1.00  0.00     0.033 A 
HETATM   25  C   UNL     1       9.407  29.238  55.069  1.00  0.00     0.044 A 
HETATM   26  C   UNL     1       9.886  29.585  56.327  1.00  0.00     0.116 A 
HETATM   27  F   UNL     1      10.890  30.464  56.427  1.00  0.00    -0.206 F 
HETATM   28  C   UNL     1       9.333  29.038  57.479  1.00  0.00     0.044 A 
HETATM   29  C   UNL     1       8.286  28.119  57.378  1.00  0.00     0.033 A 
ENDBRANCH   2  23
BRANCH   1  30
HETATM   30  C   UNL     1       8.109  24.634  55.853  1.00  0.00     0.255 C 
HETATM   31  C   UNL     1       8.492  24.479  57.331  1.00  0.00     0.049 C 
BRANCH  30  32
HETATM   32  N   UNL     1       7.898  23.245  55.205  1.00  0.00    -0.060 N 
HETATM   33  H   UNL     1       6.878  23.086  55.257  1.00  0.00     0.280 HD
HETATM   34  C   UNL     1       8.248  23.272  53.725  1.00  0.00     0.236 C 
HETATM   35  C   UNL     1       7.917  21.936  53.078  1.00  0.00     0.028 C 
HETATM   36  C   UNL     1       8.630  20.788  53.777  1.00  0.00     0.003 C 
HETATM   37  C   UNL     1       8.294  20.780  55.260  1.00  0.00     0.028 C 
HETATM   38  C   UNL     1       8.602  22.115  55.922  1.00  0.00     0.236 C 
ENDBRANCH  30  32
ENDBRANCH   1  30
TORSDOF 7
ENDMDL
MODEL 7
REMARK VINA RESULT:      -8.8      2.839      7.150
REMARK  7 active torsions:
REMARK  status: ('A' for Active; 'I' for Inactive)
REMARK    1  A    between atoms: C_2  and  N_3 
REMARK    2  A    between atoms: C_2  and  C_10 
REMARK    3  A    between atoms: N_11  and  C_12 
REMARK    4  A    between atoms: C_19  and  S_20 
REMARK    5  A    between atoms: S_20  and  C_21 
REMARK    6  A    between atoms: C_21  and  C_22 
REMARK    7  A    between atoms: C_21  and  C_28 
REMARK       I    between atoms: C_22  and  N_23 
REMARK       I    between atoms: N_23  and  C_24 
REMARK       I    between atoms: C_24  and  N_25 
ROOT
HETATM    1  C   UNL     1       7.201  25.453  56.232  1.00  0.00     0.166 A 
HETATM    2  N   UNL     1       6.229  26.133  55.506  1.00  0.00    -0.274 N 
HETATM    3  C   UNL     1       5.602  26.923  56.454  1.00  0.00     0.197 A 
HETATM    4  N   UNL     1       6.108  26.687  57.643  1.00  0.00    -0.122 NA
HETATM    5  N   UNL     1       7.104  25.763  57.508  1.00  0.00    -0.131 NA
ENDROOT
BRANCH   3   6
HETATM    6  S   UNL     1       4.246  27.968  56.191  1.00  0.00    -0.070 SA
BRANCH   6   7
HETATM    7  C   UNL     1       5.014  29.629  56.231  1.00  0.00     0.180 C 
BRANCH   7   8
HETATM    8  C   UNL     1       6.532  29.497  56.430  1.00  0.00     0.244 C 
HETATM    9  N   UNL     1       6.982  29.751  57.717  1.00  0.00    -0.278 N 
HETATM   10  C   UNL     1       8.209  29.498  58.256  1.00  0.00     0.320 C 
HETATM   11  H   UNL     1       6.313  30.024  58.426  1.00  0.00     0.173 HD
HETATM   12  N   UNL     1       9.151  28.995  57.433  1.00  0.00    -0.352 N 
HETATM   13  O   UNL     1       8.430  29.679  59.447  1.00  0.00    -0.247 OA
HETATM   14  H   UNL     1       9.034  29.083  56.431  1.00  0.00     0.160 HD
HETATM   15  H   UNL     1      10.083  28.890  57.810  1.00  0.00     0.160 HD
HETATM   16  O   UNL     1       7.275  29.273  55.468  1.00  0.00    -0.271 OA
ENDBRANCH   7   8
BRANCH   7  17
HETATM   17  C   UNL     1       4.648  30.548  55.068  1.00  0.00    -0.035 A 
HETATM   18  C   UNL     1       4.645  31.951  55.144  1.00  0.00     0.009 A 
HETATM   19  C   UNL     1       4.269  32.728  54.044  1.00  0.00     0.001 A 
HETATM   20  C   UNL     1       3.876  32.119  52.856  1.00  0.00     0.000 A 
HETATM   21  C   UNL     1       3.861  30.732  52.762  1.00  0.00     0.001 A 
HETATM   22  C   UNL     1       4.244  29.954  53.856  1.00  0.00     0.009 A 
ENDBRANCH   7  17
ENDBRANCH   6   7
ENDBRANCH   3   6
BRANCH   2  23
HETATM   23  C   UNL     1       5.975  26.030  54.118  1.00  0.00     0.043 A 
HETATM   24  C   UNL     1       5.165  24.988  53.640  1.00  0.00     0.033 A 
HETATM   25  C   UNL     1       4.910  24.884  52.271  1.00  0.00     0.044 A 
HETATM   26  C   UNL     1       5.455  25.816  51.396  1.00  0.00     0.116 A 
HETATM   27  F   UNL     1       5.207  25.708  50.085  1.00  0.00    -0.206 F 
HETATM   28  C   UNL     1       6.245  26.860  51.863  1.00  0.00     0.044 A 
HETATM   29  C   UNL     1       6.506  26.975  53.230  1.00  0.00     0.033 A 
ENDBRANCH   2  23
BRANCH   1  30
HETATM   30  C   UNL     1       8.325  24.635  55.669  1.00  0.00     0.255 C 
HETATM   31  C   UNL     1       9.375  24.447  56.773  1.00  0.00     0.049 C 
BRANCH  30  32
HETATM   32  N   UNL     1       7.813  23.261  55.176  1.00  0.00    -0.060 N 
HETATM   33  H   UNL     1       6.786  23.367  55.133  1.00  0.00     0.280 HD
HETATM   34  C   UNL     1       8.271  22.984  53.752  1.00  0.00     0.236 C 
HETATM   35  C   UNL     1       7.656  21.690  53.241  1.00  0.00     0.028 C 
HETATM   36  C   UNL     1       7.993  20.518  54.150  1.00  0.00     0.003 C 
HETATM   37  C   UNL     1       7.553  20.810  55.576  1.00  0.00     0.028 C 
HETATM   38  C   UNL     1       8.144  22.111  56.100  1.00  0.00     0.236 C 
ENDBRANCH  30  32
ENDBRANCH   1  30
TORSDOF 7
ENDMDL
MODEL 8
REMARK VINA RESULT:      -8.7      3.187      7.664
REMARK  7 active torsions:
REMARK  status: ('A' for Active; 'I' for Inactive)
REMARK    1  A    between atoms: C_2  and  N_3 
REMARK    2  A    between atoms: C_2  and  C_10 
REMARK    3  A    between atoms: N_11  and  C_12 
REMARK    4  A    between atoms: C_19  and  S_20 
REMARK    5  A    between atoms: S_20  and  C_21 
REMARK    6  A    between atoms: C_21  and  C_22 
REMARK    7  A    between atoms: C_21  and  C_28 
REMARK       I    between atoms: C_22  and  N_23 
REMARK       I    between atoms: N_23  and  C_24 
REMARK       I    between atoms: C_24  and  N_25 
ROOT
HETATM    1  C   UNL     1       7.403  25.666  55.836  1.00  0.00     0.166 A 
HETATM    2  N   UNL     1       7.178  27.004  55.533  1.00  0.00    -0.274 N 
HETATM    3  C   UNL     1       8.042  27.683  56.374  1.00  0.00     0.197 A 
HETATM    4  N   UNL     1       8.673  26.833  57.152  1.00  0.00    -0.122 NA
HETATM    5  N   UNL     1       8.271  25.570  56.822  1.00  0.00    -0.131 NA
ENDROOT
BRANCH   3   6
HETATM    6  S   UNL     1       8.194  29.401  56.528  1.00  0.00    -0.070 SA
BRANCH   6   7
HETATM    7  C   UNL     1       6.867  29.811  57.720  1.00  0.00     0.180 C 
BRANCH   7   8
HETATM    8  C   UNL     1       7.406  30.777  58.787  1.00  0.00     0.244 C 
HETATM    9  N   UNL     1       8.041  30.174  59.862  1.00  0.00    -0.278 N 
HETATM   10  C   UNL     1       8.809  30.750  60.830  1.00  0.00     0.320 C 
HETATM   11  H   UNL     1       8.092  29.164  59.897  1.00  0.00     0.173 HD
HETATM   12  N   UNL     1       8.930  32.092  60.802  1.00  0.00    -0.352 N 
HETATM   13  O   UNL     1       9.398  30.071  61.663  1.00  0.00    -0.247 OA
HETATM   14  H   UNL     1       8.259  32.642  60.279  1.00  0.00     0.160 HD
HETATM   15  H   UNL     1       9.426  32.526  61.569  1.00  0.00     0.160 HD
HETATM   16  O   UNL     1       7.185  31.991  58.704  1.00  0.00    -0.271 OA
ENDBRANCH   7   8
BRANCH   7  17
HETATM   17  C   UNL     1       5.554  30.285  57.101  1.00  0.00    -0.035 A 
HETATM   18  C   UNL     1       4.290  30.068  57.674  1.00  0.00     0.009 A 
HETATM   19  C   UNL     1       3.128  30.507  57.034  1.00  0.00     0.001 A 
HETATM   20  C   UNL     1       3.205  31.155  55.805  1.00  0.00     0.000 A 
HETATM   21  C   UNL     1       4.445  31.371  55.215  1.00  0.00     0.001 A 
HETATM   22  C   UNL     1       5.608  30.942  55.855  1.00  0.00     0.009 A 
ENDBRANCH   7  17
ENDBRANCH   6   7
ENDBRANCH   3   6
BRANCH   2  23
HETATM   23  C   UNL     1       6.277  27.520  54.571  1.00  0.00     0.043 A 
HETATM   24  C   UNL     1       4.898  27.494  54.833  1.00  0.00     0.033 A 
HETATM   25  C   UNL     1       4.006  28.005  53.887  1.00  0.00     0.044 A 
HETATM   26  C   UNL     1       4.492  28.538  52.700  1.00  0.00     0.116 A 
HETATM   27  F   UNL     1       3.631  29.023  51.797  1.00  0.00    -0.206 F 
HETATM   28  C   UNL     1       5.857  28.581  52.440  1.00  0.00     0.044 A 
HETATM   29  C   UNL     1       6.759  28.075  53.378  1.00  0.00     0.033 A 
ENDBRANCH   2  23
BRANCH   1  30
HETATM   30  C   UNL     1       6.904  24.481  55.063  1.00  0.00     0.255 C 
HETATM   31  C   UNL     1       6.827  24.878  53.582  1.00  0.00     0.049 C 
BRANCH  30  32
HETATM   32  N   UNL     1       7.848  23.268  55.245  1.00  0.00    -0.060 N 
HETATM   33  H   UNL     1       8.735  23.678  55.582  1.00  0.00     0.280 HD
HETATM   34  C   UNL     1       7.355  22.352  56.355  1.00  0.00     0.236 C 
HETATM   35  C   UNL     1       8.359  21.236  56.603  1.00  0.00     0.028 C 
HETATM   36  C   UNL     1       8.633  20.442  55.335  1.00  0.00     0.003 C 
HETATM   37  C   UNL     1       9.104  21.367  54.223  1.00  0.00     0.028 C 
HETATM   38  C   UNL     1       8.121  22.502  53.970  1.00  0.00     0.236 C 
ENDBRANCH  30  32
ENDBRANCH   1  30
TORSDOF 7
ENDMDL
MODEL 9
REMARK VINA RESULT:      -8.7      3.897      8.048
REMARK  7 active torsions:
REMARK  status: ('A' for Active; 'I' for Inactive)
REMARK    1  A    between atoms: C_2  and  N_3 
REMARK    2  A    between atoms: C_2  and  C_10 
REMARK    3  A    between atoms: N_11  and  C_12 
REMARK    4  A    between atoms: C_19  and  S_20 
REMARK    5  A    between atoms: S_20  and  C_21 
REMARK    6  A    between atoms: C_21  and  C_22 
REMARK    7  A    between atoms: C_21  and  C_28 
REMARK       I    between atoms: C_22  and  N_23 
REMARK       I    between atoms: N_23  and  C_24 
REMARK       I    between atoms: C_24  and  N_25 
ROOT
HETATM    1  C   UNL     1       6.633  26.960  56.185  1.00  0.00     0.166 A 
HETATM    2  N   UNL     1       6.741  28.261  56.663  1.00  0.00    -0.274 N 
HETATM    3  C   UNL     1       5.427  28.670  56.805  1.00  0.00     0.197 A 
HETATM    4  N   UNL     1       4.614  27.727  56.388  1.00  0.00    -0.122 NA
HETATM    5  N   UNL     1       5.366  26.657  55.994  1.00  0.00    -0.131 NA
ENDROOT
BRANCH   3   6
HETATM    6  S   UNL     1       4.883  30.236  57.306  1.00  0.00    -0.070 SA
BRANCH   6   7
HETATM    7  C   UNL     1       5.083  31.231  55.782  1.00  0.00     0.180 C 
BRANCH   7   8
HETATM    8  C   UNL     1       4.176  30.673  54.673  1.00  0.00     0.244 C 
HETATM    9  N   UNL     1       4.821  29.906  53.715  1.00  0.00    -0.278 N 
HETATM   10  C   UNL     1       4.275  29.100  52.759  1.00  0.00     0.320 C 
HETATM   11  H   UNL     1       5.824  29.780  53.780  1.00  0.00     0.173 HD
HETATM   12  N   UNL     1       2.931  29.078  52.669  1.00  0.00    -0.352 N 
HETATM   13  O   UNL     1       4.977  28.395  52.045  1.00  0.00    -0.247 OA
HETATM   14  H   UNL     1       2.391  29.829  53.082  1.00  0.00     0.160 HD
HETATM   15  H   UNL     1       2.530  28.550  51.905  1.00  0.00     0.160 HD
HETATM   16  O   UNL     1       2.981  30.985  54.622  1.00  0.00    -0.271 OA
ENDBRANCH   7   8
BRANCH   7  17
HETATM   17  C   UNL     1       4.938  32.740  55.961  1.00  0.00    -0.035 A 
HETATM   18  C   UNL     1       5.078  33.673  54.920  1.00  0.00     0.009 A 
HETATM   19  C   UNL     1       4.960  35.044  55.166  1.00  0.00     0.001 A 
HETATM   20  C   UNL     1       4.716  35.508  56.455  1.00  0.00     0.000 A 
HETATM   21  C   UNL     1       4.585  34.603  57.502  1.00  0.00     0.001 A 
HETATM   22  C   UNL     1       4.693  33.233  57.258  1.00  0.00     0.009 A 
ENDBRANCH   7  17
ENDBRANCH   6   7
ENDBRANCH   3   6
BRANCH   2  23
HETATM   23  C   UNL     1       7.933  28.970  56.943  1.00  0.00     0.043 A 
HETATM   24  C   UNL     1       8.163  29.448  58.243  1.00  0.00     0.033 A 
HETATM   25  C   UNL     1       9.339  30.146  58.524  1.00  0.00     0.044 A 
HETATM   26  C   UNL     1      10.273  30.357  57.517  1.00  0.00     0.116 A 
HETATM   27  F   UNL     1      11.397  31.029  57.794  1.00  0.00    -0.206 F 
HETATM   28  C   UNL     1      10.060  29.873  56.231  1.00  0.00     0.044 A 
HETATM   29  C   UNL     1       8.888  29.172  55.938  1.00  0.00     0.033 A 
ENDBRANCH   2  23
BRANCH   1  30
HETATM   30  C   UNL     1       7.743  25.957  56.071  1.00  0.00     0.255 C 
HETATM   31  C   UNL     1       7.950  25.319  57.453  1.00  0.00     0.049 C 
BRANCH  30  32
HETATM   32  N   UNL     1       7.398  24.870  55.025  1.00  0.00    -0.060 N 
HETATM   33  H   UNL     1       6.368  24.798  55.056  1.00  0.00     0.280 HD
HETATM   34  C   UNL     1       7.750  25.332  53.619  1.00  0.00     0.236 C 
HETATM   35  C   UNL     1       7.290  24.305  52.595  1.00  0.00     0.028 C 
HETATM   36  C   UNL     1       7.888  22.935  52.874  1.00  0.00     0.003 C 
HETATM   37  C   UNL     1       7.552  22.489  54.289  1.00  0.00     0.028 C 
HETATM   38  C   UNL     1       7.989  23.511  55.329  1.00  0.00     0.236 C 
ENDBRANCH  30  32
ENDBRANCH   1  30
TORSDOF 7
ENDMDL
MODEL 10
REMARK VINA RESULT:      -8.6      3.239      6.476
REMARK  7 active torsions:
REMARK  status: ('A' for Active; 'I' for Inactive)
REMARK    1  A    between atoms: C_2  and  N_3 
REMARK    2  A    between atoms: C_2  and  C_10 
REMARK    3  A    between atoms: N_11  and  C_12 
REMARK    4  A    between atoms: C_19  and  S_20 
REMARK    5  A    between atoms: S_20  and  C_21 
REMARK    6  A    between atoms: C_21  and  C_22 
REMARK    7  A    between atoms: C_21  and  C_28 
REMARK       I    between atoms: C_22  and  N_23 
REMARK       I    between atoms: N_23  and  C_24 
REMARK       I    between atoms: C_24  and  N_25 
ROOT
HETATM    1  C   UNL     1       5.266  27.052  51.689  1.00  0.00     0.166 A 
HETATM    2  N   UNL     1       6.255  26.768  52.624  1.00  0.00    -0.274 N 
HETATM    3  C   UNL     1       6.733  25.529  52.233  1.00  0.00     0.197 A 
HETATM    4  N   UNL     1       6.048  25.087  51.203  1.00  0.00    -0.122 NA
HETATM    5  N   UNL     1       5.125  26.035  50.864  1.00  0.00    -0.131 NA
ENDROOT
BRANCH   3   6
HETATM    6  S   UNL     1       7.944  24.590  53.039  1.00  0.00    -0.070 SA
BRANCH   6   7
HETATM    7  C   UNL     1       7.018  23.871  54.445  1.00  0.00     0.180 C 
BRANCH   7   8
HETATM    8  C   UNL     1       7.517  22.445  54.723  1.00  0.00     0.244 C 
HETATM    9  N   UNL     1       7.743  21.669  53.596  1.00  0.00    -0.278 N 
HETATM   10  C   UNL     1       8.392  20.473  53.501  1.00  0.00     0.320 C 
HETATM   11  H   UNL     1       7.551  22.062  52.683  1.00  0.00     0.173 HD
HETATM   12  N   UNL     1       8.824  19.914  54.649  1.00  0.00    -0.352 N 
HETATM   13  O   UNL     1       8.610  19.952  52.414  1.00  0.00    -0.247 OA
HETATM   14  H   UNL     1       8.430  20.221  55.531  1.00  0.00     0.160 HD
HETATM   15  H   UNL     1       9.226  18.988  54.588  1.00  0.00     0.160 HD
HETATM   16  O   UNL     1       7.608  22.025  55.882  1.00  0.00    -0.271 OA
ENDBRANCH   7   8
BRANCH   7  17
HETATM   17  C   UNL     1       6.962  24.734  55.703  1.00  0.00    -0.035 A 
HETATM   18  C   UNL     1       8.095  25.248  56.356  1.00  0.00     0.009 A 
HETATM   19  C   UNL     1       7.966  26.008  57.523  1.00  0.00     0.001 A 
HETATM   20  C   UNL     1       6.709  26.255  58.064  1.00  0.00     0.000 A 
HETATM   21  C   UNL     1       5.575  25.748  57.440  1.00  0.00     0.001 A 
HETATM   22  C   UNL     1       5.699  24.996  56.271  1.00  0.00     0.009 A 
ENDBRANCH   7  17
ENDBRANCH   6   7
ENDBRANCH   3   6
BRANCH   2  23
HETATM   23  C   UNL     1       6.665  27.583  53.705  1.00  0.00     0.043 A 
HETATM   24  C   UNL     1       8.026  27.889  53.861  1.00  0.00     0.033 A 
HETATM   25  C   UNL     1       8.435  28.696  54.926  1.00  0.00     0.044 A 
HETATM   26  C   UNL     1       7.491  29.191  55.817  1.00  0.00     0.116 A 
HETATM   27  F   UNL     1       7.890  29.961  56.835  1.00  0.00    -0.206 F 
HETATM   28  C   UNL     1       6.140  28.905  55.660  1.00  0.00     0.044 A 
HETATM   29  C   UNL     1       5.718  28.101  54.599  1.00  0.00     0.033 A 
ENDBRANCH   2  23
BRANCH   1  30
HETATM   30  C   UNL     1       4.575  28.369  51.493  1.00  0.00     0.255 C 
HETATM   31  C   UNL     1       5.615  29.380  50.990  1.00  0.00     0.049 C 
BRANCH  30  32
HETATM   32  N   UNL     1       3.417  28.238  50.475  1.00  0.00    -0.060 N 
HETATM   33  H   UNL     1       2.994  27.319  50.681  1.00  0.00     0.280 HD
HETATM   34  C   UNL     1       2.335  29.273  50.742  1.00  0.00     0.236 C 
HETATM   35  C   UNL     1       1.150  29.050  49.814  1.00  0.00     0.028 C 
HETATM   36  C   UNL     1       1.574  29.081  48.354  1.00  0.00     0.003 C 
HETATM   37  C   UNL     1       2.673  28.061  48.099  1.00  0.00     0.028 C 
HETATM   38  C   UNL     1       3.861  28.256  49.030  1.00  0.00     0.236 C 
ENDBRANCH  30  32
ENDBRANCH   1  30
TORSDOF 7
ENDMDL
