MODEL 1
REMARK VINA RESULT:     -10.8      0.000      0.000
REMARK  6 active torsions:
REMARK  status: ('A' for Active; 'I' for Inactive)
REMARK    1  A    between atoms: C_5  and  C_6 
REMARK    2  A    between atoms: C_11  and  C_12 
REMARK       I    between atoms: C_12  and  N_13 
REMARK    3  A    between atoms: N_13  and  C_14 
REMARK    4  A    between atoms: C_16  and  C_17 
REMARK    5  A    between atoms: C_17  and  O_18 
REMARK    6  A    between atoms: C_25  and  C_26 
ROOT
HETATM    1  C   UNL     1       6.415  25.253  54.631  1.00  0.00     0.118 C 
HETATM    2  N   UNL     1       6.712  25.656  56.005  1.00  0.00    -0.366 N 
HETATM    3  C   UNL     1       7.097  26.905  56.331  1.00  0.00     0.123 A 
HETATM    4  N   UNL     1       7.090  27.912  55.409  1.00  0.00    -0.240 N 
HETATM    5  N   UNL     1       7.650  29.056  55.839  1.00  0.00    -0.165 NA
HETATM    6  C   UNL     1       7.896  28.805  57.147  1.00  0.00     0.148 A 
HETATM    7  C   UNL     1       7.550  27.468  57.492  1.00  0.00     0.089 A 
HETATM    8  C   UNL     1       6.627  27.734  54.047  1.00  0.00     0.221 C 
HETATM    9  C   UNL     1       6.921  26.292  53.606  1.00  0.00     0.066 C 
HETATM   10  H   UNL     1       6.701  24.905  56.695  1.00  0.00     0.161 HD
ENDROOT
BRANCH   6  11
HETATM   11  C   UNL     1       8.481  29.818  58.044  1.00  0.00     0.276 C 
HETATM   12  N   UNL     1       7.720  29.993  59.184  1.00  0.00    -0.322 N 
HETATM   13  H   UNL     1       6.871  29.434  59.194  1.00  0.00     0.169 HD
HETATM   14  O   UNL     1       9.505  30.423  57.744  1.00  0.00    -0.266 OA
BRANCH  12  15
HETATM   15  C   UNL     1       7.967  30.842  60.274  1.00  0.00     0.035 A 
HETATM   16  C   UNL     1       7.138  31.912  60.624  1.00  0.00     0.039 A 
HETATM   17  C   UNL     1       7.450  32.750  61.710  1.00  0.00    -0.028 A 
HETATM   18  C   UNL     1       8.600  32.476  62.462  1.00  0.00     0.010 A 
HETATM   19  C   UNL     1       9.431  31.411  62.122  1.00  0.00     0.003 A 
HETATM   20  C   UNL     1       9.121  30.604  61.026  1.00  0.00     0.029 A 
BRANCH  17  21
HETATM   21  C   UNL     1       6.532  33.907  62.039  1.00  0.00     0.147 C 
HETATM   22  C   UNL     1       5.114  33.663  61.540  1.00  0.00     0.044 C 
BRANCH  21  23
HETATM   23  O   UNL     1       6.494  34.132  63.448  1.00  0.00    -0.391 OA
HETATM   24  H   UNL     1       7.368  34.472  63.702  1.00  0.00     0.210 HD
ENDBRANCH  21  23
ENDBRANCH  17  21
ENDBRANCH  12  15
ENDBRANCH   6  11
BRANCH   8  25
HETATM   25  C   UNL     1       5.161  28.089  53.951  1.00  0.00     0.409 C 
HETATM   26  F   UNL     1       4.541  28.047  55.150  1.00  0.00    -0.169 F 
HETATM   27  F   UNL     1       5.028  29.362  53.493  1.00  0.00    -0.169 F 
HETATM   28  F   UNL     1       4.469  27.302  53.101  1.00  0.00    -0.169 F 
ENDBRANCH   8  25
BRANCH   1  29
HETATM   29  C   UNL     1       7.042  23.892  54.375  1.00  0.00    -0.035 A 
HETATM   30  C   UNL     1       7.297  23.012  55.434  1.00  0.00     0.010 A 
HETATM   31  C   UNL     1       7.873  21.761  55.197  1.00  0.00     0.007 A 
HETATM   32  C   UNL     1       8.216  21.368  53.897  1.00  0.00    -0.062 A 
HETATM   33  C   UNL     1       8.806  20.016  53.631  1.00  0.00     0.048 C 
HETATM   34  C   UNL     1       7.953  22.238  52.835  1.00  0.00     0.007 A 
HETATM   35  C   UNL     1       7.380  23.487  53.072  1.00  0.00     0.010 A 
ENDBRANCH   1  29
TORSDOF 6
ENDMDL
MODEL 2
REMARK VINA RESULT:     -10.6      2.921      9.744
REMARK  6 active torsions:
REMARK  status: ('A' for Active; 'I' for Inactive)
REMARK    1  A    between atoms: C_5  and  C_6 
REMARK    2  A    between atoms: C_11  and  C_12 
REMARK       I    between atoms: C_12  and  N_13 
REMARK    3  A    between atoms: N_13  and  C_14 
REMARK    4  A    between atoms: C_16  and  C_17 
REMARK    5  A    between atoms: C_17  and  O_18 
REMARK    6  A    between atoms: C_25  and  C_26 
ROOT
HETATM    1  C   UNL     1       6.676  31.373  58.706  1.00  0.00     0.118 C 
HETATM    2  N   UNL     1       7.484  30.192  58.404  1.00  0.00    -0.366 N 
HETATM    3  C   UNL     1       6.987  29.112  57.771  1.00  0.00     0.123 A 
HETATM    4  N   UNL     1       5.729  29.118  57.241  1.00  0.00    -0.240 N 
HETATM    5  N   UNL     1       5.317  27.921  56.787  1.00  0.00    -0.165 NA
HETATM    6  C   UNL     1       6.425  27.150  56.905  1.00  0.00     0.148 A 
HETATM    7  C   UNL     1       7.495  27.869  57.508  1.00  0.00     0.089 A 
HETATM    8  C   UNL     1       4.864  30.280  57.270  1.00  0.00     0.221 C 
HETATM    9  C   UNL     1       5.167  31.094  58.537  1.00  0.00     0.066 C 
HETATM   10  H   UNL     1       8.429  30.196  58.787  1.00  0.00     0.161 HD
ENDROOT
BRANCH   6  11
HETATM   11  C   UNL     1       6.448  25.740  56.475  1.00  0.00     0.276 C 
HETATM   12  N   UNL     1       7.345  25.533  55.445  1.00  0.00    -0.322 N 
HETATM   13  H   UNL     1       7.801  26.386  55.128  1.00  0.00     0.169 HD
HETATM   14  O   UNL     1       5.713  24.903  56.988  1.00  0.00    -0.266 OA
BRANCH  12  15
HETATM   15  C   UNL     1       7.665  24.331  54.796  1.00  0.00     0.035 A 
HETATM   16  C   UNL     1       8.198  23.217  55.451  1.00  0.00     0.039 A 
HETATM   17  C   UNL     1       8.527  22.045  54.745  1.00  0.00    -0.028 A 
HETATM   18  C   UNL     1       8.283  22.001  53.366  1.00  0.00     0.010 A 
HETATM   19  C   UNL     1       7.751  23.106  52.705  1.00  0.00     0.003 A 
HETATM   20  C   UNL     1       7.453  24.269  53.416  1.00  0.00     0.029 A 
BRANCH  17  21
HETATM   21  C   UNL     1       9.119  20.871  55.494  1.00  0.00     0.147 C 
HETATM   22  C   UNL     1       8.505  20.718  56.880  1.00  0.00     0.044 C 
BRANCH  21  23
HETATM   23  O   UNL     1       8.924  19.660  54.764  1.00  0.00    -0.391 OA
HETATM   24  H   UNL     1       7.971  19.474  54.779  1.00  0.00     0.210 HD
ENDBRANCH  21  23
ENDBRANCH  17  21
ENDBRANCH  12  15
ENDBRANCH   6  11
BRANCH   8  25
HETATM   25  C   UNL     1       5.039  31.083  56.002  1.00  0.00     0.409 C 
HETATM   26  F   UNL     1       6.080  30.652  55.258  1.00  0.00    -0.169 F 
HETATM   27  F   UNL     1       3.931  30.956  55.224  1.00  0.00    -0.169 F 
HETATM   28  F   UNL     1       5.205  32.405  56.217  1.00  0.00    -0.169 F 
ENDBRANCH   8  25
BRANCH   1  29
HETATM   29  C   UNL     1       6.987  31.827  60.123  1.00  0.00    -0.035 A 
HETATM   30  C   UNL     1       8.120  31.350  60.794  1.00  0.00     0.010 A 
HETATM   31  C   UNL     1       8.404  31.769  62.097  1.00  0.00     0.007 A 
HETATM   32  C   UNL     1       7.556  32.666  62.758  1.00  0.00    -0.062 A 
HETATM   33  C   UNL     1       7.871  33.144  64.145  1.00  0.00     0.048 C 
HETATM   34  C   UNL     1       6.431  33.155  62.089  1.00  0.00     0.007 A 
HETATM   35  C   UNL     1       6.146  32.735  60.790  1.00  0.00     0.010 A 
ENDBRANCH   1  29
TORSDOF 6
ENDMDL
MODEL 3
REMARK VINA RESULT:     -10.0      1.123      2.071
REMARK  6 active torsions:
REMARK  status: ('A' for Active; 'I' for Inactive)
REMARK    1  A    between atoms: C_5  and  C_6 
REMARK    2  A    between atoms: C_11  and  C_12 
REMARK       I    between atoms: C_12  and  N_13 
REMARK    3  A    between atoms: N_13  and  C_14 
REMARK    4  A    between atoms: C_16  and  C_17 
REMARK    5  A    between atoms: C_17  and  O_18 
REMARK    6  A    between atoms: C_25  and  C_26 
ROOT
HETATM    1  C   UNL     1       6.527  25.354  54.207  1.00  0.00     0.118 C 
HETATM    2  N   UNL     1       6.390  25.845  55.577  1.00  0.00    -0.366 N 
HETATM    3  C   UNL     1       6.738  27.095  55.942  1.00  0.00     0.123 A 
HETATM    4  N   UNL     1       7.105  28.026  55.015  1.00  0.00    -0.240 N 
HETATM    5  N   UNL     1       7.578  29.170  55.542  1.00  0.00    -0.165 NA
HETATM    6  C   UNL     1       7.366  29.007  56.870  1.00  0.00     0.148 A 
HETATM    7  C   UNL     1       6.828  27.721  57.155  1.00  0.00     0.089 A 
HETATM    8  C   UNL     1       7.099  27.769  53.589  1.00  0.00     0.221 C 
HETATM    9  C   UNL     1       7.414  26.285  53.350  1.00  0.00     0.066 C 
HETATM   10  H   UNL     1       6.099  25.151  56.266  1.00  0.00     0.161 HD
ENDROOT
BRANCH   6  11
HETATM   11  C   UNL     1       7.700  30.055  57.851  1.00  0.00     0.276 C 
HETATM   12  N   UNL     1       6.575  30.525  58.502  1.00  0.00    -0.322 N 
HETATM   13  H   UNL     1       5.710  30.108  58.167  1.00  0.00     0.169 HD
HETATM   14  O   UNL     1       8.853  30.444  58.005  1.00  0.00    -0.266 OA
BRANCH  12  15
HETATM   15  C   UNL     1       6.495  31.494  59.513  1.00  0.00     0.035 A 
HETATM   16  C   UNL     1       7.340  31.523  60.626  1.00  0.00     0.039 A 
HETATM   17  C   UNL     1       7.196  32.502  61.626  1.00  0.00    -0.028 A 
HETATM   18  C   UNL     1       6.200  33.476  61.474  1.00  0.00     0.010 A 
HETATM   19  C   UNL     1       5.353  33.456  60.368  1.00  0.00     0.003 A 
HETATM   20  C   UNL     1       5.494  32.464  59.397  1.00  0.00     0.029 A 
BRANCH  17  21
HETATM   21  C   UNL     1       8.124  32.482  62.821  1.00  0.00     0.147 C 
HETATM   22  C   UNL     1       7.441  33.012  64.075  1.00  0.00     0.044 C 
BRANCH  21  23
HETATM   23  O   UNL     1       8.589  31.156  63.073  1.00  0.00    -0.391 OA
HETATM   24  H   UNL     1       9.194  30.928  62.347  1.00  0.00     0.210 HD
ENDBRANCH  21  23
ENDBRANCH  17  21
ENDBRANCH  12  15
ENDBRANCH   6  11
BRANCH   8  25
HETATM   25  C   UNL     1       5.775  28.190  52.995  1.00  0.00     0.409 C 
HETATM   26  F   UNL     1       5.889  29.278  52.203  1.00  0.00    -0.169 F 
HETATM   27  F   UNL     1       5.288  27.192  52.211  1.00  0.00    -0.169 F 
HETATM   28  F   UNL     1       4.826  28.449  53.918  1.00  0.00    -0.169 F 
ENDBRANCH   8  25
BRANCH   1  29
HETATM   29  C   UNL     1       7.101  23.947  54.248  1.00  0.00    -0.035 A 
HETATM   30  C   UNL     1       7.463  23.288  53.066  1.00  0.00     0.010 A 
HETATM   31  C   UNL     1       7.991  21.994  53.106  1.00  0.00     0.007 A 
HETATM   32  C   UNL     1       8.158  21.330  54.326  1.00  0.00    -0.062 A 
HETATM   33  C   UNL     1       8.752  19.954  54.379  1.00  0.00     0.048 C 
HETATM   34  C   UNL     1       7.810  21.987  55.510  1.00  0.00     0.007 A 
HETATM   35  C   UNL     1       7.281  23.277  55.470  1.00  0.00     0.010 A 
ENDBRANCH   1  29
TORSDOF 6
ENDMDL
MODEL 4
REMARK VINA RESULT:      -9.9      5.157     11.885
REMARK  6 active torsions:
REMARK  status: ('A' for Active; 'I' for Inactive)
REMARK    1  A    between atoms: C_5  and  C_6 
REMARK    2  A    between atoms: C_11  and  C_12 
REMARK       I    between atoms: C_12  and  N_13 
REMARK    3  A    between atoms: N_13  and  C_14 
REMARK    4  A    between atoms: C_16  and  C_17 
REMARK    5  A    between atoms: C_17  and  O_18 
REMARK    6  A    between atoms: C_25  and  C_26 
ROOT
HETATM    1  C   UNL     1       5.953  34.403  65.631  1.00  0.00     0.118 C 
HETATM    2  N   UNL     1       7.232  33.999  65.049  1.00  0.00    -0.366 N 
HETATM    3  C   UNL     1       7.322  33.171  63.990  1.00  0.00     0.123 A 
HETATM    4  N   UNL     1       6.210  32.777  63.303  1.00  0.00    -0.240 N 
HETATM    5  N   UNL     1       6.442  31.828  62.378  1.00  0.00    -0.165 NA
HETATM    6  C   UNL     1       7.793  31.720  62.381  1.00  0.00     0.148 A 
HETATM    7  C   UNL     1       8.377  32.558  63.372  1.00  0.00     0.089 A 
HETATM    8  C   UNL     1       4.877  33.248  63.619  1.00  0.00     0.221 C 
HETATM    9  C   UNL     1       4.790  33.520  65.128  1.00  0.00     0.066 C 
HETATM   10  H   UNL     1       8.062  34.308  65.555  1.00  0.00     0.161 HD
ENDROOT
BRANCH   6  11
HETATM   11  C   UNL     1       8.508  30.809  61.470  1.00  0.00     0.276 C 
HETATM   12  N   UNL     1       8.120  30.989  60.156  1.00  0.00    -0.322 N 
HETATM   13  H   UNL     1       7.382  31.679  60.043  1.00  0.00     0.169 HD
HETATM   14  O   UNL     1       9.317  29.989  61.891  1.00  0.00    -0.266 OA
BRANCH  12  15
HETATM   15  C   UNL     1       8.593  30.331  59.010  1.00  0.00     0.035 A 
HETATM   16  C   UNL     1       7.944  29.244  58.418  1.00  0.00     0.039 A 
HETATM   17  C   UNL     1       8.480  28.604  57.286  1.00  0.00    -0.028 A 
HETATM   18  C   UNL     1       9.671  29.096  56.737  1.00  0.00     0.010 A 
HETATM   19  C   UNL     1      10.325  30.180  57.319  1.00  0.00     0.003 A 
HETATM   20  C   UNL     1       9.793  30.789  58.457  1.00  0.00     0.029 A 
BRANCH  17  21
HETATM   21  C   UNL     1       7.751  27.420  56.691  1.00  0.00     0.147 C 
HETATM   22  C   UNL     1       8.264  26.100  57.252  1.00  0.00     0.044 C 
BRANCH  21  23
HETATM   23  O   UNL     1       6.349  27.515  56.942  1.00  0.00    -0.391 OA
HETATM   24  H   UNL     1       6.110  26.751  57.494  1.00  0.00     0.210 HD
ENDBRANCH  21  23
ENDBRANCH  17  21
ENDBRANCH  12  15
ENDBRANCH   6  11
BRANCH   8  25
HETATM   25  C   UNL     1       4.549  34.464  62.785  1.00  0.00     0.409 C 
HETATM   26  F   UNL     1       3.896  34.148  61.646  1.00  0.00    -0.169 F 
HETATM   27  F   UNL     1       3.725  35.290  63.484  1.00  0.00    -0.169 F 
HETATM   28  F   UNL     1       5.631  35.198  62.449  1.00  0.00    -0.169 F 
ENDBRANCH   8  25
BRANCH   1  29
HETATM   29  C   UNL     1       6.064  34.340  67.146  1.00  0.00    -0.035 A 
HETATM   30  C   UNL     1       4.951  34.016  67.931  1.00  0.00     0.010 A 
HETATM   31  C   UNL     1       5.055  33.958  69.324  1.00  0.00     0.007 A 
HETATM   32  C   UNL     1       6.271  34.233  69.960  1.00  0.00    -0.062 A 
HETATM   33  C   UNL     1       6.398  34.144  71.452  1.00  0.00     0.048 C 
HETATM   34  C   UNL     1       7.388  34.546  69.181  1.00  0.00     0.007 A 
HETATM   35  C   UNL     1       7.284  34.606  67.791  1.00  0.00     0.010 A 
ENDBRANCH   1  29
TORSDOF 6
ENDMDL
MODEL 5
REMARK VINA RESULT:      -9.6      5.419      9.549
REMARK  6 active torsions:
REMARK  status: ('A' for Active; 'I' for Inactive)
REMARK    1  A    between atoms: C_5  and  C_6 
REMARK    2  A    between atoms: C_11  and  C_12 
REMARK       I    between atoms: C_12  and  N_13 
REMARK    3  A    between atoms: N_13  and  C_14 
REMARK    4  A    between atoms: C_16  and  C_17 
REMARK    5  A    between atoms: C_17  and  O_18 
REMARK    6  A    between atoms: C_25  and  C_26 
ROOT
HETATM    1  C   UNL     1       7.050  25.472  54.775  1.00  0.00     0.118 C 
HETATM    2  N   UNL     1       6.924  26.091  53.456  1.00  0.00    -0.366 N 
HETATM    3  C   UNL     1       5.895  26.893  53.122  1.00  0.00     0.123 A 
HETATM    4  N   UNL     1       4.979  27.294  54.052  1.00  0.00    -0.240 N 
HETATM    5  N   UNL     1       3.926  27.955  53.538  1.00  0.00    -0.165 NA
HETATM    6  C   UNL     1       4.264  28.104  52.234  1.00  0.00     0.148 A 
HETATM    7  C   UNL     1       5.499  27.460  51.942  1.00  0.00     0.089 A 
HETATM    8  C   UNL     1       5.069  26.940  55.454  1.00  0.00     0.221 C 
HETATM    9  C   UNL     1       5.733  25.561  55.578  1.00  0.00     0.066 C 
HETATM   10  H   UNL     1       7.619  25.802  52.768  1.00  0.00     0.161 HD
ENDROOT
BRANCH   6  11
HETATM   11  C   UNL     1       3.404  28.825  51.279  1.00  0.00     0.276 C 
HETATM   12  N   UNL     1       3.490  28.291  50.007  1.00  0.00    -0.322 N 
HETATM   13  H   UNL     1       4.159  27.529  49.933  1.00  0.00     0.169 HD
HETATM   14  O   UNL     1       2.737  29.794  51.625  1.00  0.00    -0.266 OA
BRANCH  12  15
HETATM   15  C   UNL     1       2.805  28.686  48.848  1.00  0.00     0.035 A 
HETATM   16  C   UNL     1       1.723  27.982  48.312  1.00  0.00     0.039 A 
HETATM   17  C   UNL     1       1.091  28.408  47.129  1.00  0.00    -0.028 A 
HETATM   18  C   UNL     1       1.548  29.577  46.507  1.00  0.00     0.010 A 
HETATM   19  C   UNL     1       2.625  30.286  47.035  1.00  0.00     0.003 A 
HETATM   20  C   UNL     1       3.257  29.837  48.195  1.00  0.00     0.029 A 
BRANCH  17  21
HETATM   21  C   UNL     1      -0.065  27.603  46.576  1.00  0.00     0.147 C 
HETATM   22  C   UNL     1      -1.181  28.501  46.056  1.00  0.00     0.044 C 
BRANCH  21  23
HETATM   23  O   UNL     1       0.376  26.753  45.519  1.00  0.00    -0.391 OA
HETATM   24  H   UNL     1       1.306  26.539  45.699  1.00  0.00     0.210 HD
ENDBRANCH  21  23
ENDBRANCH  17  21
ENDBRANCH  12  15
ENDBRANCH   6  11
BRANCH   8  25
HETATM   25  C   UNL     1       5.810  28.018  56.211  1.00  0.00     0.409 C 
HETATM   26  F   UNL     1       6.307  28.972  55.394  1.00  0.00    -0.169 F 
HETATM   27  F   UNL     1       4.957  28.647  57.063  1.00  0.00    -0.169 F 
HETATM   28  F   UNL     1       6.826  27.549  56.964  1.00  0.00    -0.169 F 
ENDBRANCH   8  25
BRANCH   1  29
HETATM   29  C   UNL     1       7.478  24.025  54.598  1.00  0.00    -0.035 A 
HETATM   30  C   UNL     1       7.704  23.499  53.319  1.00  0.00     0.010 A 
HETATM   31  C   UNL     1       8.099  22.167  53.158  1.00  0.00     0.007 A 
HETATM   32  C   UNL     1       8.264  21.333  54.270  1.00  0.00    -0.062 A 
HETATM   33  C   UNL     1       8.716  19.912  54.106  1.00  0.00     0.048 C 
HETATM   34  C   UNL     1       8.051  21.856  55.548  1.00  0.00     0.007 A 
HETATM   35  C   UNL     1       7.656  23.184  55.709  1.00  0.00     0.010 A 
ENDBRANCH   1  29
TORSDOF 6
ENDMDL
MODEL 6
REMARK VINA RESULT:      -9.5      5.384      9.453
REMARK  6 active torsions:
REMARK  status: ('A' for Active; 'I' for Inactive)
REMARK    1  A    between atoms: C_5  and  C_6 
REMARK    2  A    between atoms: C_11  and  C_12 
REMARK       I    between atoms: C_12  and  N_13 
REMARK    3  A    between atoms: N_13  and  C_14 
REMARK    4  A    between atoms: C_16  and  C_17 
REMARK    5  A    between atoms: C_17  and  O_18 
REMARK    6  A    between atoms: C_25  and  C_26 
ROOT
HETATM    1  C   UNL     1       7.143  25.564  54.656  1.00  0.00     0.118 C 
HETATM    2  N   UNL     1       6.979  26.084  53.299  1.00  0.00    -0.366 N 
HETATM    3  C   UNL     1       5.948  26.874  52.941  1.00  0.00     0.123 A 
HETATM    4  N   UNL     1       5.070  27.357  53.868  1.00  0.00    -0.240 N 
HETATM    5  N   UNL     1       4.008  27.993  53.341  1.00  0.00    -0.165 NA
HETATM    6  C   UNL     1       4.302  28.039  52.020  1.00  0.00     0.148 A 
HETATM    7  C   UNL     1       5.519  27.357  51.735  1.00  0.00     0.089 A 
HETATM    8  C   UNL     1       5.204  27.107  55.289  1.00  0.00     0.221 C 
HETATM    9  C   UNL     1       5.855  25.732  55.493  1.00  0.00     0.066 C 
HETATM   10  H   UNL     1       7.646  25.735  52.611  1.00  0.00     0.161 HD
ENDROOT
BRANCH   6  11
HETATM   11  C   UNL     1       3.418  28.700  51.043  1.00  0.00     0.276 C 
HETATM   12  N   UNL     1       3.283  27.954  49.888  1.00  0.00    -0.322 N 
HETATM   13  H   UNL     1       3.846  27.106  49.885  1.00  0.00     0.169 HD
HETATM   14  O   UNL     1       2.915  29.794  51.273  1.00  0.00    -0.266 OA
BRANCH  12  15
HETATM   15  C   UNL     1       2.509  28.238  48.752  1.00  0.00     0.035 A 
HETATM   16  C   UNL     1       2.665  29.391  47.978  1.00  0.00     0.039 A 
HETATM   17  C   UNL     1       1.839  29.639  46.866  1.00  0.00    -0.028 A 
HETATM   18  C   UNL     1       0.868  28.689  46.525  1.00  0.00     0.010 A 
HETATM   19  C   UNL     1       0.706  27.536  47.290  1.00  0.00     0.003 A 
HETATM   20  C   UNL     1       1.517  27.316  48.404  1.00  0.00     0.029 A 
BRANCH  17  21
HETATM   21  C   UNL     1       2.034  30.911  46.069  1.00  0.00     0.147 C 
HETATM   22  C   UNL     1       3.499  31.142  45.723  1.00  0.00     0.044 C 
BRANCH  21  23
HETATM   23  O   UNL     1       1.274  30.868  44.862  1.00  0.00    -0.391 OA
HETATM   24  H   UNL     1       1.868  30.536  44.168  1.00  0.00     0.210 HD
ENDBRANCH  21  23
ENDBRANCH  17  21
ENDBRANCH  12  15
ENDBRANCH   6  11
BRANCH   8  25
HETATM   25  C   UNL     1       5.983  28.227  55.937  1.00  0.00     0.409 C 
HETATM   26  F   UNL     1       6.673  28.963  55.039  1.00  0.00    -0.169 F 
HETATM   27  F   UNL     1       5.126  29.082  56.558  1.00  0.00    -0.169 F 
HETATM   28  F   UNL     1       6.853  27.807  56.880  1.00  0.00    -0.169 F 
ENDBRANCH   8  25
BRANCH   1  29
HETATM   29  C   UNL     1       7.547  24.102  54.573  1.00  0.00    -0.035 A 
HETATM   30  C   UNL     1       7.572  23.301  55.721  1.00  0.00     0.010 A 
HETATM   31  C   UNL     1       7.944  21.955  55.642  1.00  0.00     0.007 A 
HETATM   32  C   UNL     1       8.309  21.387  54.416  1.00  0.00    -0.062 A 
HETATM   33  C   UNL     1       8.680  19.937  54.319  1.00  0.00     0.048 C 
HETATM   34  C   UNL     1       8.274  22.178  53.265  1.00  0.00     0.007 A 
HETATM   35  C   UNL     1       7.905  23.521  53.344  1.00  0.00     0.010 A 
ENDBRANCH   1  29
TORSDOF 6
ENDMDL
MODEL 7
REMARK VINA RESULT:      -9.0      2.947      3.254
REMARK  6 active torsions:
REMARK  status: ('A' for Active; 'I' for Inactive)
REMARK    1  A    between atoms: C_5  and  C_6 
REMARK    2  A    between atoms: C_11  and  C_12 
REMARK       I    between atoms: C_12  and  N_13 
REMARK    3  A    between atoms: N_13  and  C_14 
REMARK    4  A    between atoms: C_16  and  C_17 
REMARK    5  A    between atoms: C_17  and  O_18 
REMARK    6  A    between atoms: C_25  and  C_26 
ROOT
HETATM    1  C   UNL     1       6.375  25.025  53.795  1.00  0.00     0.118 C 
HETATM    2  N   UNL     1       5.756  25.529  55.020  1.00  0.00    -0.366 N 
HETATM    3  C   UNL     1       5.848  26.816  55.407  1.00  0.00     0.123 A 
HETATM    4  N   UNL     1       6.407  27.761  54.596  1.00  0.00    -0.240 N 
HETATM    5  N   UNL     1       6.574  28.960  55.182  1.00  0.00    -0.165 NA
HETATM    6  C   UNL     1       5.959  28.805  56.379  1.00  0.00     0.148 A 
HETATM    7  C   UNL     1       5.481  27.475  56.548  1.00  0.00     0.089 A 
HETATM    8  C   UNL     1       6.887  27.473  53.260  1.00  0.00     0.221 C 
HETATM    9  C   UNL     1       7.400  26.026  53.217  1.00  0.00     0.066 C 
HETATM   10  H   UNL     1       5.325  24.823  55.617  1.00  0.00     0.161 HD
ENDROOT
BRANCH   6  11
HETATM   11  C   UNL     1       5.857  29.905  57.356  1.00  0.00     0.276 C 
HETATM   12  N   UNL     1       4.676  30.608  57.214  1.00  0.00    -0.322 N 
HETATM   13  H   UNL     1       4.103  30.284  56.439  1.00  0.00     0.169 HD
HETATM   14  O   UNL     1       6.759  30.136  58.154  1.00  0.00    -0.266 OA
BRANCH  12  15
HETATM   15  C   UNL     1       4.213  31.694  57.972  1.00  0.00     0.035 A 
HETATM   16  C   UNL     1       4.278  33.022  57.542  1.00  0.00     0.039 A 
HETATM   17  C   UNL     1       3.825  34.075  58.357  1.00  0.00    -0.028 A 
HETATM   18  C   UNL     1       3.273  33.768  59.607  1.00  0.00     0.010 A 
HETATM   19  C   UNL     1       3.202  32.447  60.044  1.00  0.00     0.003 A 
HETATM   20  C   UNL     1       3.679  31.415  59.234  1.00  0.00     0.029 A 
BRANCH  17  21
HETATM   21  C   UNL     1       3.933  35.499  57.855  1.00  0.00     0.147 C 
HETATM   22  C   UNL     1       4.018  36.497  59.003  1.00  0.00     0.044 C 
BRANCH  21  23
HETATM   23  O   UNL     1       5.083  35.652  57.023  1.00  0.00    -0.391 OA
HETATM   24  H   UNL     1       5.757  35.039  57.360  1.00  0.00     0.210 HD
ENDBRANCH  21  23
ENDBRANCH  17  21
ENDBRANCH  12  15
ENDBRANCH   6  11
BRANCH   8  25
HETATM   25  C   UNL     1       5.794  27.737  52.251  1.00  0.00     0.409 C 
HETATM   26  F   UNL     1       4.559  27.598  52.780  1.00  0.00    -0.169 F 
HETATM   27  F   UNL     1       5.880  29.020  51.808  1.00  0.00    -0.169 F 
HETATM   28  F   UNL     1       5.864  26.950  51.157  1.00  0.00    -0.169 F 
ENDBRANCH   8  25
BRANCH   1  29
HETATM   29  C   UNL     1       7.035  23.689  54.095  1.00  0.00    -0.035 A 
HETATM   30  C   UNL     1       7.144  23.226  55.413  1.00  0.00     0.010 A 
HETATM   31  C   UNL     1       7.751  21.997  55.687  1.00  0.00     0.007 A 
HETATM   32  C   UNL     1       8.269  21.210  54.651  1.00  0.00    -0.062 A 
HETATM   33  C   UNL     1       8.893  19.877  54.935  1.00  0.00     0.048 C 
HETATM   34  C   UNL     1       8.151  21.662  53.334  1.00  0.00     0.007 A 
HETATM   35  C   UNL     1       7.549  22.889  53.060  1.00  0.00     0.010 A 
ENDBRANCH   1  29
TORSDOF 6
ENDMDL
MODEL 8
REMARK VINA RESULT:      -9.0      4.008     10.975
REMARK  6 active torsions:
REMARK  status: ('A' for Active; 'I' for Inactive)
REMARK    1  A    between atoms: C_5  and  C_6 
REMARK    2  A    between atoms: C_11  and  C_12 
REMARK       I    between atoms: C_12  and  N_13 
REMARK    3  A    between atoms: N_13  and  C_14 
REMARK    4  A    between atoms: C_16  and  C_17 
REMARK    5  A    between atoms: C_17  and  O_18 
REMARK    6  A    between atoms: C_25  and  C_26 
ROOT
HETATM    1  C   UNL     1       5.150  34.428  63.243  1.00  0.00     0.118 C 
HETATM    2  N   UNL     1       6.410  34.064  62.596  1.00  0.00    -0.366 N 
HETATM    3  C   UNL     1       6.470  33.252  61.522  1.00  0.00     0.123 A 
HETATM    4  N   UNL     1       5.337  32.837  60.884  1.00  0.00    -0.240 N 
HETATM    5  N   UNL     1       5.548  31.906  59.937  1.00  0.00    -0.165 NA
HETATM    6  C   UNL     1       6.900  31.833  59.874  1.00  0.00     0.148 A 
HETATM    7  C   UNL     1       7.510  32.674  60.847  1.00  0.00     0.089 A 
HETATM    8  C   UNL     1       4.009  33.269  61.269  1.00  0.00     0.221 C 
HETATM    9  C   UNL     1       3.987  33.521  62.784  1.00  0.00     0.066 C 
HETATM   10  H   UNL     1       7.255  34.389  63.065  1.00  0.00     0.161 HD
ENDROOT
BRANCH   6  11
HETATM   11  C   UNL     1       7.594  30.951  58.919  1.00  0.00     0.276 C 
HETATM   12  N   UNL     1       6.754  29.974  58.421  1.00  0.00    -0.322 N 
HETATM   13  H   UNL     1       5.821  29.997  58.826  1.00  0.00     0.169 HD
HETATM   14  O   UNL     1       8.784  31.098  58.660  1.00  0.00    -0.266 OA
BRANCH  12  15
HETATM   15  C   UNL     1       7.041  28.976  57.476  1.00  0.00     0.035 A 
HETATM   16  C   UNL     1       7.216  27.629  57.804  1.00  0.00     0.039 A 
HETATM   17  C   UNL     1       7.532  26.675  56.819  1.00  0.00    -0.028 A 
HETATM   18  C   UNL     1       7.641  27.095  55.487  1.00  0.00     0.010 A 
HETATM   19  C   UNL     1       7.466  28.436  55.151  1.00  0.00     0.003 A 
HETATM   20  C   UNL     1       7.177  29.374  56.143  1.00  0.00     0.029 A 
BRANCH  17  21
HETATM   21  C   UNL     1       7.731  25.231  57.224  1.00  0.00     0.147 C 
HETATM   22  C   UNL     1       8.707  24.514  56.300  1.00  0.00     0.044 C 
BRANCH  21  23
HETATM   23  O   UNL     1       8.215  25.147  58.564  1.00  0.00    -0.391 OA
HETATM   24  H   UNL     1       9.179  25.261  58.521  1.00  0.00     0.210 HD
ENDBRANCH  21  23
ENDBRANCH  17  21
ENDBRANCH  12  15
ENDBRANCH   6  11
BRANCH   8  25
HETATM   25  C   UNL     1       3.611  34.487  60.467  1.00  0.00     0.409 C 
HETATM   26  F   UNL     1       4.679  35.179  60.017  1.00  0.00    -0.169 F 
HETATM   27  F   UNL     1       2.912  34.100  59.366  1.00  0.00    -0.169 F 
HETATM   28  F   UNL     1       2.818  35.344  61.142  1.00  0.00    -0.169 F 
ENDBRANCH   8  25
BRANCH   1  29
HETATM   29  C   UNL     1       5.335  34.350  64.749  1.00  0.00    -0.035 A 
HETATM   30  C   UNL     1       4.238  34.474  65.611  1.00  0.00     0.010 A 
HETATM   31  C   UNL     1       4.410  34.402  66.997  1.00  0.00     0.007 A 
HETATM   32  C   UNL     1       5.683  34.214  67.548  1.00  0.00    -0.062 A 
HETATM   33  C   UNL     1       5.870  34.106  69.032  1.00  0.00     0.048 C 
HETATM   34  C   UNL     1       6.779  34.078  66.693  1.00  0.00     0.007 A 
HETATM   35  C   UNL     1       6.608  34.152  65.311  1.00  0.00     0.010 A 
ENDBRANCH   1  29
TORSDOF 6
ENDMDL
MODEL 9
REMARK VINA RESULT:      -9.0      2.864      9.598
REMARK  6 active torsions:
REMARK  status: ('A' for Active; 'I' for Inactive)
REMARK    1  A    between atoms: C_5  and  C_6 
REMARK    2  A    between atoms: C_11  and  C_12 
REMARK       I    between atoms: C_12  and  N_13 
REMARK    3  A    between atoms: N_13  and  C_14 
REMARK    4  A    between atoms: C_16  and  C_17 
REMARK    5  A    between atoms: C_17  and  O_18 
REMARK    6  A    between atoms: C_25  and  C_26 
ROOT
HETATM    1  C   UNL     1       6.374  32.197  58.938  1.00  0.00     0.118 C 
HETATM    2  N   UNL     1       7.391  31.320  58.357  1.00  0.00    -0.366 N 
HETATM    3  C   UNL     1       7.085  30.283  57.554  1.00  0.00     0.123 A 
HETATM    4  N   UNL     1       5.809  30.078  57.116  1.00  0.00    -0.240 N 
HETATM    5  N   UNL     1       5.632  28.918  56.459  1.00  0.00    -0.165 NA
HETATM    6  C   UNL     1       6.892  28.430  56.352  1.00  0.00     0.148 A 
HETATM    7  C   UNL     1       7.830  29.268  57.018  1.00  0.00     0.089 A 
HETATM    8  C   UNL     1       4.712  30.972  57.429  1.00  0.00     0.221 C 
HETATM    9  C   UNL     1       4.957  31.595  58.811  1.00  0.00     0.066 C 
HETATM   10  H   UNL     1       8.346  31.485  58.674  1.00  0.00     0.161 HD
ENDROOT
BRANCH   6  11
HETATM   11  C   UNL     1       7.187  27.168  55.650  1.00  0.00     0.276 C 
HETATM   12  N   UNL     1       7.576  26.174  56.526  1.00  0.00    -0.322 N 
HETATM   13  H   UNL     1       7.638  26.487  57.492  1.00  0.00     0.169 HD
HETATM   14  O   UNL     1       7.107  27.082  54.429  1.00  0.00    -0.266 OA
BRANCH  12  15
HETATM   15  C   UNL     1       7.908  24.841  56.239  1.00  0.00     0.035 A 
HETATM   16  C   UNL     1       7.991  24.326  54.942  1.00  0.00     0.039 A 
HETATM   17  C   UNL     1       8.300  22.973  54.714  1.00  0.00    -0.028 A 
HETATM   18  C   UNL     1       8.555  22.146  55.816  1.00  0.00     0.010 A 
HETATM   19  C   UNL     1       8.476  22.650  57.112  1.00  0.00     0.003 A 
HETATM   20  C   UNL     1       8.144  23.990  57.323  1.00  0.00     0.029 A 
BRANCH  17  21
HETATM   21  C   UNL     1       8.360  22.458  53.292  1.00  0.00     0.147 C 
HETATM   22  C   UNL     1       8.132  20.953  53.227  1.00  0.00     0.044 C 
BRANCH  21  23
HETATM   23  O   UNL     1       7.383  23.108  52.480  1.00  0.00    -0.391 OA
HETATM   24  H   UNL     1       6.528  23.002  52.929  1.00  0.00     0.210 HD
ENDBRANCH  21  23
ENDBRANCH  17  21
ENDBRANCH  12  15
ENDBRANCH   6  11
BRANCH   8  25
HETATM   25  C   UNL     1       4.564  32.007  56.338  1.00  0.00     0.409 C 
HETATM   26  F   UNL     1       3.273  32.215  55.997  1.00  0.00    -0.169 F 
HETATM   27  F   UNL     1       5.045  33.202  56.772  1.00  0.00    -0.169 F 
HETATM   28  F   UNL     1       5.244  31.707  55.211  1.00  0.00    -0.169 F 
ENDBRANCH   8  25
BRANCH   1  29
HETATM   29  C   UNL     1       6.724  32.453  60.395  1.00  0.00    -0.035 A 
HETATM   30  C   UNL     1       7.887  31.910  60.956  1.00  0.00     0.010 A 
HETATM   31  C   UNL     1       8.207  32.147  62.296  1.00  0.00     0.007 A 
HETATM   32  C   UNL     1       7.367  32.922  63.104  1.00  0.00    -0.062 A 
HETATM   33  C   UNL     1       7.720  33.205  64.534  1.00  0.00     0.048 C 
HETATM   34  C   UNL     1       6.212  33.476  62.546  1.00  0.00     0.007 A 
HETATM   35  C   UNL     1       5.891  33.238  61.209  1.00  0.00     0.010 A 
ENDBRANCH   1  29
TORSDOF 6
ENDMDL
MODEL 10
REMARK VINA RESULT:      -9.0      5.357     10.411
REMARK  6 active torsions:
REMARK  status: ('A' for Active; 'I' for Inactive)
REMARK    1  A    between atoms: C_5  and  C_6 
REMARK    2  A    between atoms: C_11  and  C_12 
REMARK       I    between atoms: C_12  and  N_13 
REMARK    3  A    between atoms: N_13  and  C_14 
REMARK    4  A    between atoms: C_16  and  C_17 
REMARK    5  A    between atoms: C_17  and  O_18 
REMARK    6  A    between atoms: C_25  and  C_26 
ROOT
HETATM    1  C   UNL     1       6.218  27.512  56.521  1.00  0.00     0.118 C 
HETATM    2  N   UNL     1       5.201  27.904  55.546  1.00  0.00    -0.366 N 
HETATM    3  C   UNL     1       5.216  27.480  54.267  1.00  0.00     0.123 A 
HETATM    4  N   UNL     1       6.108  26.537  53.844  1.00  0.00    -0.240 N 
HETATM    5  N   UNL     1       6.107  26.337  52.514  1.00  0.00    -0.165 NA
HETATM    6  C   UNL     1       5.063  27.089  52.090  1.00  0.00     0.148 A 
HETATM    7  C   UNL     1       4.473  27.810  53.166  1.00  0.00     0.089 A 
HETATM    8  C   UNL     1       7.054  25.890  54.730  1.00  0.00     0.221 C 
HETATM    9  C   UNL     1       7.449  26.874  55.840  1.00  0.00     0.066 C 
HETATM   10  H   UNL     1       4.526  28.597  55.869  1.00  0.00     0.161 HD
ENDROOT
BRANCH   6  11
HETATM   11  C   UNL     1       4.656  27.138  50.675  1.00  0.00     0.276 C 
HETATM   12  N   UNL     1       3.740  28.146  50.440  1.00  0.00    -0.322 N 
HETATM   13  H   UNL     1       3.468  28.649  51.281  1.00  0.00     0.169 HD
HETATM   14  O   UNL     1       5.090  26.335  49.856  1.00  0.00    -0.266 OA
BRANCH  12  15
HETATM   15  C   UNL     1       3.148  28.518  49.224  1.00  0.00     0.035 A 
HETATM   16  C   UNL     1       2.067  27.842  48.650  1.00  0.00     0.039 A 
HETATM   17  C   UNL     1       1.531  28.242  47.413  1.00  0.00    -0.028 A 
HETATM   18  C   UNL     1       2.083  29.359  46.770  1.00  0.00     0.010 A 
HETATM   19  C   UNL     1       3.159  30.040  47.335  1.00  0.00     0.003 A 
HETATM   20  C   UNL     1       3.695  29.616  48.552  1.00  0.00     0.029 A 
BRANCH  17  21
HETATM   21  C   UNL     1       0.373  27.468  46.822  1.00  0.00     0.147 C 
HETATM   22  C   UNL     1      -0.628  28.386  46.133  1.00  0.00     0.044 C 
BRANCH  21  23
HETATM   23  O   UNL     1       0.842  26.503  45.880  1.00  0.00    -0.391 OA
HETATM   24  H   UNL     1       1.402  25.880  46.372  1.00  0.00     0.210 HD
ENDBRANCH  21  23
ENDBRANCH  17  21
ENDBRANCH  12  15
ENDBRANCH   6  11
BRANCH   8  25
HETATM   25  C   UNL     1       6.464  24.607  55.266  1.00  0.00     0.409 C 
HETATM   26  F   UNL     1       6.617  23.572  54.412  1.00  0.00    -0.169 F 
HETATM   27  F   UNL     1       7.102  24.255  56.415  1.00  0.00    -0.169 F 
HETATM   28  F   UNL     1       5.153  24.700  55.571  1.00  0.00    -0.169 F 
ENDBRANCH   8  25
BRANCH   1  29
HETATM   29  C   UNL     1       6.620  28.738  57.326  1.00  0.00    -0.035 A 
HETATM   30  C   UNL     1       5.783  29.859  57.386  1.00  0.00     0.010 A 
HETATM   31  C   UNL     1       6.154  30.985  58.127  1.00  0.00     0.007 A 
HETATM   32  C   UNL     1       7.373  31.016  58.814  1.00  0.00    -0.062 A 
HETATM   33  C   UNL     1       7.764  32.208  59.636  1.00  0.00     0.048 C 
HETATM   34  C   UNL     1       8.207  29.895  58.768  1.00  0.00     0.007 A 
HETATM   35  C   UNL     1       7.838  28.773  58.026  1.00  0.00     0.010 A 
ENDBRANCH   1  29
TORSDOF 6
ENDMDL
