MODEL 1
REMARK VINA RESULT:     -10.9      0.000      0.000
REMARK  8 active torsions:
REMARK  status: ('A' for Active; 'I' for Inactive)
REMARK    1  A    between atoms: C_2  and  O_3 
REMARK    2  A    between atoms: O_3  and  C_4 
REMARK    3  A    between atoms: C_4  and  C_5 
REMARK    4  A    between atoms: C_10  and  N_11 
REMARK       I    between atoms: N_11  and  C_12 
REMARK    5  A    between atoms: C_12  and  C_13 
REMARK    6  A    between atoms: C_13  and  N_14 
REMARK    7  A    between atoms: N_18  and  C_19 
REMARK    8  A    between atoms: C_21  and  C_22 
ROOT
HETATM    1  N   UNL     1       6.438  30.623  58.595  1.00  0.00    -0.323 N 
HETATM    2  C   UNL     1       5.689  30.995  57.499  1.00  0.00     0.248 C 
HETATM    3  O   UNL     1       5.475  32.153  57.150  1.00  0.00    -0.271 OA
HETATM    4  H   UNL     1       6.953  29.743  58.572  1.00  0.00     0.169 HD
ENDROOT
BRANCH   1   5
HETATM    5  C   UNL     1       6.874  31.521  59.570  1.00  0.00     0.080 A 
HETATM    6  C   UNL     1       8.204  31.895  59.678  1.00  0.00     0.137 A 
HETATM    7  N   UNL     1       8.291  32.798  60.710  1.00  0.00    -0.349 N 
HETATM    8  H   UNL     1       9.147  33.256  60.996  1.00  0.00     0.166 HD
HETATM    9  C   UNL     1       7.062  32.998  61.295  1.00  0.00     0.048 A 
HETATM   10  C   UNL     1       6.143  32.189  60.610  1.00  0.00     0.023 A 
HETATM   11  C   UNL     1       6.715  33.828  62.374  1.00  0.00     0.070 A 
HETATM   12  C   UNL     1       4.802  32.169  61.064  1.00  0.00     0.055 A 
HETATM   13  C   UNL     1       4.467  32.993  62.122  1.00  0.00     0.106 A 
HETATM   14  C   UNL     1       5.386  33.794  62.747  1.00  0.00     0.107 A 
HETATM   15  O   UNL     1       3.222  33.106  62.660  1.00  0.00    -0.323 OA
HETATM   16  O   UNL     1       4.835  34.520  63.758  1.00  0.00    -0.323 OA
HETATM   17  C   UNL     1       3.456  34.103  63.676  1.00  0.00     0.352 A 
BRANCH   6  18
HETATM   18  C   UNL     1       9.315  31.494  58.849  1.00  0.00     0.312 C 
HETATM   19  O   UNL     1      10.195  32.258  58.471  1.00  0.00    -0.258 OA
BRANCH  18  20
HETATM   20  O   UNL     1       9.243  30.161  58.595  1.00  0.00    -0.317 OA
BRANCH  20  21
HETATM   21  C   UNL     1       9.439  29.763  57.230  1.00  0.00     0.175 C 
HETATM   22  C   UNL     1      10.907  29.492  56.973  1.00  0.00     0.034 C 
ENDBRANCH  20  21
ENDBRANCH  18  20
ENDBRANCH   6  18
ENDBRANCH   1   5
BRANCH   2  23
HETATM   23  C   UNL     1       5.138  29.814  56.686  1.00  0.00     0.337 C 
BRANCH  23  24
HETATM   24  N   UNL     1       6.127  28.664  56.426  1.00  0.00    -0.060 N 
HETATM   25  H   UNL     1       6.992  28.886  56.929  1.00  0.00     0.280 HD
HETATM   26  C   UNL     1       5.634  27.319  56.982  1.00  0.00     0.255 C 
HETATM   27  C   UNL     1       6.650  26.191  56.698  1.00  0.00     0.150 C 
HETATM   28  N   UNL     1       6.963  26.152  55.258  1.00  0.00    -0.378 N 
HETATM   29  C   UNL     1       7.507  27.402  54.708  1.00  0.00     0.150 C 
HETATM   30  C   UNL     1       6.501  28.549  54.943  1.00  0.00     0.255 C 
BRANCH  28  31
HETATM   31  C   UNL     1       7.364  24.929  54.727  1.00  0.00     0.030 A 
HETATM   32  C   UNL     1       7.635  23.852  55.589  1.00  0.00     0.045 A 
HETATM   33  C   UNL     1       7.995  22.578  55.113  1.00  0.00     0.050 A 
HETATM   34  C   UNL     1       8.074  22.373  53.732  1.00  0.00     0.016 A 
HETATM   35  C   UNL     1       7.807  23.420  52.857  1.00  0.00     0.003 A 
HETATM   36  C   UNL     1       7.454  24.681  53.352  1.00  0.00     0.029 A 
BRANCH  33  37
HETATM   37  C   UNL     1       8.239  21.439  56.071  1.00  0.00     0.417 C 
HETATM   38  F   UNL     1       8.308  21.842  57.372  1.00  0.00    -0.166 F 
HETATM   39  F   UNL     1       7.255  20.500  56.021  1.00  0.00    -0.166 F 
HETATM   40  F   UNL     1       9.404  20.781  55.824  1.00  0.00    -0.166 F 
ENDBRANCH  33  37
ENDBRANCH  28  31
ENDBRANCH  23  24
ENDBRANCH   2  23
TORSDOF 8
ENDMDL
MODEL 2
REMARK VINA RESULT:     -10.7      1.934      2.600
REMARK  8 active torsions:
REMARK  status: ('A' for Active; 'I' for Inactive)
REMARK    1  A    between atoms: C_2  and  O_3 
REMARK    2  A    between atoms: O_3  and  C_4 
REMARK    3  A    between atoms: C_4  and  C_5 
REMARK    4  A    between atoms: C_10  and  N_11 
REMARK       I    between atoms: N_11  and  C_12 
REMARK    5  A    between atoms: C_12  and  C_13 
REMARK    6  A    between atoms: C_13  and  N_14 
REMARK    7  A    between atoms: N_18  and  C_19 
REMARK    8  A    between atoms: C_21  and  C_22 
ROOT
HETATM    1  N   UNL     1       5.515  30.156  56.086  1.00  0.00    -0.323 N 
HETATM    2  C   UNL     1       4.363  29.439  55.836  1.00  0.00     0.248 C 
HETATM    3  O   UNL     1       3.394  29.376  56.587  1.00  0.00    -0.271 OA
HETATM    4  H   UNL     1       6.039  30.547  55.304  1.00  0.00     0.169 HD
ENDROOT
BRANCH   1   5
HETATM    5  C   UNL     1       5.810  30.732  57.322  1.00  0.00     0.080 A 
HETATM    6  C   UNL     1       6.898  30.324  58.078  1.00  0.00     0.137 A 
HETATM    7  N   UNL     1       6.918  31.099  59.213  1.00  0.00    -0.349 N 
HETATM    8  H   UNL     1       7.624  31.032  59.936  1.00  0.00     0.166 HD
HETATM    9  C   UNL     1       5.858  31.975  59.231  1.00  0.00     0.048 A 
HETATM   10  C   UNL     1       5.123  31.757  58.057  1.00  0.00     0.023 A 
HETATM   11  C   UNL     1       5.509  32.929  60.202  1.00  0.00     0.070 A 
HETATM   12  C   UNL     1       3.935  32.503  57.863  1.00  0.00     0.055 A 
HETATM   13  C   UNL     1       3.601  33.443  58.820  1.00  0.00     0.106 A 
HETATM   14  C   UNL     1       4.361  33.651  59.940  1.00  0.00     0.107 A 
HETATM   15  O   UNL     1       2.508  34.253  58.771  1.00  0.00    -0.323 OA
HETATM   16  O   UNL     1       3.846  34.624  60.740  1.00  0.00    -0.323 OA
HETATM   17  C   UNL     1       2.690  35.024  59.976  1.00  0.00     0.352 A 
BRANCH   6  18
HETATM   18  C   UNL     1       7.889  29.328  57.752  1.00  0.00     0.312 C 
HETATM   19  O   UNL     1       8.017  28.269  58.355  1.00  0.00    -0.258 OA
BRANCH  18  20
HETATM   20  O   UNL     1       8.612  29.733  56.675  1.00  0.00    -0.317 OA
BRANCH  20  21
HETATM   21  C   UNL     1       9.970  29.270  56.611  1.00  0.00     0.175 C 
HETATM   22  C   UNL     1      10.885  30.243  57.326  1.00  0.00     0.034 C 
ENDBRANCH  20  21
ENDBRANCH  18  20
ENDBRANCH   6  18
ENDBRANCH   1   5
BRANCH   2  23
HETATM   23  C   UNL     1       4.358  28.715  54.481  1.00  0.00     0.337 C 
BRANCH  23  24
HETATM   24  N   UNL     1       4.612  27.198  54.536  1.00  0.00    -0.060 N 
HETATM   25  H   UNL     1       3.733  26.751  54.815  1.00  0.00     0.280 HD
HETATM   26  C   UNL     1       4.984  26.609  53.166  1.00  0.00     0.255 C 
HETATM   27  C   UNL     1       5.236  25.088  53.262  1.00  0.00     0.150 C 
HETATM   28  N   UNL     1       6.234  24.812  54.311  1.00  0.00    -0.378 N 
HETATM   29  C   UNL     1       5.876  25.299  55.651  1.00  0.00     0.150 C 
HETATM   30  C   UNL     1       5.649  26.825  55.602  1.00  0.00     0.255 C 
BRANCH  28  31
HETATM   31  C   UNL     1       6.997  23.656  54.174  1.00  0.00     0.030 A 
HETATM   32  C   UNL     1       7.321  22.898  55.313  1.00  0.00     0.045 A 
HETATM   33  C   UNL     1       8.046  21.694  55.235  1.00  0.00     0.050 A 
HETATM   34  C   UNL     1       8.446  21.229  53.980  1.00  0.00     0.016 A 
HETATM   35  C   UNL     1       8.136  21.957  52.836  1.00  0.00     0.003 A 
HETATM   36  C   UNL     1       7.417  23.154  52.936  1.00  0.00     0.029 A 
BRANCH  33  37
HETATM   37  C   UNL     1       8.338  20.891  56.479  1.00  0.00     0.417 C 
HETATM   38  F   UNL     1       8.377  21.653  57.608  1.00  0.00    -0.166 F 
HETATM   39  F   UNL     1       7.403  19.930  56.707  1.00  0.00    -0.166 F 
HETATM   40  F   UNL     1       9.536  20.249  56.423  1.00  0.00    -0.166 F 
ENDBRANCH  33  37
ENDBRANCH  28  31
ENDBRANCH  23  24
ENDBRANCH   2  23
TORSDOF 8
ENDMDL
MODEL 3
REMARK VINA RESULT:     -10.4      1.713      3.202
REMARK  8 active torsions:
REMARK  status: ('A' for Active; 'I' for Inactive)
REMARK    1  A    between atoms: C_2  and  O_3 
REMARK    2  A    between atoms: O_3  and  C_4 
REMARK    3  A    between atoms: C_4  and  C_5 
REMARK    4  A    between atoms: C_10  and  N_11 
REMARK       I    between atoms: N_11  and  C_12 
REMARK    5  A    between atoms: C_12  and  C_13 
REMARK    6  A    between atoms: C_13  and  N_14 
REMARK    7  A    between atoms: N_18  and  C_19 
REMARK    8  A    between atoms: C_21  and  C_22 
ROOT
HETATM    1  N   UNL     1       7.392  31.012  59.457  1.00  0.00    -0.323 N 
HETATM    2  C   UNL     1       8.642  31.226  58.915  1.00  0.00     0.248 C 
HETATM    3  O   UNL     1       9.284  32.268  59.009  1.00  0.00    -0.271 OA
HETATM    4  H   UNL     1       7.130  30.072  59.751  1.00  0.00     0.169 HD
ENDROOT
BRANCH   1   5
HETATM    5  C   UNL     1       6.607  32.027  60.005  1.00  0.00     0.080 A 
HETATM    6  C   UNL     1       5.680  32.726  59.247  1.00  0.00     0.137 A 
HETATM    7  N   UNL     1       5.067  33.627  60.084  1.00  0.00    -0.349 N 
HETATM    8  H   UNL     1       4.326  34.257  59.799  1.00  0.00     0.166 HD
HETATM    9  C   UNL     1       5.589  33.557  61.354  1.00  0.00     0.048 A 
HETATM   10  C   UNL     1       6.583  32.566  61.336  1.00  0.00     0.023 A 
HETATM   11  C   UNL     1       5.253  34.300  62.497  1.00  0.00     0.070 A 
HETATM   12  C   UNL     1       7.321  32.338  62.523  1.00  0.00     0.055 A 
HETATM   13  C   UNL     1       6.980  33.069  63.645  1.00  0.00     0.106 A 
HETATM   14  C   UNL     1       5.982  34.008  63.633  1.00  0.00     0.107 A 
HETATM   15  O   UNL     1       7.575  32.954  64.863  1.00  0.00    -0.323 OA
HETATM   16  O   UNL     1       5.817  34.602  64.847  1.00  0.00    -0.323 OA
HETATM   17  C   UNL     1       6.808  33.905  65.630  1.00  0.00     0.352 A 
BRANCH   6  18
HETATM   18  C   UNL     1       5.338  32.537  57.858  1.00  0.00     0.312 C 
HETATM   19  O   UNL     1       5.357  33.434  57.023  1.00  0.00    -0.258 OA
BRANCH  18  20
HETATM   20  O   UNL     1       5.036  31.232  57.631  1.00  0.00    -0.317 OA
BRANCH  20  21
HETATM   21  C   UNL     1       5.142  30.783  56.272  1.00  0.00     0.175 C 
HETATM   22  C   UNL     1       4.236  29.590  56.046  1.00  0.00     0.034 C 
ENDBRANCH  20  21
ENDBRANCH  18  20
ENDBRANCH   6  18
ENDBRANCH   1   5
BRANCH   2  23
HETATM   23  C   UNL     1       9.220  30.010  58.174  1.00  0.00     0.337 C 
BRANCH  23  24
HETATM   24  N   UNL     1       8.248  29.283  57.227  1.00  0.00    -0.060 N 
HETATM   25  H   UNL     1       7.386  29.836  57.190  1.00  0.00     0.280 HD
HETATM   26  C   UNL     1       8.775  29.202  55.785  1.00  0.00     0.255 C 
HETATM   27  C   UNL     1       7.777  28.463  54.867  1.00  0.00     0.150 C 
HETATM   28  N   UNL     1       7.444  27.149  55.446  1.00  0.00    -0.378 N 
HETATM   29  C   UNL     1       6.870  27.194  56.798  1.00  0.00     0.150 C 
HETATM   30  C   UNL     1       7.856  27.898  57.755  1.00  0.00     0.255 C 
BRANCH  28  31
HETATM   31  C   UNL     1       7.059  26.143  54.563  1.00  0.00     0.030 A 
HETATM   32  C   UNL     1       7.640  24.867  54.667  1.00  0.00     0.045 A 
HETATM   33  C   UNL     1       7.257  23.796  53.838  1.00  0.00     0.050 A 
HETATM   34  C   UNL     1       6.255  24.006  52.886  1.00  0.00     0.016 A 
HETATM   35  C   UNL     1       5.662  25.258  52.765  1.00  0.00     0.003 A 
HETATM   36  C   UNL     1       6.060  26.311  53.597  1.00  0.00     0.029 A 
BRANCH  33  37
HETATM   37  C   UNL     1       7.878  22.432  54.009  1.00  0.00     0.417 C 
HETATM   38  F   UNL     1       7.629  21.598  52.959  1.00  0.00    -0.166 F 
HETATM   39  F   UNL     1       9.232  22.490  54.129  1.00  0.00    -0.166 F 
HETATM   40  F   UNL     1       7.426  21.781  55.115  1.00  0.00    -0.166 F 
ENDBRANCH  33  37
ENDBRANCH  28  31
ENDBRANCH  23  24
ENDBRANCH   2  23
TORSDOF 8
ENDMDL
MODEL 4
REMARK VINA RESULT:     -10.0      1.641      2.299
REMARK  8 active torsions:
REMARK  status: ('A' for Active; 'I' for Inactive)
REMARK    1  A    between atoms: C_2  and  O_3 
REMARK    2  A    between atoms: O_3  and  C_4 
REMARK    3  A    between atoms: C_4  and  C_5 
REMARK    4  A    between atoms: C_10  and  N_11 
REMARK       I    between atoms: N_11  and  C_12 
REMARK    5  A    between atoms: C_12  and  C_13 
REMARK    6  A    between atoms: C_13  and  N_14 
REMARK    7  A    between atoms: N_18  and  C_19 
REMARK    8  A    between atoms: C_21  and  C_22 
ROOT
HETATM    1  N   UNL     1       6.064  31.114  57.273  1.00  0.00    -0.323 N 
HETATM    2  C   UNL     1       4.842  30.572  56.931  1.00  0.00     0.248 C 
HETATM    3  O   UNL     1       3.879  30.469  57.685  1.00  0.00    -0.271 OA
HETATM    4  H   UNL     1       6.617  31.587  56.559  1.00  0.00     0.169 HD
ENDROOT
BRANCH   1   5
HETATM    5  C   UNL     1       6.427  31.424  58.584  1.00  0.00     0.080 A 
HETATM    6  C   UNL     1       7.425  30.729  59.250  1.00  0.00     0.137 A 
HETATM    7  N   UNL     1       7.551  31.294  60.497  1.00  0.00    -0.349 N 
HETATM    8  H   UNL     1       8.225  30.997  61.191  1.00  0.00     0.166 HD
HETATM    9  C   UNL     1       6.645  32.313  60.671  1.00  0.00     0.048 A 
HETATM   10  C   UNL     1       5.902  32.411  59.484  1.00  0.00     0.023 A 
HETATM   11  C   UNL     1       6.437  33.138  61.789  1.00  0.00     0.070 A 
HETATM   12  C   UNL     1       4.852  33.360  59.429  1.00  0.00     0.055 A 
HETATM   13  C   UNL     1       4.658  34.171  60.531  1.00  0.00     0.106 A 
HETATM   14  C   UNL     1       5.423  34.068  61.662  1.00  0.00     0.107 A 
HETATM   15  O   UNL     1       3.710  35.143  60.629  1.00  0.00    -0.323 OA
HETATM   16  O   UNL     1       5.059  34.967  62.617  1.00  0.00    -0.323 OA
HETATM   17  C   UNL     1       3.993  35.666  61.942  1.00  0.00     0.352 A 
BRANCH   6  18
HETATM   18  C   UNL     1       8.249  29.654  58.754  1.00  0.00     0.312 C 
HETATM   19  O   UNL     1       7.804  28.630  58.248  1.00  0.00    -0.258 OA
BRANCH  18  20
HETATM   20  O   UNL     1       9.561  29.974  58.903  1.00  0.00    -0.317 OA
BRANCH  20  21
HETATM   21  C   UNL     1      10.173  30.675  57.809  1.00  0.00     0.175 C 
HETATM   22  C   UNL     1      10.919  29.701  56.920  1.00  0.00     0.034 C 
ENDBRANCH  20  21
ENDBRANCH  18  20
ENDBRANCH   6  18
ENDBRANCH   1   5
BRANCH   2  23
HETATM   23  C   UNL     1       4.750  30.109  55.469  1.00  0.00     0.337 C 
BRANCH  23  24
HETATM   24  N   UNL     1       5.029  28.615  55.224  1.00  0.00    -0.060 N 
HETATM   25  H   UNL     1       4.324  28.277  54.561  1.00  0.00     0.280 HD
HETATM   26  C   UNL     1       6.397  28.367  54.568  1.00  0.00     0.255 C 
HETATM   27  C   UNL     1       6.643  26.859  54.343  1.00  0.00     0.150 C 
HETATM   28  N   UNL     1       6.457  26.128  55.609  1.00  0.00    -0.378 N 
HETATM   29  C   UNL     1       5.133  26.285  56.228  1.00  0.00     0.150 C 
HETATM   30  C   UNL     1       4.864  27.781  56.500  1.00  0.00     0.255 C 
BRANCH  28  31
HETATM   31  C   UNL     1       7.156  24.934  55.763  1.00  0.00     0.030 A 
HETATM   32  C   UNL     1       7.297  24.065  54.668  1.00  0.00     0.045 A 
HETATM   33  C   UNL     1       8.034  22.868  54.745  1.00  0.00     0.050 A 
HETATM   34  C   UNL     1       8.659  22.539  55.951  1.00  0.00     0.016 A 
HETATM   35  C   UNL     1       8.539  23.384  57.050  1.00  0.00     0.003 A 
HETATM   36  C   UNL     1       7.798  24.567  56.953  1.00  0.00     0.029 A 
BRANCH  33  37
HETATM   37  C   UNL     1       8.193  21.983  53.534  1.00  0.00     0.417 C 
HETATM   38  F   UNL     1       7.846  22.604  52.371  1.00  0.00    -0.166 F 
HETATM   39  F   UNL     1       9.475  21.560  53.366  1.00  0.00    -0.166 F 
HETATM   40  F   UNL     1       7.429  20.859  53.598  1.00  0.00    -0.166 F 
ENDBRANCH  33  37
ENDBRANCH  28  31
ENDBRANCH  23  24
ENDBRANCH   2  23
TORSDOF 8
ENDMDL
MODEL 5
REMARK VINA RESULT:     -10.0      2.299      4.006
REMARK  8 active torsions:
REMARK  status: ('A' for Active; 'I' for Inactive)
REMARK    1  A    between atoms: C_2  and  O_3 
REMARK    2  A    between atoms: O_3  and  C_4 
REMARK    3  A    between atoms: C_4  and  C_5 
REMARK    4  A    between atoms: C_10  and  N_11 
REMARK       I    between atoms: N_11  and  C_12 
REMARK    5  A    between atoms: C_12  and  C_13 
REMARK    6  A    between atoms: C_13  and  N_14 
REMARK    7  A    between atoms: N_18  and  C_19 
REMARK    8  A    between atoms: C_21  and  C_22 
ROOT
HETATM    1  N   UNL     1       5.431  30.954  56.132  1.00  0.00    -0.323 N 
HETATM    2  C   UNL     1       4.612  29.856  55.970  1.00  0.00     0.248 C 
HETATM    3  O   UNL     1       3.740  29.503  56.759  1.00  0.00    -0.271 OA
HETATM    4  H   UNL     1       5.770  31.450  55.308  1.00  0.00     0.169 HD
ENDROOT
BRANCH   1   5
HETATM    5  C   UNL     1       5.514  31.683  57.319  1.00  0.00     0.080 A 
HETATM    6  C   UNL     1       4.700  32.778  57.563  1.00  0.00     0.137 A 
HETATM    7  N   UNL     1       5.015  33.247  58.816  1.00  0.00    -0.349 N 
HETATM    8  H   UNL     1       4.556  34.031  59.263  1.00  0.00     0.166 HD
HETATM    9  C   UNL     1       6.030  32.510  59.379  1.00  0.00     0.048 A 
HETATM   10  C   UNL     1       6.385  31.520  58.449  1.00  0.00     0.023 A 
HETATM   11  C   UNL     1       6.649  32.657  60.632  1.00  0.00     0.070 A 
HETATM   12  C   UNL     1       7.460  30.656  58.770  1.00  0.00     0.055 A 
HETATM   13  C   UNL     1       8.059  30.804  60.007  1.00  0.00     0.106 A 
HETATM   14  C   UNL     1       7.665  31.763  60.902  1.00  0.00     0.107 A 
HETATM   15  O   UNL     1       9.086  30.042  60.473  1.00  0.00    -0.323 OA
HETATM   16  O   UNL     1       8.391  31.724  62.053  1.00  0.00    -0.323 OA
HETATM   17  C   UNL     1       9.268  30.609  61.787  1.00  0.00     0.352 A 
BRANCH   6  18
HETATM   18  C   UNL     1       3.660  33.322  56.725  1.00  0.00     0.312 C 
HETATM   19  O   UNL     1       2.658  32.700  56.390  1.00  0.00    -0.258 OA
BRANCH  18  20
HETATM   20  O   UNL     1       3.950  34.612  56.409  1.00  0.00    -0.317 OA
BRANCH  20  21
HETATM   21  C   UNL     1       5.043  34.812  55.500  1.00  0.00     0.175 C 
HETATM   22  C   UNL     1       5.480  36.263  55.525  1.00  0.00     0.034 C 
ENDBRANCH  20  21
ENDBRANCH  18  20
ENDBRANCH   6  18
ENDBRANCH   1   5
BRANCH   2  23
HETATM   23  C   UNL     1       4.851  29.084  54.664  1.00  0.00     0.337 C 
BRANCH  23  24
HETATM   24  N   UNL     1       5.046  27.565  54.814  1.00  0.00    -0.060 N 
HETATM   25  H   UNL     1       4.250  27.206  55.351  1.00  0.00     0.280 HD
HETATM   26  C   UNL     1       5.028  26.827  53.465  1.00  0.00     0.255 C 
HETATM   27  C   UNL     1       5.232  25.309  53.657  1.00  0.00     0.150 C 
HETATM   28  N   UNL     1       6.453  25.063  54.444  1.00  0.00    -0.378 N 
HETATM   29  C   UNL     1       6.472  25.695  55.771  1.00  0.00     0.150 C 
HETATM   30  C   UNL     1       6.305  27.222  55.619  1.00  0.00     0.255 C 
BRANCH  28  31
HETATM   31  C   UNL     1       7.106  23.850  54.245  1.00  0.00     0.030 A 
HETATM   32  C   UNL     1       7.387  23.022  55.345  1.00  0.00     0.045 A 
HETATM   33  C   UNL     1       7.999  21.763  55.204  1.00  0.00     0.050 A 
HETATM   34  C   UNL     1       8.326  21.313  53.922  1.00  0.00     0.016 A 
HETATM   35  C   UNL     1       8.055  22.111  52.815  1.00  0.00     0.003 A 
HETATM   36  C   UNL     1       7.450  23.362  52.978  1.00  0.00     0.029 A 
BRANCH  33  37
HETATM   37  C   UNL     1       8.247  20.889  56.409  1.00  0.00     0.417 C 
HETATM   38  F   UNL     1       9.400  20.167  56.314  1.00  0.00    -0.166 F 
HETATM   39  F   UNL     1       8.348  21.609  57.559  1.00  0.00    -0.166 F 
HETATM   40  F   UNL     1       7.256  19.980  56.616  1.00  0.00    -0.166 F 
ENDBRANCH  33  37
ENDBRANCH  28  31
ENDBRANCH  23  24
ENDBRANCH   2  23
TORSDOF 8
ENDMDL
MODEL 6
REMARK VINA RESULT:     -10.0      5.311     10.889
REMARK  8 active torsions:
REMARK  status: ('A' for Active; 'I' for Inactive)
REMARK    1  A    between atoms: C_2  and  O_3 
REMARK    2  A    between atoms: O_3  and  C_4 
REMARK    3  A    between atoms: C_4  and  C_5 
REMARK    4  A    between atoms: C_10  and  N_11 
REMARK       I    between atoms: N_11  and  C_12 
REMARK    5  A    between atoms: C_12  and  C_13 
REMARK    6  A    between atoms: C_13  and  N_14 
REMARK    7  A    between atoms: N_18  and  C_19 
REMARK    8  A    between atoms: C_21  and  C_22 
ROOT
HETATM    1  N   UNL     1       5.595  26.621  54.462  1.00  0.00    -0.323 N 
HETATM    2  C   UNL     1       6.301  27.730  54.879  1.00  0.00     0.248 C 
HETATM    3  O   UNL     1       7.440  28.018  54.521  1.00  0.00    -0.271 OA
HETATM    4  H   UNL     1       4.578  26.672  54.399  1.00  0.00     0.169 HD
ENDROOT
BRANCH   1   5
HETATM    5  C   UNL     1       6.165  25.572  53.740  1.00  0.00     0.080 A 
HETATM    6  C   UNL     1       6.117  25.525  52.356  1.00  0.00     0.137 A 
HETATM    7  N   UNL     1       6.785  24.390  51.964  1.00  0.00    -0.349 N 
HETATM    8  H   UNL     1       6.925  24.115  50.999  1.00  0.00     0.166 HD
HETATM    9  C   UNL     1       7.238  23.683  53.053  1.00  0.00     0.048 A 
HETATM   10  C   UNL     1       6.846  24.394  54.197  1.00  0.00     0.023 A 
HETATM   11  C   UNL     1       7.956  22.476  53.095  1.00  0.00     0.070 A 
HETATM   12  C   UNL     1       7.146  23.838  55.465  1.00  0.00     0.055 A 
HETATM   13  C   UNL     1       7.857  22.653  55.497  1.00  0.00     0.106 A 
HETATM   14  C   UNL     1       8.250  22.002  54.358  1.00  0.00     0.107 A 
HETATM   15  O   UNL     1       8.241  22.003  56.630  1.00  0.00    -0.323 OA
HETATM   16  O   UNL     1       8.939  20.859  54.627  1.00  0.00    -0.323 OA
HETATM   17  C   UNL     1       8.957  20.883  56.069  1.00  0.00     0.352 A 
BRANCH   6  18
HETATM   18  C   UNL     1       5.545  26.490  51.449  1.00  0.00     0.312 C 
HETATM   19  O   UNL     1       5.767  27.694  51.504  1.00  0.00    -0.258 OA
BRANCH  18  20
HETATM   20  O   UNL     1       4.772  25.856  50.528  1.00  0.00    -0.317 OA
BRANCH  20  21
HETATM   21  C   UNL     1       4.597  26.530  49.273  1.00  0.00     0.175 C 
HETATM   22  C   UNL     1       3.555  25.812  48.439  1.00  0.00     0.034 C 
ENDBRANCH  20  21
ENDBRANCH  18  20
ENDBRANCH   6  18
ENDBRANCH   1   5
BRANCH   2  23
HETATM   23  C   UNL     1       5.526  28.641  55.843  1.00  0.00     0.337 C 
BRANCH  23  24
HETATM   24  N   UNL     1       6.385  29.576  56.713  1.00  0.00    -0.060 N 
HETATM   25  H   UNL     1       7.054  30.042  56.091  1.00  0.00     0.280 HD
HETATM   26  C   UNL     1       5.561  30.691  57.378  1.00  0.00     0.255 C 
HETATM   27  C   UNL     1       6.456  31.604  58.245  1.00  0.00     0.150 C 
HETATM   28  N   UNL     1       7.223  30.788  59.203  1.00  0.00    -0.378 N 
HETATM   29  C   UNL     1       8.078  29.759  58.596  1.00  0.00     0.150 C 
HETATM   30  C   UNL     1       7.213  28.803  57.747  1.00  0.00     0.255 C 
BRANCH  28  31
HETATM   31  C   UNL     1       7.613  31.401  60.391  1.00  0.00     0.030 A 
HETATM   32  C   UNL     1       6.704  32.222  61.080  1.00  0.00     0.045 A 
HETATM   33  C   UNL     1       7.020  32.829  62.310  1.00  0.00     0.050 A 
HETATM   34  C   UNL     1       8.279  32.596  62.872  1.00  0.00     0.016 A 
HETATM   35  C   UNL     1       9.196  31.785  62.212  1.00  0.00     0.003 A 
HETATM   36  C   UNL     1       8.863  31.194  60.988  1.00  0.00     0.029 A 
BRANCH  33  37
HETATM   37  C   UNL     1       6.001  33.671  63.037  1.00  0.00     0.417 C 
HETATM   38  F   UNL     1       6.567  34.604  63.854  1.00  0.00    -0.166 F 
HETATM   39  F   UNL     1       5.194  34.358  62.184  1.00  0.00    -0.166 F 
HETATM   40  F   UNL     1       5.176  32.934  63.830  1.00  0.00    -0.166 F 
ENDBRANCH  33  37
ENDBRANCH  28  31
ENDBRANCH  23  24
ENDBRANCH   2  23
TORSDOF 8
ENDMDL
MODEL 7
REMARK VINA RESULT:     -10.0      5.078     10.680
REMARK  8 active torsions:
REMARK  status: ('A' for Active; 'I' for Inactive)
REMARK    1  A    between atoms: C_2  and  O_3 
REMARK    2  A    between atoms: O_3  and  C_4 
REMARK    3  A    between atoms: C_4  and  C_5 
REMARK    4  A    between atoms: C_10  and  N_11 
REMARK       I    between atoms: N_11  and  C_12 
REMARK    5  A    between atoms: C_12  and  C_13 
REMARK    6  A    between atoms: C_13  and  N_14 
REMARK    7  A    between atoms: N_18  and  C_19 
REMARK    8  A    between atoms: C_21  and  C_22 
ROOT
HETATM    1  N   UNL     1       7.529  28.850  57.899  1.00  0.00    -0.323 N 
HETATM    2  C   UNL     1       8.672  29.553  57.580  1.00  0.00     0.248 C 
HETATM    3  O   UNL     1       9.163  29.629  56.457  1.00  0.00    -0.271 OA
HETATM    4  H   UNL     1       6.936  29.181  58.661  1.00  0.00     0.169 HD
ENDROOT
BRANCH   1   5
HETATM    5  C   UNL     1       6.901  27.963  57.025  1.00  0.00     0.080 A 
HETATM    6  C   UNL     1       5.842  28.354  56.221  1.00  0.00     0.137 A 
HETATM    7  N   UNL     1       5.476  27.262  55.471  1.00  0.00    -0.349 N 
HETATM    8  H   UNL     1       4.739  27.268  54.777  1.00  0.00     0.166 HD
HETATM    9  C   UNL     1       6.244  26.166  55.787  1.00  0.00     0.048 A 
HETATM   10  C   UNL     1       7.146  26.569  56.783  1.00  0.00     0.023 A 
HETATM   11  C   UNL     1       6.194  24.863  55.264  1.00  0.00     0.070 A 
HETATM   12  C   UNL     1       8.020  25.596  57.327  1.00  0.00     0.055 A 
HETATM   13  C   UNL     1       7.968  24.318  56.803  1.00  0.00     0.106 A 
HETATM   14  C   UNL     1       7.094  23.968  55.808  1.00  0.00     0.107 A 
HETATM   15  O   UNL     1       8.753  23.279  57.200  1.00  0.00    -0.323 OA
HETATM   16  O   UNL     1       7.220  22.662  55.445  1.00  0.00    -0.323 OA
HETATM   17  C   UNL     1       8.296  22.240  56.309  1.00  0.00     0.352 A 
BRANCH   6  18
HETATM   18  C   UNL     1       5.244  29.661  56.105  1.00  0.00     0.312 C 
HETATM   19  O   UNL     1       5.881  30.708  56.126  1.00  0.00    -0.258 OA
BRANCH  18  20
HETATM   20  O   UNL     1       3.900  29.540  55.938  1.00  0.00    -0.317 OA
BRANCH  20  21
HETATM   21  C   UNL     1       3.086  30.510  56.614  1.00  0.00     0.175 C 
HETATM   22  C   UNL     1       2.557  31.526  55.623  1.00  0.00     0.034 C 
ENDBRANCH  20  21
ENDBRANCH  18  20
ENDBRANCH   6  18
ENDBRANCH   1   5
BRANCH   2  23
HETATM   23  C   UNL     1       9.305  30.293  58.767  1.00  0.00     0.337 C 
BRANCH  23  24
HETATM   24  N   UNL     1       8.362  30.592  59.946  1.00  0.00    -0.060 N 
HETATM   25  H   UNL     1       7.699  29.814  60.012  1.00  0.00     0.280 HD
HETATM   26  C   UNL     1       9.097  30.651  61.295  1.00  0.00     0.255 C 
HETATM   27  C   UNL     1       8.120  30.957  62.451  1.00  0.00     0.150 C 
HETATM   28  N   UNL     1       7.353  32.178  62.146  1.00  0.00    -0.378 N 
HETATM   29  C   UNL     1       6.579  32.129  60.898  1.00  0.00     0.150 C 
HETATM   30  C   UNL     1       7.529  31.858  59.712  1.00  0.00     0.255 C 
BRANCH  28  31
HETATM   31  C   UNL     1       6.880  32.918  63.227  1.00  0.00     0.030 A 
HETATM   32  C   UNL     1       5.557  33.391  63.219  1.00  0.00     0.045 A 
HETATM   33  C   UNL     1       5.004  34.101  64.301  1.00  0.00     0.050 A 
HETATM   34  C   UNL     1       5.796  34.332  65.430  1.00  0.00     0.016 A 
HETATM   35  C   UNL     1       7.108  33.871  65.465  1.00  0.00     0.003 A 
HETATM   36  C   UNL     1       7.639  33.171  64.376  1.00  0.00     0.029 A 
BRANCH  33  37
HETATM   37  C   UNL     1       3.566  34.558  64.268  1.00  0.00     0.417 C 
HETATM   38  F   UNL     1       3.422  35.828  63.793  1.00  0.00    -0.166 F 
HETATM   39  F   UNL     1       2.791  33.770  63.475  1.00  0.00    -0.166 F 
HETATM   40  F   UNL     1       2.982  34.552  65.497  1.00  0.00    -0.166 F 
ENDBRANCH  33  37
ENDBRANCH  28  31
ENDBRANCH  23  24
ENDBRANCH   2  23
TORSDOF 8
ENDMDL
MODEL 8
REMARK VINA RESULT:      -9.8      1.969      3.427
REMARK  8 active torsions:
REMARK  status: ('A' for Active; 'I' for Inactive)
REMARK    1  A    between atoms: C_2  and  O_3 
REMARK    2  A    between atoms: O_3  and  C_4 
REMARK    3  A    between atoms: C_4  and  C_5 
REMARK    4  A    between atoms: C_10  and  N_11 
REMARK       I    between atoms: N_11  and  C_12 
REMARK    5  A    between atoms: C_12  and  C_13 
REMARK    6  A    between atoms: C_13  and  N_14 
REMARK    7  A    between atoms: N_18  and  C_19 
REMARK    8  A    between atoms: C_21  and  C_22 
ROOT
HETATM    1  N   UNL     1       6.890  31.567  58.287  1.00  0.00    -0.323 N 
HETATM    2  C   UNL     1       6.464  30.321  57.876  1.00  0.00     0.248 C 
HETATM    3  O   UNL     1       5.334  29.870  58.045  1.00  0.00    -0.271 OA
HETATM    4  H   UNL     1       7.609  32.051  57.750  1.00  0.00     0.169 HD
ENDROOT
BRANCH   1   5
HETATM    5  C   UNL     1       6.151  32.392  59.135  1.00  0.00     0.080 A 
HETATM    6  C   UNL     1       5.058  33.115  58.681  1.00  0.00     0.137 A 
HETATM    7  N   UNL     1       4.546  33.797  59.759  1.00  0.00    -0.349 N 
HETATM    8  H   UNL     1       3.726  34.389  59.721  1.00  0.00     0.166 HD
HETATM    9  C   UNL     1       5.291  33.563  60.891  1.00  0.00     0.048 A 
HETATM   10  C   UNL     1       6.330  32.692  60.527  1.00  0.00     0.023 A 
HETATM   11  C   UNL     1       5.116  34.065  62.191  1.00  0.00     0.070 A 
HETATM   12  C   UNL     1       7.282  32.339  61.514  1.00  0.00     0.055 A 
HETATM   13  C   UNL     1       7.100  32.833  62.792  1.00  0.00     0.106 A 
HETATM   14  C   UNL     1       6.056  33.657  63.118  1.00  0.00     0.107 A 
HETATM   15  O   UNL     1       7.911  32.571  63.854  1.00  0.00    -0.323 OA
HETATM   16  O   UNL     1       6.072  34.018  64.430  1.00  0.00    -0.323 OA
HETATM   17  C   UNL     1       7.232  33.299  64.898  1.00  0.00     0.352 A 
BRANCH   6  18
HETATM   18  C   UNL     1       4.486  33.132  57.357  1.00  0.00     0.312 C 
HETATM   19  O   UNL     1       5.140  33.006  56.329  1.00  0.00    -0.258 OA
BRANCH  18  20
HETATM   20  O   UNL     1       3.136  33.271  57.441  1.00  0.00    -0.317 OA
BRANCH  20  21
HETATM   21  C   UNL     1       2.559  34.337  56.670  1.00  0.00     0.175 C 
HETATM   22  C   UNL     1       2.089  35.447  57.588  1.00  0.00     0.034 C 
ENDBRANCH  20  21
ENDBRANCH  18  20
ENDBRANCH   6  18
ENDBRANCH   1   5
BRANCH   2  23
HETATM   23  C   UNL     1       7.534  29.506  57.134  1.00  0.00     0.337 C 
BRANCH  23  24
HETATM   24  N   UNL     1       7.105  28.099  56.682  1.00  0.00    -0.060 N 
HETATM   25  H   UNL     1       6.132  27.967  56.976  1.00  0.00     0.280 HD
HETATM   26  C   UNL     1       7.122  27.934  55.153  1.00  0.00     0.255 C 
HETATM   27  C   UNL     1       6.692  26.510  54.740  1.00  0.00     0.150 C 
HETATM   28  N   UNL     1       7.516  25.514  55.448  1.00  0.00    -0.378 N 
HETATM   29  C   UNL     1       7.465  25.596  56.914  1.00  0.00     0.150 C 
HETATM   30  C   UNL     1       7.923  26.998  57.369  1.00  0.00     0.255 C 
BRANCH  28  31
HETATM   31  C   UNL     1       7.693  24.280  54.828  1.00  0.00     0.030 A 
HETATM   32  C   UNL     1       7.829  23.121  55.613  1.00  0.00     0.045 A 
HETATM   33  C   UNL     1       7.960  21.840  55.046  1.00  0.00     0.050 A 
HETATM   34  C   UNL     1       7.942  21.713  53.655  1.00  0.00     0.016 A 
HETATM   35  C   UNL     1       7.805  22.843  52.855  1.00  0.00     0.003 A 
HETATM   36  C   UNL     1       7.679  24.109  53.438  1.00  0.00     0.029 A 
BRANCH  33  37
HETATM   37  C   UNL     1       8.065  20.618  55.925  1.00  0.00     0.417 C 
HETATM   38  F   UNL     1       8.702  20.863  57.105  1.00  0.00    -0.166 F 
HETATM   39  F   UNL     1       6.846  20.112  56.256  1.00  0.00    -0.166 F 
HETATM   40  F   UNL     1       8.750  19.600  55.337  1.00  0.00    -0.166 F 
ENDBRANCH  33  37
ENDBRANCH  28  31
ENDBRANCH  23  24
ENDBRANCH   2  23
TORSDOF 8
ENDMDL
MODEL 9
REMARK VINA RESULT:      -9.6      6.516      9.757
REMARK  8 active torsions:
REMARK  status: ('A' for Active; 'I' for Inactive)
REMARK    1  A    between atoms: C_2  and  O_3 
REMARK    2  A    between atoms: O_3  and  C_4 
REMARK    3  A    between atoms: C_4  and  C_5 
REMARK    4  A    between atoms: C_10  and  N_11 
REMARK       I    between atoms: N_11  and  C_12 
REMARK    5  A    between atoms: C_12  and  C_13 
REMARK    6  A    between atoms: C_13  and  N_14 
REMARK    7  A    between atoms: N_18  and  C_19 
REMARK    8  A    between atoms: C_21  and  C_22 
ROOT
HETATM    1  N   UNL     1       6.194  26.842  54.865  1.00  0.00    -0.323 N 
HETATM    2  C   UNL     1       6.835  27.771  54.072  1.00  0.00     0.248 C 
HETATM    3  O   UNL     1       8.051  27.857  53.928  1.00  0.00    -0.271 OA
HETATM    4  H   UNL     1       5.264  26.517  54.600  1.00  0.00     0.169 HD
ENDROOT
BRANCH   1   5
HETATM    5  C   UNL     1       6.858  26.015  55.770  1.00  0.00     0.080 A 
HETATM    6  C   UNL     1       7.255  26.468  57.019  1.00  0.00     0.137 A 
HETATM    7  N   UNL     1       7.852  25.410  57.664  1.00  0.00    -0.349 N 
HETATM    8  H   UNL     1       8.217  25.451  58.607  1.00  0.00     0.166 HD
HETATM    9  C   UNL     1       7.880  24.295  56.860  1.00  0.00     0.048 A 
HETATM   10  C   UNL     1       7.276  24.647  55.644  1.00  0.00     0.023 A 
HETATM   11  C   UNL     1       8.400  23.017  57.129  1.00  0.00     0.070 A 
HETATM   12  C   UNL     1       7.233  23.677  54.613  1.00  0.00     0.055 A 
HETATM   13  C   UNL     1       7.741  22.422  54.887  1.00  0.00     0.106 A 
HETATM   14  C   UNL     1       8.297  22.104  56.098  1.00  0.00     0.107 A 
HETATM   15  O   UNL     1       7.755  21.377  54.015  1.00  0.00    -0.323 OA
HETATM   16  O   UNL     1       8.728  20.814  56.146  1.00  0.00    -0.323 OA
HETATM   17  C   UNL     1       8.352  20.350  54.833  1.00  0.00     0.352 A 
BRANCH   6  18
HETATM   18  C   UNL     1       7.049  27.770  57.604  1.00  0.00     0.312 C 
HETATM   19  O   UNL     1       5.986  28.378  57.558  1.00  0.00    -0.258 OA
BRANCH  18  20
HETATM   20  O   UNL     1       8.185  28.179  58.228  1.00  0.00    -0.317 OA
BRANCH  20  21
HETATM   21  C   UNL     1       8.733  29.432  57.790  1.00  0.00     0.175 C 
HETATM   22  C   UNL     1       9.973  29.193  56.953  1.00  0.00     0.034 C 
ENDBRANCH  20  21
ENDBRANCH  18  20
ENDBRANCH   6  18
ENDBRANCH   1   5
BRANCH   2  23
HETATM   23  C   UNL     1       5.885  28.717  53.321  1.00  0.00     0.337 C 
BRANCH  23  24
HETATM   24  N   UNL     1       5.600  28.349  51.854  1.00  0.00    -0.060 N 
HETATM   25  H   UNL     1       6.470  28.486  51.330  1.00  0.00     0.280 HD
HETATM   26  C   UNL     1       5.213  26.871  51.677  1.00  0.00     0.255 C 
HETATM   27  C   UNL     1       4.930  26.543  50.195  1.00  0.00     0.150 C 
HETATM   28  N   UNL     1       3.928  27.480  49.658  1.00  0.00    -0.378 N 
HETATM   29  C   UNL     1       4.298  28.900  49.745  1.00  0.00     0.150 C 
HETATM   30  C   UNL     1       4.556  29.277  51.219  1.00  0.00     0.255 C 
BRANCH  28  31
HETATM   31  C   UNL     1       3.141  27.033  48.600  1.00  0.00     0.030 A 
HETATM   32  C   UNL     1       2.054  27.810  48.165  1.00  0.00     0.045 A 
HETATM   33  C   UNL     1       1.252  27.437  47.070  1.00  0.00     0.050 A 
HETATM   34  C   UNL     1       1.556  26.259  46.383  1.00  0.00     0.016 A 
HETATM   35  C   UNL     1       2.629  25.473  46.790  1.00  0.00     0.003 A 
HETATM   36  C   UNL     1       3.411  25.860  47.884  1.00  0.00     0.029 A 
BRANCH  33  37
HETATM   37  C   UNL     1       0.118  28.321  46.612  1.00  0.00     0.417 C 
HETATM   38  F   UNL     1       0.273  28.766  45.333  1.00  0.00    -0.166 F 
HETATM   39  F   UNL     1      -1.083  27.680  46.642  1.00  0.00    -0.166 F 
HETATM   40  F   UNL     1      -0.027  29.435  47.379  1.00  0.00    -0.166 F 
ENDBRANCH  33  37
ENDBRANCH  28  31
ENDBRANCH  23  24
ENDBRANCH   2  23
TORSDOF 8
ENDMDL
MODEL 10
REMARK VINA RESULT:      -9.6      4.940     10.672
REMARK  8 active torsions:
REMARK  status: ('A' for Active; 'I' for Inactive)
REMARK    1  A    between atoms: C_2  and  O_3 
REMARK    2  A    between atoms: O_3  and  C_4 
REMARK    3  A    between atoms: C_4  and  C_5 
REMARK    4  A    between atoms: C_10  and  N_11 
REMARK       I    between atoms: N_11  and  C_12 
REMARK    5  A    between atoms: C_12  and  C_13 
REMARK    6  A    between atoms: C_13  and  N_14 
REMARK    7  A    between atoms: N_18  and  C_19 
REMARK    8  A    between atoms: C_21  and  C_22 
ROOT
HETATM    1  N   UNL     1       4.782  27.157  54.162  1.00  0.00    -0.323 N 
HETATM    2  C   UNL     1       5.282  28.256  54.828  1.00  0.00     0.248 C 
HETATM    3  O   UNL     1       6.413  28.714  54.685  1.00  0.00    -0.271 OA
HETATM    4  H   UNL     1       3.784  27.109  53.958  1.00  0.00     0.169 HD
ENDROOT
BRANCH   1   5
HETATM    5  C   UNL     1       5.569  26.298  53.395  1.00  0.00     0.080 A 
HETATM    6  C   UNL     1       5.687  26.445  52.022  1.00  0.00     0.137 A 
HETATM    7  N   UNL     1       6.544  25.465  51.580  1.00  0.00    -0.349 N 
HETATM    8  H   UNL     1       6.831  25.351  50.616  1.00  0.00     0.166 HD
HETATM    9  C   UNL     1       6.960  24.668  52.620  1.00  0.00     0.048 A 
HETATM   10  C   UNL     1       6.346  25.155  53.784  1.00  0.00     0.023 A 
HETATM   11  C   UNL     1       7.825  23.561  52.603  1.00  0.00     0.070 A 
HETATM   12  C   UNL     1       6.570  24.462  54.999  1.00  0.00     0.055 A 
HETATM   13  C   UNL     1       7.426  23.377  54.973  1.00  0.00     0.106 A 
HETATM   14  C   UNL     1       8.033  22.948  53.823  1.00  0.00     0.107 A 
HETATM   15  O   UNL     1       7.761  22.622  56.055  1.00  0.00    -0.323 OA
HETATM   16  O   UNL     1       8.834  21.868  54.033  1.00  0.00    -0.323 OA
HETATM   17  C   UNL     1       8.683  21.687  55.456  1.00  0.00     0.352 A 
BRANCH   6  18
HETATM   18  C   UNL     1       5.099  27.455  51.177  1.00  0.00     0.312 C 
HETATM   19  O   UNL     1       4.589  28.487  51.601  1.00  0.00    -0.258 OA
BRANCH  18  20
HETATM   20  O   UNL     1       5.233  27.101  49.872  1.00  0.00    -0.317 OA
BRANCH  20  21
HETATM   21  C   UNL     1       4.026  26.727  49.189  1.00  0.00     0.175 C 
HETATM   22  C   UNL     1       3.498  27.901  48.389  1.00  0.00     0.034 C 
ENDBRANCH  20  21
ENDBRANCH  18  20
ENDBRANCH   6  18
ENDBRANCH   1   5
BRANCH   2  23
HETATM   23  C   UNL     1       4.280  28.921  55.783  1.00  0.00     0.337 C 
BRANCH  23  24
HETATM   24  N   UNL     1       4.808  30.138  56.563  1.00  0.00    -0.060 N 
HETATM   25  H   UNL     1       5.174  30.805  55.877  1.00  0.00     0.280 HD
HETATM   26  C   UNL     1       3.702  30.874  57.337  1.00  0.00     0.255 C 
HETATM   27  C   UNL     1       4.271  32.084  58.109  1.00  0.00     0.150 C 
HETATM   28  N   UNL     1       5.394  31.650  58.959  1.00  0.00    -0.378 N 
HETATM   29  C   UNL     1       6.504  31.007  58.242  1.00  0.00     0.150 C 
HETATM   30  C   UNL     1       5.979  29.770  57.482  1.00  0.00     0.255 C 
BRANCH  28  31
HETATM   31  C   UNL     1       5.651  32.400  60.104  1.00  0.00     0.030 A 
HETATM   32  C   UNL     1       6.717  32.039  60.947  1.00  0.00     0.045 A 
HETATM   33  C   UNL     1       7.058  32.785  62.090  1.00  0.00     0.050 A 
HETATM   34  C   UNL     1       6.320  33.933  62.391  1.00  0.00     0.016 A 
HETATM   35  C   UNL     1       5.262  34.315  61.572  1.00  0.00     0.003 A 
HETATM   36  C   UNL     1       4.937  33.556  60.442  1.00  0.00     0.029 A 
BRANCH  33  37
HETATM   37  C   UNL     1       8.235  32.385  62.946  1.00  0.00     0.417 C 
HETATM   38  F   UNL     1       9.418  32.410  62.270  1.00  0.00    -0.166 F 
HETATM   39  F   UNL     1       8.397  33.206  64.019  1.00  0.00    -0.166 F 
HETATM   40  F   UNL     1       8.119  31.125  63.447  1.00  0.00    -0.166 F 
ENDBRANCH  33  37
ENDBRANCH  28  31
ENDBRANCH  23  24
ENDBRANCH   2  23
TORSDOF 8
ENDMDL
