MODEL 1
REMARK VINA RESULT:      -9.0      0.000      0.000
REMARK  4 active torsions:
REMARK  status: ('A' for Active; 'I' for Inactive)
REMARK    1  A    between atoms: C_2  and  N_3 
REMARK    2  A    between atoms: C_2  and  C_14 
REMARK    3  A    between atoms: N_3  and  C_6 
REMARK    4  A    between atoms: C_6  and  C_7 
ROOT
HETATM    1  C   UNL     1       5.353  26.213  56.727  1.00  0.00     0.048 C 
HETATM    2  C   UNL     1       6.513  25.315  57.129  1.00  0.00     0.251 C 
ENDROOT
BRANCH   2   3
HETATM    3  N   UNL     1       7.725  26.167  57.424  1.00  0.00    -0.060 N 
HETATM    4  H   UNL     1       7.602  26.523  58.387  1.00  0.00     0.278 HD
HETATM    5  H   UNL     1       8.551  25.560  57.527  1.00  0.00     0.278 HD
BRANCH   3   6
HETATM    6  C   UNL     1       8.010  27.297  56.511  1.00  0.00     0.271 C 
BRANCH   6   7
HETATM    7  C   UNL     1       8.461  28.507  57.279  1.00  0.00    -0.033 A 
HETATM    8  C   UNL     1       9.729  29.067  57.047  1.00  0.00     0.010 A 
HETATM    9  C   UNL     1      10.160  30.173  57.785  1.00  0.00     0.024 A 
HETATM   10  C   UNL     1       9.331  30.724  58.759  1.00  0.00     0.034 A 
HETATM   11 CL   UNL     1       9.863  32.084  59.665  1.00  0.00    -0.084 Cl
HETATM   12  C   UNL     1       8.073  30.177  59.003  1.00  0.00     0.024 A 
HETATM   13  C   UNL     1       7.640  29.070  58.270  1.00  0.00     0.010 A 
ENDBRANCH   6   7
ENDBRANCH   3   6
ENDBRANCH   2   3
BRANCH   2  14
HETATM   14  C   UNL     1       6.871  24.328  56.007  1.00  0.00     0.138 A 
HETATM   15  N   UNL     1       7.409  23.196  56.342  1.00  0.00    -0.232 NA
HETATM   16  C   UNL     1       7.741  22.298  55.305  1.00  0.00     0.074 A 
HETATM   17  C   UNL     1       7.500  22.584  53.957  1.00  0.00     0.061 A 
HETATM   18  C   UNL     1       8.338  21.079  55.631  1.00  0.00     0.032 A 
HETATM   19  C   UNL     1       6.872  23.877  53.643  1.00  0.00     0.259 A 
HETATM   20  C   UNL     1       7.843  21.685  52.944  1.00  0.00     0.019 A 
HETATM   21  O   UNL     1       6.608  24.230  52.503  1.00  0.00    -0.267 OA
HETATM   22  N   UNL     1       6.592  24.683  54.719  1.00  0.00    -0.309 N 
HETATM   23  H   UNL     1       6.161  25.563  54.462  1.00  0.00     0.170 HD
HETATM   24  C   UNL     1       8.440  20.473  53.286  1.00  0.00     0.001 A 
HETATM   25  C   UNL     1       8.687  20.170  54.626  1.00  0.00     0.002 A 
ENDBRANCH   2  14
TORSDOF 4
ENDMDL
MODEL 2
REMARK VINA RESULT:      -8.9      1.346      1.558
REMARK  4 active torsions:
REMARK  status: ('A' for Active; 'I' for Inactive)
REMARK    1  A    between atoms: C_2  and  N_3 
REMARK    2  A    between atoms: C_2  and  C_14 
REMARK    3  A    between atoms: N_3  and  C_6 
REMARK    4  A    between atoms: C_6  and  C_7 
ROOT
HETATM    1  C   UNL     1       5.011  25.246  57.205  1.00  0.00     0.048 C 
HETATM    2  C   UNL     1       6.168  25.788  56.378  1.00  0.00     0.251 C 
ENDROOT
BRANCH   2   3
HETATM    3  N   UNL     1       5.689  26.962  55.557  1.00  0.00    -0.060 N 
HETATM    4  H   UNL     1       6.291  26.994  54.716  1.00  0.00     0.278 HD
HETATM    5  H   UNL     1       4.770  26.740  55.150  1.00  0.00     0.278 HD
BRANCH   3   6
HETATM    6  C   UNL     1       5.674  28.294  56.205  1.00  0.00     0.271 C 
BRANCH   6   7
HETATM    7  C   UNL     1       7.071  28.767  56.491  1.00  0.00    -0.033 A 
HETATM    8  C   UNL     1       8.016  28.867  55.456  1.00  0.00     0.010 A 
HETATM    9  C   UNL     1       9.324  29.277  55.729  1.00  0.00     0.024 A 
HETATM   10  C   UNL     1       9.697  29.585  57.035  1.00  0.00     0.034 A 
HETATM   11 CL   UNL     1      11.306  30.089  57.368  1.00  0.00    -0.084 Cl
HETATM   12  C   UNL     1       8.773  29.486  58.072  1.00  0.00     0.024 A 
HETATM   13  C   UNL     1       7.465  29.074  57.804  1.00  0.00     0.010 A 
ENDBRANCH   6   7
ENDBRANCH   3   6
ENDBRANCH   2   3
BRANCH   2  14
HETATM   14  C   UNL     1       6.722  24.718  55.424  1.00  0.00     0.138 A 
HETATM   15  N   UNL     1       6.955  23.536  55.906  1.00  0.00    -0.232 NA
HETATM   16  C   UNL     1       7.470  22.562  55.025  1.00  0.00     0.074 A 
HETATM   17  C   UNL     1       7.719  22.826  53.674  1.00  0.00     0.061 A 
HETATM   18  C   UNL     1       7.749  21.285  55.516  1.00  0.00     0.032 A 
HETATM   19  C   UNL     1       7.417  24.180  53.184  1.00  0.00     0.259 A 
HETATM   20  C   UNL     1       8.236  21.849  52.819  1.00  0.00     0.019 A 
HETATM   21  O   UNL     1       7.588  24.522  52.022  1.00  0.00    -0.267 OA
HETATM   22  N   UNL     1       6.926  25.058  54.118  1.00  0.00    -0.309 N 
HETATM   23  H   UNL     1       6.731  25.979  53.743  1.00  0.00     0.170 HD
HETATM   24  C   UNL     1       8.511  20.580  53.326  1.00  0.00     0.001 A 
HETATM   25  C   UNL     1       8.268  20.298  54.671  1.00  0.00     0.002 A 
ENDBRANCH   2  14
TORSDOF 4
ENDMDL
MODEL 3
REMARK VINA RESULT:      -8.9      1.537      2.127
REMARK  4 active torsions:
REMARK  status: ('A' for Active; 'I' for Inactive)
REMARK    1  A    between atoms: C_2  and  N_3 
REMARK    2  A    between atoms: C_2  and  C_14 
REMARK    3  A    between atoms: N_3  and  C_6 
REMARK    4  A    between atoms: C_6  and  C_7 
ROOT
HETATM    1  C   UNL     1       5.996  25.991  56.943  1.00  0.00     0.048 C 
HETATM    2  C   UNL     1       7.334  25.407  57.376  1.00  0.00     0.251 C 
ENDROOT
BRANCH   2   3
HETATM    3  N   UNL     1       8.435  26.390  57.056  1.00  0.00    -0.060 N 
HETATM    4  H   UNL     1       8.950  26.548  57.940  1.00  0.00     0.278 HD
HETATM    5  H   UNL     1       9.148  25.926  56.476  1.00  0.00     0.278 HD
BRANCH   3   6
HETATM    6  C   UNL     1       8.045  27.694  56.473  1.00  0.00     0.271 C 
BRANCH   6   7
HETATM    7  C   UNL     1       8.480  28.829  57.356  1.00  0.00    -0.033 A 
HETATM    8  C   UNL     1       9.714  29.466  57.141  1.00  0.00     0.010 A 
HETATM    9  C   UNL     1      10.133  30.501  57.982  1.00  0.00     0.024 A 
HETATM   10  C   UNL     1       9.325  30.903  59.044  1.00  0.00     0.034 A 
HETATM   11 CL   UNL     1       9.842  32.175  60.077  1.00  0.00    -0.084 Cl
HETATM   12  C   UNL     1       8.102  30.278  59.271  1.00  0.00     0.024 A 
HETATM   13  C   UNL     1       7.681  29.241  58.434  1.00  0.00     0.010 A 
ENDBRANCH   6   7
ENDBRANCH   3   6
ENDBRANCH   2   3
BRANCH   2  14
HETATM   14  C   UNL     1       7.629  24.088  56.646  1.00  0.00     0.138 A 
HETATM   15  N   UNL     1       7.521  24.071  55.353  1.00  0.00    -0.232 NA
HETATM   16  C   UNL     1       7.787  22.854  54.691  1.00  0.00     0.074 A 
HETATM   17  C   UNL     1       8.167  21.694  55.374  1.00  0.00     0.061 A 
HETATM   18  C   UNL     1       7.662  22.798  53.302  1.00  0.00     0.032 A 
HETATM   19  C   UNL     1       8.289  21.781  56.838  1.00  0.00     0.259 A 
HETATM   20  C   UNL     1       8.419  20.496  54.700  1.00  0.00     0.019 A 
HETATM   21  O   UNL     1       8.621  20.835  57.537  1.00  0.00    -0.267 OA
HETATM   22  N   UNL     1       8.003  23.006  57.389  1.00  0.00    -0.309 N 
HETATM   23  H   UNL     1       8.098  23.026  58.398  1.00  0.00     0.170 HD
HETATM   24  C   UNL     1       8.288  20.456  53.313  1.00  0.00     0.001 A 
HETATM   25  C   UNL     1       7.911  21.604  52.615  1.00  0.00     0.002 A 
ENDBRANCH   2  14
TORSDOF 4
ENDMDL
MODEL 4
REMARK VINA RESULT:      -8.7      3.716      8.311
REMARK  4 active torsions:
REMARK  status: ('A' for Active; 'I' for Inactive)
REMARK    1  A    between atoms: C_2  and  N_3 
REMARK    2  A    between atoms: C_2  and  C_14 
REMARK    3  A    between atoms: N_3  and  C_6 
REMARK    4  A    between atoms: C_6  and  C_7 
ROOT
HETATM    1  C   UNL     1       5.403  27.653  56.129  1.00  0.00     0.048 C 
HETATM    2  C   UNL     1       6.681  28.033  55.394  1.00  0.00     0.251 C 
ENDROOT
BRANCH   2   3
HETATM    3  N   UNL     1       7.439  26.778  55.029  1.00  0.00    -0.060 N 
HETATM    4  H   UNL     1       7.199  26.570  54.044  1.00  0.00     0.278 HD
HETATM    5  H   UNL     1       8.443  26.995  54.960  1.00  0.00     0.278 HD
BRANCH   3   6
HETATM    6  C   UNL     1       7.213  25.573  55.858  1.00  0.00     0.271 C 
BRANCH   6   7
HETATM    7  C   UNL     1       7.499  24.322  55.076  1.00  0.00    -0.033 A 
HETATM    8  C   UNL     1       7.719  24.383  53.690  1.00  0.00     0.010 A 
HETATM    9  C   UNL     1       7.953  23.215  52.958  1.00  0.00     0.024 A 
HETATM   10  C   UNL     1       7.966  21.981  53.604  1.00  0.00     0.034 A 
HETATM   11 CL   UNL     1       8.253  20.547  52.702  1.00  0.00    -0.084 Cl
HETATM   12  C   UNL     1       7.744  21.905  54.977  1.00  0.00     0.024 A 
HETATM   13  C   UNL     1       7.507  23.070  55.712  1.00  0.00     0.010 A 
ENDBRANCH   6   7
ENDBRANCH   3   6
ENDBRANCH   2   3
BRANCH   2  14
HETATM   14  C   UNL     1       7.586  28.915  56.267  1.00  0.00     0.138 A 
HETATM   15  N   UNL     1       7.038  29.568  57.246  1.00  0.00    -0.232 NA
HETATM   16  C   UNL     1       7.875  30.381  58.038  1.00  0.00     0.074 A 
HETATM   17  C   UNL     1       9.251  30.491  57.811  1.00  0.00     0.061 A 
HETATM   18  C   UNL     1       7.314  31.110  59.088  1.00  0.00     0.032 A 
HETATM   19  C   UNL     1       9.816  29.713  56.697  1.00  0.00     0.259 A 
HETATM   20  C   UNL     1      10.062  31.308  58.603  1.00  0.00     0.019 A 
HETATM   21  O   UNL     1      11.004  29.725  56.410  1.00  0.00    -0.267 OA
HETATM   22  N   UNL     1       8.920  28.957  55.981  1.00  0.00    -0.309 N 
HETATM   23  H   UNL     1       9.346  28.437  55.223  1.00  0.00     0.170 HD
HETATM   24  C   UNL     1       9.485  32.030  59.646  1.00  0.00     0.001 A 
HETATM   25  C   UNL     1       8.115  31.932  59.889  1.00  0.00     0.002 A 
ENDBRANCH   2  14
TORSDOF 4
ENDMDL
MODEL 5
REMARK VINA RESULT:      -8.6      3.584      7.670
REMARK  4 active torsions:
REMARK  status: ('A' for Active; 'I' for Inactive)
REMARK    1  A    between atoms: C_2  and  N_3 
REMARK    2  A    between atoms: C_2  and  C_14 
REMARK    3  A    between atoms: N_3  and  C_6 
REMARK    4  A    between atoms: C_6  and  C_7 
ROOT
HETATM    1  C   UNL     1       5.438  26.639  53.685  1.00  0.00     0.048 C 
HETATM    2  C   UNL     1       6.775  27.329  53.456  1.00  0.00     0.251 C 
ENDROOT
BRANCH   2   3
HETATM    3  N   UNL     1       7.825  26.290  53.139  1.00  0.00    -0.060 N 
HETATM    4  H   UNL     1       8.496  26.742  52.495  1.00  0.00     0.278 HD
HETATM    5  H   UNL     1       8.408  26.130  53.973  1.00  0.00     0.278 HD
BRANCH   3   6
HETATM    6  C   UNL     1       7.369  25.007  52.558  1.00  0.00     0.271 C 
BRANCH   6   7
HETATM    7  C   UNL     1       7.771  23.849  53.429  1.00  0.00    -0.033 A 
HETATM    8  C   UNL     1       8.162  24.063  54.761  1.00  0.00     0.010 A 
HETATM    9  C   UNL     1       8.566  22.990  55.561  1.00  0.00     0.024 A 
HETATM   10  C   UNL     1       8.585  21.700  55.035  1.00  0.00     0.034 A 
HETATM   11 CL   UNL     1       9.082  20.383  56.020  1.00  0.00    -0.084 Cl
HETATM   12  C   UNL     1       8.205  21.474  53.714  1.00  0.00     0.024 A 
HETATM   13  C   UNL     1       7.803  22.545  52.911  1.00  0.00     0.010 A 
ENDBRANCH   6   7
ENDBRANCH   3   6
ENDBRANCH   2   3
BRANCH   2  14
HETATM   14  C   UNL     1       7.221  28.110  54.702  1.00  0.00     0.138 A 
HETATM   15  N   UNL     1       8.456  28.503  54.763  1.00  0.00    -0.232 NA
HETATM   16  C   UNL     1       8.860  29.213  55.913  1.00  0.00     0.074 A 
HETATM   17  C   UNL     1       7.981  29.509  56.960  1.00  0.00     0.061 A 
HETATM   18  C   UNL     1      10.186  29.634  56.017  1.00  0.00     0.032 A 
HETATM   19  C   UNL     1       6.590  29.052  56.824  1.00  0.00     0.259 A 
HETATM   20  C   UNL     1       8.402  30.208  58.095  1.00  0.00     0.019 A 
HETATM   21  O   UNL     1       5.733  29.259  57.672  1.00  0.00    -0.267 OA
HETATM   22  N   UNL     1       6.296  28.364  55.672  1.00  0.00    -0.309 N 
HETATM   23  H   UNL     1       5.330  28.066  55.616  1.00  0.00     0.170 HD
HETATM   24  C   UNL     1       9.731  30.620  58.184  1.00  0.00     0.001 A 
HETATM   25  C   UNL     1      10.621  30.335  57.149  1.00  0.00     0.002 A 
ENDBRANCH   2  14
TORSDOF 4
ENDMDL
MODEL 6
REMARK VINA RESULT:      -8.5      5.908      8.091
REMARK  4 active torsions:
REMARK  status: ('A' for Active; 'I' for Inactive)
REMARK    1  A    between atoms: C_2  and  N_3 
REMARK    2  A    between atoms: C_2  and  C_14 
REMARK    3  A    between atoms: N_3  and  C_6 
REMARK    4  A    between atoms: C_6  and  C_7 
ROOT
HETATM    1  C   UNL     1       4.146  27.688  53.202  1.00  0.00     0.048 C 
HETATM    2  C   UNL     1       5.170  26.893  52.406  1.00  0.00     0.251 C 
ENDROOT
BRANCH   2   3
HETATM    3  N   UNL     1       4.493  26.262  51.212  1.00  0.00    -0.060 N 
HETATM    4  H   UNL     1       4.587  25.238  51.332  1.00  0.00     0.278 HD
HETATM    5  H   UNL     1       3.475  26.391  51.290  1.00  0.00     0.278 HD
BRANCH   3   6
HETATM    6  C   UNL     1       4.974  26.648  49.865  1.00  0.00     0.271 C 
BRANCH   6   7
HETATM    7  C   UNL     1       3.825  26.808  48.910  1.00  0.00    -0.033 A 
HETATM    8  C   UNL     1       2.885  27.836  49.093  1.00  0.00     0.010 A 
HETATM    9  C   UNL     1       1.798  27.965  48.223  1.00  0.00     0.024 A 
HETATM   10  C   UNL     1       1.643  27.068  47.169  1.00  0.00     0.034 A 
HETATM   11 CL   UNL     1       0.306  27.228  46.101  1.00  0.00    -0.084 Cl
HETATM   12  C   UNL     1       2.564  26.041  46.979  1.00  0.00     0.024 A 
HETATM   13  C   UNL     1       3.650  25.907  47.848  1.00  0.00     0.010 A 
ENDBRANCH   6   7
ENDBRANCH   3   6
ENDBRANCH   2   3
BRANCH   2  14
HETATM   14  C   UNL     1       5.797  25.778  53.258  1.00  0.00     0.138 A 
HETATM   15  N   UNL     1       6.456  24.843  52.646  1.00  0.00    -0.232 NA
HETATM   16  C   UNL     1       7.022  23.819  53.434  1.00  0.00     0.074 A 
HETATM   17  C   UNL     1       6.904  23.791  54.828  1.00  0.00     0.061 A 
HETATM   18  C   UNL     1       7.723  22.790  52.805  1.00  0.00     0.032 A 
HETATM   19  C   UNL     1       6.158  24.888  55.464  1.00  0.00     0.259 A 
HETATM   20  C   UNL     1       7.466  22.764  55.590  1.00  0.00     0.019 A 
HETATM   21  O   UNL     1       5.997  24.971  56.674  1.00  0.00    -0.267 OA
HETATM   22  N   UNL     1       5.641  25.833  54.612  1.00  0.00    -0.309 N 
HETATM   23  H   UNL     1       5.135  26.571  55.088  1.00  0.00     0.170 HD
HETATM   24  C   UNL     1       8.161  21.743  54.946  1.00  0.00     0.001 A 
HETATM   25  C   UNL     1       8.291  21.755  53.557  1.00  0.00     0.002 A 
ENDBRANCH   2  14
TORSDOF 4
ENDMDL
MODEL 7
REMARK VINA RESULT:      -8.3      2.304      3.529
REMARK  4 active torsions:
REMARK  status: ('A' for Active; 'I' for Inactive)
REMARK    1  A    between atoms: C_2  and  N_3 
REMARK    2  A    between atoms: C_2  and  C_14 
REMARK    3  A    between atoms: N_3  and  C_6 
REMARK    4  A    between atoms: C_6  and  C_7 
ROOT
HETATM    1  C   UNL     1       5.915  26.120  51.545  1.00  0.00     0.048 C 
HETATM    2  C   UNL     1       5.087  25.312  52.534  1.00  0.00     0.251 C 
ENDROOT
BRANCH   2   3
HETATM    3  N   UNL     1       4.261  26.252  53.380  1.00  0.00    -0.060 N 
HETATM    4  H   UNL     1       3.281  26.138  53.069  1.00  0.00     0.278 HD
HETATM    5  H   UNL     1       4.220  25.896  54.345  1.00  0.00     0.278 HD
BRANCH   3   6
HETATM    6  C   UNL     1       4.621  27.689  53.362  1.00  0.00     0.271 C 
BRANCH   6   7
HETATM    7  C   UNL     1       5.397  28.064  54.593  1.00  0.00    -0.033 A 
HETATM    8  C   UNL     1       6.771  28.345  54.511  1.00  0.00     0.010 A 
HETATM    9  C   UNL     1       7.499  28.662  55.662  1.00  0.00     0.024 A 
HETATM   10  C   UNL     1       6.860  28.698  56.899  1.00  0.00     0.034 A 
HETATM   11 CL   UNL     1       7.756  29.088  58.312  1.00  0.00    -0.084 Cl
HETATM   12  C   UNL     1       5.499  28.417  56.996  1.00  0.00     0.024 A 
HETATM   13  C   UNL     1       4.769  28.096  55.849  1.00  0.00     0.010 A 
ENDBRANCH   6   7
ENDBRANCH   3   6
ENDBRANCH   2   3
BRANCH   2  14
HETATM   14  C   UNL     1       5.984  24.479  53.464  1.00  0.00     0.138 A 
HETATM   15  N   UNL     1       6.636  23.483  52.948  1.00  0.00    -0.232 NA
HETATM   16  C   UNL     1       7.451  22.719  53.809  1.00  0.00     0.074 A 
HETATM   17  C   UNL     1       7.582  23.007  55.172  1.00  0.00     0.061 A 
HETATM   18  C   UNL     1       8.152  21.630  53.289  1.00  0.00     0.032 A 
HETATM   19  C   UNL     1       6.832  24.160  55.693  1.00  0.00     0.259 A 
HETATM   20  C   UNL     1       8.390  22.234  56.010  1.00  0.00     0.019 A 
HETATM   21  O   UNL     1       6.875  24.510  56.864  1.00  0.00    -0.267 OA
HETATM   22  N   UNL     1       6.062  24.836  54.779  1.00  0.00    -0.309 N 
HETATM   23  H   UNL     1       5.561  25.622  55.176  1.00  0.00     0.170 HD
HETATM   24  C   UNL     1       9.081  21.149  55.475  1.00  0.00     0.001 A 
HETATM   25  C   UNL     1       8.963  20.847  54.118  1.00  0.00     0.002 A 
ENDBRANCH   2  14
TORSDOF 4
ENDMDL
MODEL 8
REMARK VINA RESULT:      -8.3      3.920      5.463
REMARK  4 active torsions:
REMARK  status: ('A' for Active; 'I' for Inactive)
REMARK    1  A    between atoms: C_2  and  N_3 
REMARK    2  A    between atoms: C_2  and  C_14 
REMARK    3  A    between atoms: N_3  and  C_6 
REMARK    4  A    between atoms: C_6  and  C_7 
ROOT
HETATM    1  C   UNL     1       7.607  26.393  57.466  1.00  0.00     0.048 C 
HETATM    2  C   UNL     1       7.539  26.027  55.990  1.00  0.00     0.251 C 
ENDROOT
BRANCH   2   3
HETATM    3  N   UNL     1       6.164  26.355  55.457  1.00  0.00    -0.060 N 
HETATM    4  H   UNL     1       5.874  25.545  54.883  1.00  0.00     0.278 HD
HETATM    5  H   UNL     1       5.483  26.322  56.228  1.00  0.00     0.278 HD
BRANCH   3   6
HETATM    6  C   UNL     1       6.011  27.600  54.669  1.00  0.00     0.271 C 
BRANCH   6   7
HETATM    7  C   UNL     1       5.700  27.290  53.232  1.00  0.00    -0.033 A 
HETATM    8  C   UNL     1       5.643  28.320  52.277  1.00  0.00     0.010 A 
HETATM    9  C   UNL     1       5.322  28.035  50.947  1.00  0.00     0.024 A 
HETATM   10  C   UNL     1       5.053  26.723  50.563  1.00  0.00     0.034 A 
HETATM   11 CL   UNL     1       4.658  26.376  48.927  1.00  0.00    -0.084 Cl
HETATM   12  C   UNL     1       5.100  25.693  51.499  1.00  0.00     0.024 A 
HETATM   13  C   UNL     1       5.418  25.974  52.831  1.00  0.00     0.010 A 
ENDBRANCH   6   7
ENDBRANCH   3   6
ENDBRANCH   2   3
BRANCH   2  14
HETATM   14  C   UNL     1       7.801  24.528  55.773  1.00  0.00     0.138 A 
HETATM   15  N   UNL     1       7.822  24.085  54.554  1.00  0.00    -0.232 NA
HETATM   16  C   UNL     1       8.056  22.706  54.364  1.00  0.00     0.074 A 
HETATM   17  C   UNL     1       8.273  21.827  55.430  1.00  0.00     0.061 A 
HETATM   18  C   UNL     1       8.068  22.195  53.066  1.00  0.00     0.032 A 
HETATM   19  C   UNL     1       8.254  22.393  56.788  1.00  0.00     0.259 A 
HETATM   20  C   UNL     1       8.496  20.463  55.222  1.00  0.00     0.019 A 
HETATM   21  O   UNL     1       8.438  21.722  57.793  1.00  0.00    -0.267 OA
HETATM   22  N   UNL     1       8.012  23.743  56.869  1.00  0.00    -0.309 N 
HETATM   23  H   UNL     1       8.006  24.095  57.819  1.00  0.00     0.170 HD
HETATM   24  C   UNL     1       8.503  19.968  53.919  1.00  0.00     0.001 A 
HETATM   25  C   UNL     1       8.290  20.831  52.843  1.00  0.00     0.002 A 
ENDBRANCH   2  14
TORSDOF 4
ENDMDL
MODEL 9
REMARK VINA RESULT:      -8.2      1.792      2.395
REMARK  4 active torsions:
REMARK  status: ('A' for Active; 'I' for Inactive)
REMARK    1  A    between atoms: C_2  and  N_3 
REMARK    2  A    between atoms: C_2  and  C_14 
REMARK    3  A    between atoms: N_3  and  C_6 
REMARK    4  A    between atoms: C_6  and  C_7 
ROOT
HETATM    1  C   UNL     1       6.556  26.275  52.537  1.00  0.00     0.048 C 
HETATM    2  C   UNL     1       6.592  26.100  54.049  1.00  0.00     0.251 C 
ENDROOT
BRANCH   2   3
HETATM    3  N   UNL     1       7.462  27.175  54.656  1.00  0.00    -0.060 N 
HETATM    4  H   UNL     1       7.876  26.766  55.511  1.00  0.00     0.278 HD
HETATM    5  H   UNL     1       8.293  27.314  54.065  1.00  0.00     0.278 HD
BRANCH   3   6
HETATM    6  C   UNL     1       6.825  28.470  54.986  1.00  0.00     0.271 C 
BRANCH   6   7
HETATM    7  C   UNL     1       7.489  29.107  56.175  1.00  0.00    -0.033 A 
HETATM    8  C   UNL     1       8.889  29.112  56.290  1.00  0.00     0.010 A 
HETATM    9  C   UNL     1       9.505  29.677  57.412  1.00  0.00     0.024 A 
HETATM   10  C   UNL     1       8.727  30.236  58.423  1.00  0.00     0.034 A 
HETATM   11 CL   UNL     1       9.486  30.929  59.800  1.00  0.00    -0.084 Cl
HETATM   12  C   UNL     1       7.338  30.234  58.324  1.00  0.00     0.024 A 
HETATM   13  C   UNL     1       6.719  29.668  57.206  1.00  0.00     0.010 A 
ENDBRANCH   6   7
ENDBRANCH   3   6
ENDBRANCH   2   3
BRANCH   2  14
HETATM   14  C   UNL     1       7.166  24.729  54.439  1.00  0.00     0.138 A 
HETATM   15  N   UNL     1       7.291  23.835  53.507  1.00  0.00    -0.232 NA
HETATM   16  C   UNL     1       7.812  22.576  53.875  1.00  0.00     0.074 A 
HETATM   17  C   UNL     1       8.199  22.277  55.185  1.00  0.00     0.061 A 
HETATM   18  C   UNL     1       7.943  21.587  52.899  1.00  0.00     0.032 A 
HETATM   19  C   UNL     1       8.049  23.338  56.193  1.00  0.00     0.259 A 
HETATM   20  C   UNL     1       8.707  21.021  55.531  1.00  0.00     0.019 A 
HETATM   21  O   UNL     1       8.361  23.192  57.367  1.00  0.00    -0.267 OA
HETATM   22  N   UNL     1       7.527  24.525  55.739  1.00  0.00    -0.309 N 
HETATM   23  H   UNL     1       7.439  25.229  56.462  1.00  0.00     0.170 HD
HETATM   24  C   UNL     1       8.829  20.044  54.545  1.00  0.00     0.001 A 
HETATM   25  C   UNL     1       8.449  20.325  53.232  1.00  0.00     0.002 A 
ENDBRANCH   2  14
TORSDOF 4
ENDMDL
MODEL 10
REMARK VINA RESULT:      -8.2      1.597      2.000
REMARK  4 active torsions:
REMARK  status: ('A' for Active; 'I' for Inactive)
REMARK    1  A    between atoms: C_2  and  N_3 
REMARK    2  A    between atoms: C_2  and  C_14 
REMARK    3  A    between atoms: N_3  and  C_6 
REMARK    4  A    between atoms: C_6  and  C_7 
ROOT
HETATM    1  C   UNL     1       4.652  28.433  54.776  1.00  0.00     0.048 C 
HETATM    2  C   UNL     1       5.935  27.913  55.407  1.00  0.00     0.251 C 
ENDROOT
BRANCH   2   3
HETATM    3  N   UNL     1       7.030  28.939  55.231  1.00  0.00    -0.060 N 
HETATM    4  H   UNL     1       7.098  29.120  54.214  1.00  0.00     0.278 HD
HETATM    5  H   UNL     1       6.703  29.849  55.585  1.00  0.00     0.278 HD
BRANCH   3   6
HETATM    6  C   UNL     1       8.371  28.613  55.766  1.00  0.00     0.271 C 
BRANCH   6   7
HETATM    7  C   UNL     1       8.693  29.464  56.962  1.00  0.00    -0.033 A 
HETATM    8  C   UNL     1       9.883  30.211  57.005  1.00  0.00     0.010 A 
HETATM    9  C   UNL     1      10.197  30.976  58.132  1.00  0.00     0.024 A 
HETATM   10  C   UNL     1       9.329  30.999  59.221  1.00  0.00     0.034 A 
HETATM   11 CL   UNL     1       9.717  31.941  60.604  1.00  0.00    -0.084 Cl
HETATM   12  C   UNL     1       8.149  30.260  59.194  1.00  0.00     0.024 A 
HETATM   13  C   UNL     1       7.832  29.491  58.071  1.00  0.00     0.010 A 
ENDBRANCH   6   7
ENDBRANCH   3   6
ENDBRANCH   2   3
BRANCH   2  14
HETATM   14  C   UNL     1       6.387  26.599  54.749  1.00  0.00     0.138 A 
HETATM   15  N   UNL     1       6.626  25.584  55.522  1.00  0.00    -0.232 NA
HETATM   16  C   UNL     1       7.048  24.384  54.912  1.00  0.00     0.074 A 
HETATM   17  C   UNL     1       7.201  24.258  53.527  1.00  0.00     0.061 A 
HETATM   18  C   UNL     1       7.329  23.279  55.716  1.00  0.00     0.032 A 
HETATM   19  C   UNL     1       6.899  25.440  52.704  1.00  0.00     0.259 A 
HETATM   20  C   UNL     1       7.627  23.063  52.942  1.00  0.00     0.019 A 
HETATM   21  O   UNL     1       6.990  25.444  51.484  1.00  0.00    -0.267 OA
HETATM   22  N   UNL     1       6.502  26.561  53.391  1.00  0.00    -0.309 N 
HETATM   23  H   UNL     1       6.304  27.353  52.790  1.00  0.00     0.170 HD
HETATM   24  C   UNL     1       7.906  21.969  53.759  1.00  0.00     0.001 A 
HETATM   25  C   UNL     1       7.757  22.075  55.143  1.00  0.00     0.002 A 
ENDBRANCH   2  14
TORSDOF 4
ENDMDL
