MODEL 1
REMARK VINA RESULT:     -10.3      0.000      0.000
REMARK  6 active torsions:
REMARK  status: ('A' for Active; 'I' for Inactive)
REMARK    1  A    between atoms: C_4  and  C_5 
REMARK    2  A    between atoms: C_5  and  N_6 
REMARK    3  A    between atoms: C_10  and  C_11 
REMARK    4  A    between atoms: C_11  and  C_12 
REMARK    5  A    between atoms: N_21  and  C_22 
REMARK    6  A    between atoms: C_22  and  C_23 
ROOT
HETATM    1  C   UNL     1       5.348  29.434  55.623  1.00  0.00     0.164 A 
HETATM    2  N   UNL     1       6.679  29.248  55.063  1.00  0.00    -0.319 N 
HETATM    3  C   UNL     1       7.668  29.408  56.005  1.00  0.00     0.326 A 
HETATM    4  O   UNL     1       8.852  29.347  55.726  1.00  0.00    -0.247 OA
HETATM    5  N   UNL     1       7.094  29.592  57.218  1.00  0.00    -0.265 N 
HETATM    6  C   UNL     1       5.734  29.679  57.099  1.00  0.00     0.263 A 
HETATM    7  O   UNL     1       4.946  29.839  58.021  1.00  0.00    -0.270 OA
HETATM    8  H   UNL     1       6.887  29.646  54.150  1.00  0.00     0.166 HD
ENDROOT
BRANCH   1   9
HETATM    9  C   UNL     1       4.460  28.142  55.502  1.00  0.00     0.033 C 
HETATM   10  C   UNL     1       4.661  27.091  56.612  1.00  0.00     0.036 C 
HETATM   11  C   UNL     1       5.988  26.352  56.539  1.00  0.00     0.235 C 
HETATM   12  N   UNL     1       6.217  25.750  55.171  1.00  0.00    -0.067 N 
HETATM   13  H   UNL     1       5.601  24.931  55.121  1.00  0.00     0.280 HD
HETATM   14  C   UNL     1       5.894  26.642  53.992  1.00  0.00     0.235 C 
HETATM   15  C   UNL     1       4.575  27.376  54.170  1.00  0.00     0.036 C 
BRANCH  12  16
HETATM   16  C   UNL     1       7.645  25.225  55.017  1.00  0.00     0.274 C 
BRANCH  16  17
HETATM   17  C   UNL     1       7.760  23.794  54.556  1.00  0.00    -0.026 A 
HETATM   18  C   UNL     1       7.773  22.779  55.539  1.00  0.00     0.016 A 
HETATM   19  C   UNL     1       7.849  21.428  55.194  1.00  0.00    -0.061 A 
HETATM   20  C   UNL     1       7.892  20.361  56.250  1.00  0.00     0.048 C 
HETATM   21  C   UNL     1       7.936  21.083  53.846  1.00  0.00     0.007 A 
HETATM   22  C   UNL     1       7.935  22.073  52.861  1.00  0.00     0.008 A 
HETATM   23  C   UNL     1       7.837  23.433  53.197  1.00  0.00    -0.054 A 
HETATM   24  C   UNL     1       7.910  24.449  52.089  1.00  0.00     0.049 C 
ENDBRANCH  16  17
ENDBRANCH  12  16
ENDBRANCH   1   9
BRANCH   1  25
HETATM   25  C   UNL     1       4.705  30.641  54.948  1.00  0.00     0.072 A 
HETATM   26  N   UNL     1       5.029  31.850  55.502  1.00  0.00    -0.262 NA
HETATM   27  C   UNL     1       4.482  32.960  54.953  1.00  0.00     0.117 A 
HETATM   28  C   UNL     1       3.627  32.935  53.867  1.00  0.00     0.019 A 
HETATM   29  C   UNL     1       3.317  31.704  53.305  1.00  0.00     0.003 A 
HETATM   30  C   UNL     1       3.867  30.542  53.841  1.00  0.00     0.030 A 
ENDBRANCH   1  25
BRANCH   5  31
HETATM   31  C   UNL     1       7.816  29.559  58.479  1.00  0.00     0.168 C 
BRANCH  31  32
HETATM   32  C   UNL     1       8.143  30.978  58.965  1.00  0.00     0.140 C 
HETATM   33  O   UNL     1       7.164  31.445  59.925  1.00  0.00    -0.384 OA
HETATM   34  C   UNL     1       7.852  32.245  60.905  1.00  0.00     0.168 C 
HETATM   35  C   UNL     1       9.299  32.350  60.466  1.00  0.00     0.029 C 
HETATM   36  C   UNL     1       9.485  31.085  59.666  1.00  0.00     0.036 C 
ENDBRANCH  31  32
ENDBRANCH   5  31
TORSDOF 6
ENDMDL
MODEL 2
REMARK VINA RESULT:     -10.1      2.742      8.529
REMARK  6 active torsions:
REMARK  status: ('A' for Active; 'I' for Inactive)
REMARK    1  A    between atoms: C_4  and  C_5 
REMARK    2  A    between atoms: C_5  and  N_6 
REMARK    3  A    between atoms: C_10  and  C_11 
REMARK    4  A    between atoms: C_11  and  C_12 
REMARK    5  A    between atoms: N_21  and  C_22 
REMARK    6  A    between atoms: C_22  and  C_23 
ROOT
HETATM    1  C   UNL     1       6.654  25.067  54.856  1.00  0.00     0.164 A 
HETATM    2  N   UNL     1       7.648  26.082  54.536  1.00  0.00    -0.319 N 
HETATM    3  C   UNL     1       7.232  26.921  53.530  1.00  0.00     0.326 A 
HETATM    4  O   UNL     1       7.941  27.803  53.078  1.00  0.00    -0.247 OA
HETATM    5  N   UNL     1       5.954  26.613  53.201  1.00  0.00    -0.265 N 
HETATM    6  C   UNL     1       5.537  25.503  53.881  1.00  0.00     0.263 A 
HETATM    7  O   UNL     1       4.429  24.989  53.797  1.00  0.00    -0.270 OA
HETATM    8  H   UNL     1       8.628  25.812  54.492  1.00  0.00     0.166 HD
ENDROOT
BRANCH   1   9
HETATM    9  C   UNL     1       6.148  25.169  56.342  1.00  0.00     0.033 C 
HETATM   10  C   UNL     1       5.090  26.258  56.610  1.00  0.00     0.036 C 
HETATM   11  C   UNL     1       5.628  27.680  56.551  1.00  0.00     0.235 C 
HETATM   12  N   UNL     1       6.833  27.857  57.447  1.00  0.00    -0.067 N 
HETATM   13  H   UNL     1       6.466  27.889  58.405  1.00  0.00     0.280 HD
HETATM   14  C   UNL     1       7.871  26.758  57.389  1.00  0.00     0.235 C 
HETATM   15  C   UNL     1       7.243  25.373  57.406  1.00  0.00     0.036 C 
BRANCH  12  16
HETATM   16  C   UNL     1       7.523  29.201  57.205  1.00  0.00     0.274 C 
BRANCH  16  17
HETATM   17  C   UNL     1       7.435  30.185  58.344  1.00  0.00    -0.026 A 
HETATM   18  C   UNL     1       8.371  30.067  59.396  1.00  0.00     0.016 A 
HETATM   19  C   UNL     1       8.374  30.956  60.473  1.00  0.00    -0.061 A 
HETATM   20  C   UNL     1       9.355  30.801  61.600  1.00  0.00     0.048 C 
HETATM   21  C   UNL     1       7.416  31.967  60.514  1.00  0.00     0.007 A 
HETATM   22  C   UNL     1       6.477  32.093  59.488  1.00  0.00     0.008 A 
HETATM   23  C   UNL     1       6.478  31.218  58.390  1.00  0.00    -0.054 A 
HETATM   24  C   UNL     1       5.396  31.369  57.355  1.00  0.00     0.049 C 
ENDBRANCH  16  17
ENDBRANCH  12  16
ENDBRANCH   1   9
BRANCH   1  25
HETATM   25  C   UNL     1       7.244  23.697  54.540  1.00  0.00     0.072 A 
HETATM   26  N   UNL     1       7.225  22.808  55.581  1.00  0.00    -0.262 NA
HETATM   27  C   UNL     1       7.743  21.577  55.365  1.00  0.00     0.117 A 
HETATM   28  C   UNL     1       8.277  21.172  54.157  1.00  0.00     0.019 A 
HETATM   29  C   UNL     1       8.277  22.077  53.103  1.00  0.00     0.003 A 
HETATM   30  C   UNL     1       7.748  23.352  53.289  1.00  0.00     0.030 A 
ENDBRANCH   1  25
BRANCH   5  31
HETATM   31  C   UNL     1       5.107  27.433  52.351  1.00  0.00     0.168 C 
BRANCH  31  32
HETATM   32  C   UNL     1       5.443  27.220  50.868  1.00  0.00     0.140 C 
HETATM   33  O   UNL     1       4.659  26.143  50.299  1.00  0.00    -0.384 OA
HETATM   34  C   UNL     1       4.344  26.495  48.939  1.00  0.00     0.168 C 
HETATM   35  C   UNL     1       5.051  27.801  48.636  1.00  0.00     0.029 C 
HETATM   36  C   UNL     1       5.158  28.433  50.001  1.00  0.00     0.036 C 
ENDBRANCH  31  32
ENDBRANCH   5  31
TORSDOF 6
ENDMDL
MODEL 3
REMARK VINA RESULT:      -9.9      2.734      8.121
REMARK  6 active torsions:
REMARK  status: ('A' for Active; 'I' for Inactive)
REMARK    1  A    between atoms: C_4  and  C_5 
REMARK    2  A    between atoms: C_5  and  N_6 
REMARK    3  A    between atoms: C_10  and  C_11 
REMARK    4  A    between atoms: C_11  and  C_12 
REMARK    5  A    between atoms: N_21  and  C_22 
REMARK    6  A    between atoms: C_22  and  C_23 
ROOT
HETATM    1  C   UNL     1       6.892  24.464  54.735  1.00  0.00     0.164 A 
HETATM    2  N   UNL     1       7.970  25.309  54.243  1.00  0.00    -0.319 N 
HETATM    3  C   UNL     1       7.595  26.046  53.144  1.00  0.00     0.326 A 
HETATM    4  O   UNL     1       8.370  26.774  52.549  1.00  0.00    -0.247 OA
HETATM    5  N   UNL     1       6.277  25.840  52.906  1.00  0.00    -0.265 N 
HETATM    6  C   UNL     1       5.780  24.885  53.748  1.00  0.00     0.263 A 
HETATM    7  O   UNL     1       4.621  24.491  53.775  1.00  0.00    -0.270 OA
HETATM    8  H   UNL     1       8.913  24.928  54.202  1.00  0.00     0.166 HD
ENDROOT
BRANCH   1   9
HETATM    9  C   UNL     1       6.474  24.821  56.208  1.00  0.00     0.033 C 
HETATM   10  C   UNL     1       5.479  25.989  56.352  1.00  0.00     0.036 C 
HETATM   11  C   UNL     1       6.071  27.356  56.043  1.00  0.00     0.235 C 
HETATM   12  N   UNL     1       7.330  27.610  56.841  1.00  0.00    -0.067 N 
HETATM   13  H   UNL     1       7.018  27.810  57.798  1.00  0.00     0.280 HD
HETATM   14  C   UNL     1       8.316  26.465  56.907  1.00  0.00     0.235 C 
HETATM   15  C   UNL     1       7.634  25.133  57.173  1.00  0.00     0.036 C 
BRANCH  12  16
HETATM   16  C   UNL     1       8.061  28.864  56.357  1.00  0.00     0.274 C 
BRANCH  16  17
HETATM   17  C   UNL     1       8.356  29.890  57.421  1.00  0.00    -0.026 A 
HETATM   18  C   UNL     1       7.263  30.504  58.073  1.00  0.00     0.016 A 
HETATM   19  C   UNL     1       7.452  31.443  59.089  1.00  0.00    -0.061 A 
HETATM   20  C   UNL     1       6.281  32.110  59.753  1.00  0.00     0.048 C 
HETATM   21  C   UNL     1       8.752  31.795  59.445  1.00  0.00     0.007 A 
HETATM   22  C   UNL     1       9.845  31.207  58.805  1.00  0.00     0.008 A 
HETATM   23  C   UNL     1       9.666  30.246  57.797  1.00  0.00    -0.054 A 
HETATM   24  C   UNL     1      10.886  29.703  57.104  1.00  0.00     0.049 C 
ENDBRANCH  16  17
ENDBRANCH  12  16
ENDBRANCH   1   9
BRANCH   1  25
HETATM   25  C   UNL     1       7.318  23.006  54.593  1.00  0.00     0.072 A 
HETATM   26  N   UNL     1       7.367  22.304  55.767  1.00  0.00    -0.262 NA
HETATM   27  C   UNL     1       7.748  21.007  55.707  1.00  0.00     0.117 A 
HETATM   28  C   UNL     1       8.077  20.358  54.533  1.00  0.00     0.019 A 
HETATM   29  C   UNL     1       8.008  21.076  53.346  1.00  0.00     0.003 A 
HETATM   30  C   UNL     1       7.616  22.413  53.369  1.00  0.00     0.030 A 
ENDBRANCH   1  25
BRANCH   5  31
HETATM   31  C   UNL     1       5.480  26.626  51.979  1.00  0.00     0.168 C 
BRANCH  31  32
HETATM   32  C   UNL     1       5.164  28.011  52.561  1.00  0.00     0.140 C 
HETATM   33  O   UNL     1       5.323  29.051  51.565  1.00  0.00    -0.384 OA
HETATM   34  C   UNL     1       4.310  30.047  51.799  1.00  0.00     0.168 C 
HETATM   35  C   UNL     1       3.563  29.644  53.054  1.00  0.00     0.029 C 
HETATM   36  C   UNL     1       3.740  28.146  53.066  1.00  0.00     0.036 C 
ENDBRANCH  31  32
ENDBRANCH   5  31
TORSDOF 6
ENDMDL
MODEL 4
REMARK VINA RESULT:      -9.8      3.808      7.211
REMARK  6 active torsions:
REMARK  status: ('A' for Active; 'I' for Inactive)
REMARK    1  A    between atoms: C_4  and  C_5 
REMARK    2  A    between atoms: C_5  and  N_6 
REMARK    3  A    between atoms: C_10  and  C_11 
REMARK    4  A    between atoms: C_11  and  C_12 
REMARK    5  A    between atoms: N_21  and  C_22 
REMARK    6  A    between atoms: C_22  and  C_23 
ROOT
HETATM    1  C   UNL     1       6.647  27.076  54.760  1.00  0.00     0.164 A 
HETATM    2  N   UNL     1       7.400  26.911  53.525  1.00  0.00    -0.319 N 
HETATM    3  C   UNL     1       7.707  25.594  53.274  1.00  0.00     0.326 A 
HETATM    4  O   UNL     1       8.381  25.250  52.319  1.00  0.00    -0.247 OA
HETATM    5  N   UNL     1       7.116  24.818  54.214  1.00  0.00    -0.265 N 
HETATM    6  C   UNL     1       6.513  25.591  55.167  1.00  0.00     0.263 A 
HETATM    7  O   UNL     1       5.895  25.175  56.137  1.00  0.00    -0.270 OA
HETATM    8  H   UNL     1       8.143  27.572  53.311  1.00  0.00     0.166 HD
ENDROOT
BRANCH   1   9
HETATM    9  C   UNL     1       5.224  27.701  54.516  1.00  0.00     0.033 C 
HETATM   10  C   UNL     1       4.254  26.842  53.681  1.00  0.00     0.036 C 
HETATM   11  C   UNL     1       4.616  26.745  52.207  1.00  0.00     0.235 C 
HETATM   12  N   UNL     1       4.803  28.112  51.588  1.00  0.00    -0.067 N 
HETATM   13  H   UNL     1       3.859  28.497  51.473  1.00  0.00     0.280 HD
HETATM   14  C   UNL     1       5.608  29.103  52.400  1.00  0.00     0.235 C 
HETATM   15  C   UNL     1       5.213  29.100  53.868  1.00  0.00     0.036 C 
BRANCH  12  16
HETATM   16  C   UNL     1       5.404  28.019  50.185  1.00  0.00     0.274 C 
BRANCH  16  17
HETATM   17  C   UNL     1       4.439  27.631  49.094  1.00  0.00    -0.026 A 
HETATM   18  C   UNL     1       4.110  26.264  48.954  1.00  0.00     0.016 A 
HETATM   19  C   UNL     1       3.202  25.826  47.987  1.00  0.00    -0.061 A 
HETATM   20  C   UNL     1       2.885  24.366  47.829  1.00  0.00     0.048 C 
HETATM   21  C   UNL     1       2.630  26.763  47.129  1.00  0.00     0.007 A 
HETATM   22  C   UNL     1       2.950  28.117  47.246  1.00  0.00     0.008 A 
HETATM   23  C   UNL     1       3.845  28.571  48.228  1.00  0.00    -0.054 A 
HETATM   24  C   UNL     1       4.197  30.034  48.253  1.00  0.00     0.049 C 
ENDBRANCH  16  17
ENDBRANCH  12  16
ENDBRANCH   1   9
BRANCH   1  25
HETATM   25  C   UNL     1       7.483  27.905  55.728  1.00  0.00     0.072 A 
HETATM   26  N   UNL     1       8.484  28.635  55.146  1.00  0.00    -0.262 NA
HETATM   27  C   UNL     1       9.267  29.385  55.956  1.00  0.00     0.117 A 
HETATM   28  C   UNL     1       9.105  29.457  57.326  1.00  0.00     0.019 A 
HETATM   29  C   UNL     1       8.076  28.724  57.904  1.00  0.00     0.003 A 
HETATM   30  C   UNL     1       7.247  27.945  57.100  1.00  0.00     0.030 A 
ENDBRANCH   1  25
BRANCH   5  31
HETATM   31  C   UNL     1       7.020  23.369  54.138  1.00  0.00     0.168 C 
BRANCH  31  32
HETATM   32  C   UNL     1       8.179  22.700  54.891  1.00  0.00     0.140 C 
HETATM   33  O   UNL     1       7.874  22.546  56.299  1.00  0.00    -0.384 OA
HETATM   34  C   UNL     1       8.452  21.305  56.744  1.00  0.00     0.168 C 
HETATM   35  C   UNL     1       9.226  20.724  55.578  1.00  0.00     0.029 C 
HETATM   36  C   UNL     1       8.500  21.304  54.389  1.00  0.00     0.036 C 
ENDBRANCH  31  32
ENDBRANCH   5  31
TORSDOF 6
ENDMDL
MODEL 5
REMARK VINA RESULT:      -9.7      2.433      7.964
REMARK  6 active torsions:
REMARK  status: ('A' for Active; 'I' for Inactive)
REMARK    1  A    between atoms: C_4  and  C_5 
REMARK    2  A    between atoms: C_5  and  N_6 
REMARK    3  A    between atoms: C_10  and  C_11 
REMARK    4  A    between atoms: C_11  and  C_12 
REMARK    5  A    between atoms: N_21  and  C_22 
REMARK    6  A    between atoms: C_22  and  C_23 
ROOT
HETATM    1  C   UNL     1       6.631  25.034  54.902  1.00  0.00     0.164 A 
HETATM    2  N   UNL     1       7.702  25.981  54.627  1.00  0.00    -0.319 N 
HETATM    3  C   UNL     1       7.398  26.824  53.584  1.00  0.00     0.326 A 
HETATM    4  O   UNL     1       8.185  27.653  53.162  1.00  0.00    -0.247 OA
HETATM    5  N   UNL     1       6.126  26.585  53.182  1.00  0.00    -0.265 N 
HETATM    6  C   UNL     1       5.602  25.516  53.854  1.00  0.00     0.263 A 
HETATM    7  O   UNL     1       4.473  25.067  53.710  1.00  0.00    -0.270 OA
HETATM    8  H   UNL     1       8.664  25.653  54.647  1.00  0.00     0.166 HD
ENDROOT
BRANCH   1   9
HETATM    9  C   UNL     1       6.043  25.195  56.352  1.00  0.00     0.033 C 
HETATM   10  C   UNL     1       5.024  26.338  56.533  1.00  0.00     0.036 C 
HETATM   11  C   UNL     1       5.631  27.731  56.476  1.00  0.00     0.235 C 
HETATM   12  N   UNL     1       6.788  27.875  57.438  1.00  0.00    -0.067 N 
HETATM   13  H   UNL     1       6.367  27.948  58.371  1.00  0.00     0.280 HD
HETATM   14  C   UNL     1       7.774  26.728  57.466  1.00  0.00     0.235 C 
HETATM   15  C   UNL     1       7.082  25.374  57.476  1.00  0.00     0.036 C 
BRANCH  12  16
HETATM   16  C   UNL     1       7.553  29.179  57.209  1.00  0.00     0.274 C 
BRANCH  16  17
HETATM   17  C   UNL     1       7.462  30.186  58.328  1.00  0.00    -0.026 A 
HETATM   18  C   UNL     1       8.371  30.069  59.403  1.00  0.00     0.016 A 
HETATM   19  C   UNL     1       8.370  30.977  60.463  1.00  0.00    -0.061 A 
HETATM   20  C   UNL     1       9.323  30.823  61.614  1.00  0.00     0.048 C 
HETATM   21  C   UNL     1       7.432  32.008  60.464  1.00  0.00     0.007 A 
HETATM   22  C   UNL     1       6.519  32.134  59.415  1.00  0.00     0.008 A 
HETATM   23  C   UNL     1       6.525  31.239  58.334  1.00  0.00    -0.054 A 
HETATM   24  C   UNL     1       5.470  31.393  57.273  1.00  0.00     0.049 C 
ENDBRANCH  16  17
ENDBRANCH  12  16
ENDBRANCH   1   9
BRANCH   1  25
HETATM   25  C   UNL     1       7.154  23.625  54.645  1.00  0.00     0.072 A 
HETATM   26  N   UNL     1       7.385  23.328  53.329  1.00  0.00    -0.262 NA
HETATM   27  C   UNL     1       7.842  22.088  53.035  1.00  0.00     0.117 A 
HETATM   28  C   UNL     1       8.093  21.119  53.988  1.00  0.00     0.019 A 
HETATM   29  C   UNL     1       7.870  21.437  55.321  1.00  0.00     0.003 A 
HETATM   30  C   UNL     1       7.405  22.706  55.660  1.00  0.00     0.030 A 
ENDBRANCH   1  25
BRANCH   5  31
HETATM   31  C   UNL     1       5.383  27.437  52.269  1.00  0.00     0.168 C 
BRANCH  31  32
HETATM   32  C   UNL     1       5.056  28.789  52.918  1.00  0.00     0.140 C 
HETATM   33  O   UNL     1       4.995  29.848  51.931  1.00  0.00    -0.384 OA
HETATM   34  C   UNL     1       3.957  30.764  52.327  1.00  0.00     0.168 C 
HETATM   35  C   UNL     1       3.429  30.295  53.667  1.00  0.00     0.029 C 
HETATM   36  C   UNL     1       3.712  28.813  53.623  1.00  0.00     0.036 C 
ENDBRANCH  31  32
ENDBRANCH   5  31
TORSDOF 6
ENDMDL
MODEL 6
REMARK VINA RESULT:      -9.5      1.840      2.838
REMARK  6 active torsions:
REMARK  status: ('A' for Active; 'I' for Inactive)
REMARK    1  A    between atoms: C_4  and  C_5 
REMARK    2  A    between atoms: C_5  and  N_6 
REMARK    3  A    between atoms: C_10  and  C_11 
REMARK    4  A    between atoms: C_11  and  C_12 
REMARK    5  A    between atoms: N_21  and  C_22 
REMARK    6  A    between atoms: C_22  and  C_23 
ROOT
HETATM    1  C   UNL     1       5.212  28.071  53.290  1.00  0.00     0.164 A 
HETATM    2  N   UNL     1       6.613  28.253  52.940  1.00  0.00    -0.319 N 
HETATM    3  C   UNL     1       7.439  28.175  54.036  1.00  0.00     0.326 A 
HETATM    4  O   UNL     1       8.642  28.355  53.964  1.00  0.00    -0.247 OA
HETATM    5  N   UNL     1       6.699  27.842  55.121  1.00  0.00    -0.265 N 
HETATM    6  C   UNL     1       5.369  27.810  54.805  1.00  0.00     0.263 A 
HETATM    7  O   UNL     1       4.459  27.535  55.576  1.00  0.00    -0.270 OA
HETATM    8  H   UNL     1       6.861  28.975  52.267  1.00  0.00     0.166 HD
ENDROOT
BRANCH   1   9
HETATM    9  C   UNL     1       4.575  26.816  52.587  1.00  0.00     0.033 C 
HETATM   10  C   UNL     1       4.450  25.555  53.464  1.00  0.00     0.036 C 
HETATM   11  C   UNL     1       5.776  24.878  53.778  1.00  0.00     0.235 C 
HETATM   12  N   UNL     1       6.567  24.592  52.521  1.00  0.00    -0.067 N 
HETATM   13  H   UNL     1       6.105  23.790  52.078  1.00  0.00     0.280 HD
HETATM   14  C   UNL     1       6.623  25.710  51.504  1.00  0.00     0.235 C 
HETATM   15  C   UNL     1       5.265  26.359  51.287  1.00  0.00     0.036 C 
BRANCH  12  16
HETATM   16  C   UNL     1       7.993  24.144  52.842  1.00  0.00     0.274 C 
BRANCH  16  17
HETATM   17  C   UNL     1       8.156  23.386  54.135  1.00  0.00    -0.026 A 
HETATM   18  C   UNL     1       8.419  24.127  55.309  1.00  0.00     0.016 A 
HETATM   19  C   UNL     1       8.555  23.503  56.551  1.00  0.00    -0.061 A 
HETATM   20  C   UNL     1       8.865  24.299  57.787  1.00  0.00     0.048 C 
HETATM   21  C   UNL     1       8.450  22.115  56.621  1.00  0.00     0.007 A 
HETATM   22  C   UNL     1       8.200  21.365  55.470  1.00  0.00     0.008 A 
HETATM   23  C   UNL     1       8.041  21.985  54.220  1.00  0.00    -0.054 A 
HETATM   24  C   UNL     1       7.841  21.112  53.011  1.00  0.00     0.049 C 
ENDBRANCH  16  17
ENDBRANCH  12  16
ENDBRANCH   1   9
BRANCH   1  25
HETATM   25  C   UNL     1       4.461  29.357  52.964  1.00  0.00     0.072 A 
HETATM   26  N   UNL     1       3.923  30.000  54.046  1.00  0.00    -0.262 NA
HETATM   27  C   UNL     1       3.236  31.144  53.820  1.00  0.00     0.117 A 
HETATM   28  C   UNL     1       3.059  31.696  52.566  1.00  0.00     0.019 A 
HETATM   29  C   UNL     1       3.623  31.044  51.477  1.00  0.00     0.003 A 
HETATM   30  C   UNL     1       4.341  29.866  51.674  1.00  0.00     0.030 A 
ENDBRANCH   1  25
BRANCH   5  31
HETATM   31  C   UNL     1       7.258  27.440  56.401  1.00  0.00     0.168 C 
BRANCH  31  32
HETATM   32  C   UNL     1       6.975  28.492  57.482  1.00  0.00     0.140 C 
HETATM   33  O   UNL     1       8.021  28.513  58.484  1.00  0.00    -0.384 OA
HETATM   34  C   UNL     1       8.207  29.879  58.902  1.00  0.00     0.168 C 
HETATM   35  C   UNL     1       7.160  30.714  58.193  1.00  0.00     0.029 C 
HETATM   36  C   UNL     1       6.899  29.909  56.944  1.00  0.00     0.036 C 
ENDBRANCH  31  32
ENDBRANCH   5  31
TORSDOF 6
ENDMDL
MODEL 7
REMARK VINA RESULT:      -9.2      2.006      3.043
REMARK  6 active torsions:
REMARK  status: ('A' for Active; 'I' for Inactive)
REMARK    1  A    between atoms: C_4  and  C_5 
REMARK    2  A    between atoms: C_5  and  N_6 
REMARK    3  A    between atoms: C_10  and  C_11 
REMARK    4  A    between atoms: C_11  and  C_12 
REMARK    5  A    between atoms: N_21  and  C_22 
REMARK    6  A    between atoms: C_22  and  C_23 
ROOT
HETATM    1  C   UNL     1       5.370  28.377  53.027  1.00  0.00     0.164 A 
HETATM    2  N   UNL     1       6.806  28.408  53.267  1.00  0.00    -0.319 N 
HETATM    3  C   UNL     1       7.111  28.746  54.564  1.00  0.00     0.326 A 
HETATM    4  O   UNL     1       8.258  28.880  54.952  1.00  0.00    -0.247 OA
HETATM    5  N   UNL     1       5.961  28.851  55.273  1.00  0.00    -0.265 N 
HETATM    6  C   UNL     1       4.876  28.707  54.454  1.00  0.00     0.263 A 
HETATM    7  O   UNL     1       3.705  28.748  54.807  1.00  0.00    -0.270 OA
HETATM    8  H   UNL     1       7.412  28.820  52.562  1.00  0.00     0.166 HD
ENDROOT
BRANCH   1   9
HETATM    9  C   UNL     1       4.863  26.952  52.594  1.00  0.00     0.033 C 
HETATM   10  C   UNL     1       4.499  25.998  53.749  1.00  0.00     0.036 C 
HETATM   11  C   UNL     1       5.695  25.484  54.535  1.00  0.00     0.235 C 
HETATM   12  N   UNL     1       6.737  24.870  53.628  1.00  0.00    -0.067 N 
HETATM   13  H   UNL     1       6.358  23.959  53.345  1.00  0.00     0.280 HD
HETATM   14  C   UNL     1       7.060  25.645  52.370  1.00  0.00     0.235 C 
HETATM   15  C   UNL     1       5.811  26.160  51.674  1.00  0.00     0.036 C 
BRANCH  12  16
HETATM   16  C   UNL     1       8.038  24.581  54.378  1.00  0.00     0.274 C 
BRANCH  16  17
HETATM   17  C   UNL     1       8.304  23.126  54.672  1.00  0.00    -0.026 A 
HETATM   18  C   UNL     1       8.339  22.225  53.583  1.00  0.00     0.016 A 
HETATM   19  C   UNL     1       8.607  20.867  53.768  1.00  0.00    -0.061 A 
HETATM   20  C   UNL     1       8.612  19.915  52.605  1.00  0.00     0.048 C 
HETATM   21  C   UNL     1       8.821  20.394  55.060  1.00  0.00     0.007 A 
HETATM   22  C   UNL     1       8.780  21.267  56.150  1.00  0.00     0.008 A 
HETATM   23  C   UNL     1       8.532  22.638  55.973  1.00  0.00    -0.054 A 
HETATM   24  C   UNL     1       8.435  23.509  57.196  1.00  0.00     0.049 C 
ENDBRANCH  16  17
ENDBRANCH  12  16
ENDBRANCH   1   9
BRANCH   1  25
HETATM   25  C   UNL     1       5.029  29.448  51.997  1.00  0.00     0.072 A 
HETATM   26  N   UNL     1       5.939  29.582  50.983  1.00  0.00    -0.262 NA
HETATM   27  C   UNL     1       5.697  30.524  50.042  1.00  0.00     0.117 A 
HETATM   28  C   UNL     1       4.584  31.343  50.047  1.00  0.00     0.019 A 
HETATM   29  C   UNL     1       3.660  31.188  51.071  1.00  0.00     0.003 A 
HETATM   30  C   UNL     1       3.875  30.225  52.055  1.00  0.00     0.030 A 
ENDBRANCH   1  25
BRANCH   5  31
HETATM   31  C   UNL     1       5.900  28.960  56.721  1.00  0.00     0.168 C 
BRANCH  31  32
HETATM   32  C   UNL     1       5.933  30.429  57.166  1.00  0.00     0.140 C 
HETATM   33  O   UNL     1       4.647  30.855  57.678  1.00  0.00    -0.384 OA
HETATM   34  C   UNL     1       4.884  31.771  58.764  1.00  0.00     0.168 C 
HETATM   35  C   UNL     1       6.381  31.988  58.852  1.00  0.00     0.029 C 
HETATM   36  C   UNL     1       6.926  30.703  58.280  1.00  0.00     0.036 C 
ENDBRANCH  31  32
ENDBRANCH   5  31
TORSDOF 6
ENDMDL
MODEL 8
REMARK VINA RESULT:      -9.1      2.737      8.355
REMARK  6 active torsions:
REMARK  status: ('A' for Active; 'I' for Inactive)
REMARK    1  A    between atoms: C_4  and  C_5 
REMARK    2  A    between atoms: C_5  and  N_6 
REMARK    3  A    between atoms: C_10  and  C_11 
REMARK    4  A    between atoms: C_11  and  C_12 
REMARK    5  A    between atoms: N_21  and  C_22 
REMARK    6  A    between atoms: C_22  and  C_23 
ROOT
HETATM    1  C   UNL     1       6.767  25.230  55.050  1.00  0.00     0.164 A 
HETATM    2  N   UNL     1       7.650  26.357  54.785  1.00  0.00    -0.319 N 
HETATM    3  C   UNL     1       7.186  27.154  53.765  1.00  0.00     0.326 A 
HETATM    4  O   UNL     1       7.808  28.117  53.353  1.00  0.00    -0.247 OA
HETATM    5  N   UNL     1       5.969  26.703  53.374  1.00  0.00    -0.265 N 
HETATM    6  C   UNL     1       5.653  25.544  54.027  1.00  0.00     0.263 A 
HETATM    7  O   UNL     1       4.618  24.907  53.886  1.00  0.00    -0.270 OA
HETATM    8  H   UNL     1       8.655  26.202  54.785  1.00  0.00     0.166 HD
ENDROOT
BRANCH   1   9
HETATM    9  C   UNL     1       6.184  25.255  56.511  1.00  0.00     0.033 C 
HETATM   10  C   UNL     1       4.804  25.925  56.664  1.00  0.00     0.036 C 
HETATM   11  C   UNL     1       4.822  27.437  56.498  1.00  0.00     0.235 C 
HETATM   12  N   UNL     1       5.847  28.084  57.403  1.00  0.00    -0.067 N 
HETATM   13  H   UNL     1       5.444  28.055  58.346  1.00  0.00     0.280 HD
HETATM   14  C   UNL     1       7.200  27.412  57.459  1.00  0.00     0.235 C 
HETATM   15  C   UNL     1       7.088  25.901  57.578  1.00  0.00     0.036 C 
BRANCH  12  16
HETATM   16  C   UNL     1       6.043  29.563  57.064  1.00  0.00     0.274 C 
BRANCH  16  17
HETATM   17  C   UNL     1       4.898  30.214  56.331  1.00  0.00    -0.026 A 
HETATM   18  C   UNL     1       4.960  30.272  54.920  1.00  0.00     0.016 A 
HETATM   19  C   UNL     1       3.928  30.834  54.166  1.00  0.00    -0.061 A 
HETATM   20  C   UNL     1       4.021  30.916  52.669  1.00  0.00     0.048 C 
HETATM   21  C   UNL     1       2.825  31.367  54.829  1.00  0.00     0.007 A 
HETATM   22  C   UNL     1       2.749  31.328  56.223  1.00  0.00     0.008 A 
HETATM   23  C   UNL     1       3.772  30.747  56.990  1.00  0.00    -0.054 A 
HETATM   24  C   UNL     1       3.658  30.800  58.489  1.00  0.00     0.049 C 
ENDBRANCH  16  17
ENDBRANCH  12  16
ENDBRANCH   1   9
BRANCH   1  25
HETATM   25  C   UNL     1       7.526  23.941  54.754  1.00  0.00     0.072 A 
HETATM   26  N   UNL     1       7.793  23.165  55.850  1.00  0.00    -0.262 NA
HETATM   27  C   UNL     1       8.473  22.012  55.652  1.00  0.00     0.117 A 
HETATM   28  C   UNL     1       8.900  21.577  54.412  1.00  0.00     0.019 A 
HETATM   29  C   UNL     1       8.610  22.365  53.306  1.00  0.00     0.003 A 
HETATM   30  C   UNL     1       7.907  23.556  53.472  1.00  0.00     0.030 A 
ENDBRANCH   1  25
BRANCH   5  31
HETATM   31  C   UNL     1       5.073  27.430  52.489  1.00  0.00     0.168 C 
BRANCH  31  32
HETATM   32  C   UNL     1       5.454  27.212  51.018  1.00  0.00     0.140 C 
HETATM   33  O   UNL     1       4.715  26.108  50.440  1.00  0.00    -0.384 OA
HETATM   34  C   UNL     1       4.427  26.439  49.068  1.00  0.00     0.168 C 
HETATM   35  C   UNL     1       5.106  27.761  48.771  1.00  0.00     0.029 C 
HETATM   36  C   UNL     1       5.159  28.408  50.132  1.00  0.00     0.036 C 
ENDBRANCH  31  32
ENDBRANCH   5  31
TORSDOF 6
ENDMDL
MODEL 9
REMARK VINA RESULT:      -9.0      2.218      7.490
REMARK  6 active torsions:
REMARK  status: ('A' for Active; 'I' for Inactive)
REMARK    1  A    between atoms: C_4  and  C_5 
REMARK    2  A    between atoms: C_5  and  N_6 
REMARK    3  A    between atoms: C_10  and  C_11 
REMARK    4  A    between atoms: C_11  and  C_12 
REMARK    5  A    between atoms: N_21  and  C_22 
REMARK    6  A    between atoms: C_22  and  C_23 
ROOT
HETATM    1  C   UNL     1       7.170  24.216  54.762  1.00  0.00     0.164 A 
HETATM    2  N   UNL     1       5.814  24.338  55.278  1.00  0.00    -0.319 N 
HETATM    3  C   UNL     1       5.769  25.027  56.467  1.00  0.00     0.326 A 
HETATM    4  O   UNL     1       4.734  25.190  57.089  1.00  0.00    -0.247 OA
HETATM    5  N   UNL     1       7.010  25.486  56.757  1.00  0.00    -0.265 N 
HETATM    6  C   UNL     1       7.919  25.020  55.848  1.00  0.00     0.263 A 
HETATM    7  O   UNL     1       9.118  25.268  55.847  1.00  0.00    -0.270 OA
HETATM    8  H   UNL     1       5.194  23.533  55.225  1.00  0.00     0.166 HD
ENDROOT
BRANCH   1   9
HETATM    9  C   UNL     1       7.344  24.907  53.360  1.00  0.00     0.033 C 
HETATM   10  C   UNL     1       7.611  26.425  53.395  1.00  0.00     0.036 C 
HETATM   11  C   UNL     1       6.410  27.261  53.812  1.00  0.00     0.235 C 
HETATM   12  N   UNL     1       5.192  26.941  52.976  1.00  0.00    -0.067 N 
HETATM   13  H   UNL     1       5.356  27.382  52.064  1.00  0.00     0.280 HD
HETATM   14  C   UNL     1       4.920  25.473  52.735  1.00  0.00     0.235 C 
HETATM   15  C   UNL     1       6.180  24.706  52.369  1.00  0.00     0.036 C 
BRANCH  12  16
HETATM   16  C   UNL     1       3.930  27.591  53.547  1.00  0.00     0.274 C 
BRANCH  16  17
HETATM   17  C   UNL     1       3.617  28.967  53.018  1.00  0.00    -0.026 A 
HETATM   18  C   UNL     1       3.070  29.070  51.719  1.00  0.00     0.016 A 
HETATM   19  C   UNL     1       2.726  30.306  51.167  1.00  0.00    -0.061 A 
HETATM   20  C   UNL     1       2.173  30.404  49.774  1.00  0.00     0.048 C 
HETATM   21  C   UNL     1       2.952  31.461  51.913  1.00  0.00     0.007 A 
HETATM   22  C   UNL     1       3.501  31.380  53.195  1.00  0.00     0.008 A 
HETATM   23  C   UNL     1       3.831  30.141  53.767  1.00  0.00    -0.054 A 
HETATM   24  C   UNL     1       4.481  30.132  55.124  1.00  0.00     0.049 C 
ENDBRANCH  16  17
ENDBRANCH  12  16
ENDBRANCH   1   9
BRANCH   1  25
HETATM   25  C   UNL     1       7.542  22.738  54.727  1.00  0.00     0.072 A 
HETATM   26  N   UNL     1       7.604  22.130  55.952  1.00  0.00    -0.262 NA
HETATM   27  C   UNL     1       7.939  20.819  55.987  1.00  0.00     0.117 A 
HETATM   28  C   UNL     1       8.210  20.068  54.859  1.00  0.00     0.019 A 
HETATM   29  C   UNL     1       8.128  20.690  53.621  1.00  0.00     0.003 A 
HETATM   30  C   UNL     1       7.781  22.038  53.547  1.00  0.00     0.030 A 
ENDBRANCH   1  25
BRANCH   5  31
HETATM   31  C   UNL     1       7.302  26.451  57.804  1.00  0.00     0.168 C 
BRANCH  31  32
HETATM   32  C   UNL     1       7.421  27.870  57.230  1.00  0.00     0.140 C 
HETATM   33  O   UNL     1       6.502  28.781  57.881  1.00  0.00    -0.384 OA
HETATM   34  C   UNL     1       7.149  30.063  57.985  1.00  0.00     0.168 C 
HETATM   35  C   UNL     1       8.485  29.953  57.278  1.00  0.00     0.029 C 
HETATM   36  C   UNL     1       8.798  28.483  57.410  1.00  0.00     0.036 C 
ENDBRANCH  31  32
ENDBRANCH   5  31
TORSDOF 6
ENDMDL
MODEL 10
REMARK VINA RESULT:      -8.6      2.355      5.099
REMARK  6 active torsions:
REMARK  status: ('A' for Active; 'I' for Inactive)
REMARK    1  A    between atoms: C_4  and  C_5 
REMARK    2  A    between atoms: C_5  and  N_6 
REMARK    3  A    between atoms: C_10  and  C_11 
REMARK    4  A    between atoms: C_11  and  C_12 
REMARK    5  A    between atoms: N_21  and  C_22 
REMARK    6  A    between atoms: C_22  and  C_23 
ROOT
HETATM    1  C   UNL     1       5.348  28.407  56.425  1.00  0.00     0.164 A 
HETATM    2  N   UNL     1       4.125  28.257  55.649  1.00  0.00    -0.319 N 
HETATM    3  C   UNL     1       4.367  28.223  54.296  1.00  0.00     0.326 A 
HETATM    4  O   UNL     1       3.470  28.158  53.473  1.00  0.00    -0.247 OA
HETATM    5  N   UNL     1       5.706  28.233  54.088  1.00  0.00    -0.265 N 
HETATM    6  C   UNL     1       6.375  28.395  55.269  1.00  0.00     0.263 A 
HETATM    7  O   UNL     1       7.591  28.437  55.400  1.00  0.00    -0.270 OA
HETATM    8  H   UNL     1       3.302  28.788  55.925  1.00  0.00     0.166 HD
ENDROOT
BRANCH   1   9
HETATM    9  C   UNL     1       5.602  27.189  57.387  1.00  0.00     0.033 C 
HETATM   10  C   UNL     1       7.068  26.972  57.813  1.00  0.00     0.036 C 
HETATM   11  C   UNL     1       7.972  26.460  56.703  1.00  0.00     0.235 C 
HETATM   12  N   UNL     1       7.405  25.219  56.050  1.00  0.00    -0.067 N 
HETATM   13  H   UNL     1       7.563  24.456  56.718  1.00  0.00     0.280 HD
HETATM   14  C   UNL     1       5.927  25.254  55.732  1.00  0.00     0.235 C 
HETATM   15  C   UNL     1       5.104  25.822  56.877  1.00  0.00     0.036 C 
BRANCH  12  16
HETATM   16  C   UNL     1       8.175  24.847  54.782  1.00  0.00     0.274 C 
BRANCH  16  17
HETATM   17  C   UNL     1       8.117  23.391  54.396  1.00  0.00    -0.026 A 
HETATM   18  C   UNL     1       8.280  22.427  55.416  1.00  0.00     0.016 A 
HETATM   19  C   UNL     1       8.211  21.058  55.145  1.00  0.00    -0.061 A 
HETATM   20  C   UNL     1       8.415  20.044  56.234  1.00  0.00     0.048 C 
HETATM   21  C   UNL     1       7.999  20.643  53.832  1.00  0.00     0.007 A 
HETATM   22  C   UNL     1       7.846  21.581  52.809  1.00  0.00     0.008 A 
HETATM   23  C   UNL     1       7.893  22.959  53.073  1.00  0.00    -0.054 A 
HETATM   24  C   UNL     1       7.788  23.913  51.914  1.00  0.00     0.049 C 
ENDBRANCH  16  17
ENDBRANCH  12  16
ENDBRANCH   1   9
BRANCH   1  25
HETATM   25  C   UNL     1       5.286  29.732  57.176  1.00  0.00     0.072 A 
HETATM   26  N   UNL     1       4.026  30.242  57.339  1.00  0.00    -0.262 NA
HETATM   27  C   UNL     1       3.906  31.423  57.990  1.00  0.00     0.117 A 
HETATM   28  C   UNL     1       4.978  32.128  58.502  1.00  0.00     0.019 A 
HETATM   29  C   UNL     1       6.250  31.593  58.344  1.00  0.00     0.003 A 
HETATM   30  C   UNL     1       6.410  30.377  57.683  1.00  0.00     0.030 A 
ENDBRANCH   1  25
BRANCH   5  31
HETATM   31  C   UNL     1       6.336  27.968  52.806  1.00  0.00     0.168 C 
BRANCH  31  32
HETATM   32  C   UNL     1       5.287  27.661  51.728  1.00  0.00     0.140 C 
HETATM   33  O   UNL     1       5.380  28.592  50.621  1.00  0.00    -0.384 OA
HETATM   34  C   UNL     1       5.085  27.871  49.410  1.00  0.00     0.168 C 
HETATM   35  C   UNL     1       4.699  26.460  49.808  1.00  0.00     0.029 C 
HETATM   36  C   UNL     1       5.435  26.282  51.113  1.00  0.00     0.036 C 
ENDBRANCH  31  32
ENDBRANCH   5  31
TORSDOF 6
ENDMDL
