MODEL 1
REMARK VINA RESULT:      -8.4      0.000      0.000
REMARK  6 active torsions:
REMARK  status: ('A' for Active; 'I' for Inactive)
REMARK    1  A    between atoms: N_2  and  C_4 
REMARK    2  A    between atoms: N_2  and  C_16 
REMARK    3  A    between atoms: C_4  and  C_5 
REMARK       I    between atoms: C_5  and  N_6 
REMARK    4  A    between atoms: N_6  and  C_7 
REMARK    5  A    between atoms: C_16  and  C_17 
REMARK    6  A    between atoms: C_18  and  C_19 
ROOT
HETATM    1  C   UNL     1       7.672  27.937  53.978  1.00  0.00     0.270 C 
HETATM    2  N   UNL     1       6.195  27.760  54.197  1.00  0.00    -0.063 N 
HETATM    3  H   UNL     1       5.725  28.488  53.644  1.00  0.00     0.280 HD
ENDROOT
BRANCH   2   4
HETATM    4  C   UNL     1       5.678  26.419  53.653  1.00  0.00     0.337 C 
BRANCH   4   5
HETATM    5  C   UNL     1       6.269  25.968  52.320  1.00  0.00     0.248 C 
HETATM    6  N   UNL     1       7.108  24.899  52.220  1.00  0.00    -0.326 N 
HETATM    7  H   UNL     1       7.374  24.751  51.248  1.00  0.00     0.169 HD
HETATM    8  O   UNL     1       5.991  26.575  51.281  1.00  0.00    -0.271 OA
BRANCH   6   9
HETATM    9  C   UNL     1       7.658  23.979  53.135  1.00  0.00     0.040 A 
HETATM   10  C   UNL     1       8.195  24.283  54.385  1.00  0.00     0.072 A 
HETATM   11  C   UNL     1       8.696  23.262  55.200  1.00  0.00     0.121 A 
HETATM   12  F   UNL     1       9.199  23.587  56.399  1.00  0.00    -0.206 F 
HETATM   13  C   UNL     1       8.688  21.937  54.802  1.00  0.00     0.084 A 
HETATM   14  C   UNL     1       8.168  21.636  53.557  1.00  0.00     0.121 A 
HETATM   15  F   UNL     1       8.147  20.366  53.137  1.00  0.00    -0.206 F 
HETATM   16  C   UNL     1       7.659  22.636  52.727  1.00  0.00     0.072 A 
ENDBRANCH   6   9
ENDBRANCH   4   5
ENDBRANCH   2   4
BRANCH   2  17
HETATM   17  C   UNL     1       5.788  28.019  55.634  1.00  0.00     0.277 C 
BRANCH  17  18
HETATM   18  C   UNL     1       6.476  27.116  56.596  1.00  0.00     0.016 A 
HETATM   19  C   UNL     1       7.593  27.358  57.452  1.00  0.00     0.103 A 
HETATM   20  N   UNL     1       7.900  26.264  58.161  1.00  0.00    -0.173 NA
HETATM   21  N   UNL     1       6.986  25.354  57.816  1.00  0.00    -0.288 N 
HETATM   22  H   UNL     1       7.017  24.441  58.269  1.00  0.00     0.188 HD
HETATM   23  C   UNL     1       6.121  25.805  56.867  1.00  0.00     0.120 A 
BRANCH  19  24
HETATM   24  C   UNL     1       8.426  28.606  57.625  1.00  0.00     0.035 A 
HETATM   25  S   UNL     1       8.037  29.950  58.604  1.00  0.00    -0.100 SA
HETATM   26  C   UNL     1       9.474  30.772  58.188  1.00  0.00     0.050 A 
HETATM   27  C   UNL     1      10.240  30.045  57.306  1.00  0.00     0.008 A 
HETATM   28  C   UNL     1       9.633  28.798  56.978  1.00  0.00     0.022 A 
ENDBRANCH  19  24
ENDBRANCH  17  18
ENDBRANCH   2  17
TORSDOF 6
ENDMDL
MODEL 2
REMARK VINA RESULT:      -8.4      2.885      4.053
REMARK  6 active torsions:
REMARK  status: ('A' for Active; 'I' for Inactive)
REMARK    1  A    between atoms: N_2  and  C_4 
REMARK    2  A    between atoms: N_2  and  C_16 
REMARK    3  A    between atoms: C_4  and  C_5 
REMARK       I    between atoms: C_5  and  N_6 
REMARK    4  A    between atoms: N_6  and  C_7 
REMARK    5  A    between atoms: C_16  and  C_17 
REMARK    6  A    between atoms: C_18  and  C_19 
ROOT
HETATM    1  C   UNL     1       8.070  26.360  57.504  1.00  0.00     0.270 C 
HETATM    2  N   UNL     1       7.998  27.722  56.873  1.00  0.00    -0.063 N 
HETATM    3  H   UNL     1       8.885  27.865  56.375  1.00  0.00     0.280 HD
ENDROOT
BRANCH   2   4
HETATM    4  C   UNL     1       6.897  27.815  55.804  1.00  0.00     0.337 C 
BRANCH   4   5
HETATM    5  C   UNL     1       5.662  26.950  56.042  1.00  0.00     0.248 C 
HETATM    6  N   UNL     1       5.520  25.715  55.484  1.00  0.00    -0.326 N 
HETATM    7  H   UNL     1       4.640  25.295  55.782  1.00  0.00     0.169 HD
HETATM    8  O   UNL     1       4.747  27.360  56.765  1.00  0.00    -0.271 OA
BRANCH   6   9
HETATM    9  C   UNL     1       6.302  24.917  54.628  1.00  0.00     0.040 A 
HETATM   10  C   UNL     1       6.647  25.216  53.310  1.00  0.00     0.072 A 
HETATM   11  C   UNL     1       7.446  24.333  52.575  1.00  0.00     0.121 A 
HETATM   12  F   UNL     1       7.764  24.654  51.314  1.00  0.00    -0.206 F 
HETATM   13  C   UNL     1       7.910  23.146  53.114  1.00  0.00     0.084 A 
HETATM   14  C   UNL     1       7.558  22.842  54.416  1.00  0.00     0.121 A 
HETATM   15  F   UNL     1       7.986  21.700  54.968  1.00  0.00    -0.206 F 
HETATM   16  C   UNL     1       6.765  23.707  55.170  1.00  0.00     0.072 A 
ENDBRANCH   6   9
ENDBRANCH   4   5
ENDBRANCH   2   4
BRANCH   2  17
HETATM   17  C   UNL     1       7.927  28.834  57.901  1.00  0.00     0.277 C 
BRANCH  17  18
HETATM   18  C   UNL     1       9.051  29.801  57.778  1.00  0.00     0.016 A 
HETATM   19  C   UNL     1       9.411  30.909  58.605  1.00  0.00     0.103 A 
HETATM   20  N   UNL     1      10.500  31.526  58.131  1.00  0.00    -0.173 NA
HETATM   21  N   UNL     1      10.868  30.820  57.060  1.00  0.00    -0.288 N 
HETATM   22  H   UNL     1      11.707  31.103  56.558  1.00  0.00     0.188 HD
HETATM   23  C   UNL     1      10.022  29.787  56.791  1.00  0.00     0.120 A 
BRANCH  19  24
HETATM   24  C   UNL     1       8.742  31.443  59.850  1.00  0.00     0.035 A 
HETATM   25  S   UNL     1       7.129  31.989  59.972  1.00  0.00    -0.100 SA
HETATM   26  C   UNL     1       7.291  32.349  61.634  1.00  0.00     0.050 A 
HETATM   27  C   UNL     1       8.558  32.071  62.093  1.00  0.00     0.008 A 
HETATM   28  C   UNL     1       9.395  31.553  61.063  1.00  0.00     0.022 A 
ENDBRANCH  19  24
ENDBRANCH  17  18
ENDBRANCH   2  17
TORSDOF 6
ENDMDL
MODEL 3
REMARK VINA RESULT:      -8.3      2.410      3.271
REMARK  6 active torsions:
REMARK  status: ('A' for Active; 'I' for Inactive)
REMARK    1  A    between atoms: N_2  and  C_4 
REMARK    2  A    between atoms: N_2  and  C_16 
REMARK    3  A    between atoms: C_4  and  C_5 
REMARK       I    between atoms: C_5  and  N_6 
REMARK    4  A    between atoms: N_6  and  C_7 
REMARK    5  A    between atoms: C_16  and  C_17 
REMARK    6  A    between atoms: C_18  and  C_19 
ROOT
HETATM    1  C   UNL     1       5.340  25.754  54.649  1.00  0.00     0.270 C 
HETATM    2  N   UNL     1       5.669  26.312  56.006  1.00  0.00    -0.063 N 
HETATM    3  H   UNL     1       4.802  26.717  56.378  1.00  0.00     0.280 HD
ENDROOT
BRANCH   2   4
HETATM    4  C   UNL     1       6.086  25.219  57.004  1.00  0.00     0.337 C 
BRANCH   4   5
HETATM    5  C   UNL     1       7.582  25.115  57.290  1.00  0.00     0.248 C 
HETATM    6  N   UNL     1       8.414  24.339  56.540  1.00  0.00    -0.326 N 
HETATM    7  H   UNL     1       9.371  24.422  56.879  1.00  0.00     0.169 HD
HETATM    8  O   UNL     1       8.080  25.749  58.227  1.00  0.00    -0.271 OA
BRANCH   6   9
HETATM    9  C   UNL     1       8.246  23.488  55.430  1.00  0.00     0.040 A 
HETATM   10  C   UNL     1       8.147  22.098  55.467  1.00  0.00     0.072 A 
HETATM   11  C   UNL     1       7.968  21.375  54.282  1.00  0.00     0.121 A 
HETATM   12  F   UNL     1       7.869  20.041  54.353  1.00  0.00    -0.206 F 
HETATM   13  C   UNL     1       7.892  21.999  53.050  1.00  0.00     0.084 A 
HETATM   14  C   UNL     1       8.004  23.376  53.011  1.00  0.00     0.121 A 
HETATM   15  F   UNL     1       7.939  24.013  51.835  1.00  0.00    -0.206 F 
HETATM   16  C   UNL     1       8.180  24.119  54.179  1.00  0.00     0.072 A 
ENDBRANCH   6   9
ENDBRANCH   4   5
ENDBRANCH   2   4
BRANCH   2  17
HETATM   17  C   UNL     1       6.655  27.463  55.935  1.00  0.00     0.277 C 
BRANCH  17  18
HETATM   18  C   UNL     1       6.258  28.610  56.795  1.00  0.00     0.016 A 
HETATM   19  C   UNL     1       7.053  29.640  57.385  1.00  0.00     0.103 A 
HETATM   20  N   UNL     1       6.293  30.484  58.096  1.00  0.00    -0.173 NA
HETATM   21  N   UNL     1       5.041  30.049  57.937  1.00  0.00    -0.288 N 
HETATM   22  H   UNL     1       4.287  30.574  58.377  1.00  0.00     0.188 HD
HETATM   23  C   UNL     1       4.965  28.918  57.184  1.00  0.00     0.120 A 
BRANCH  19  24
HETATM   24  C   UNL     1       8.545  29.862  57.326  1.00  0.00     0.035 A 
HETATM   25  S   UNL     1       9.476  30.758  58.443  1.00  0.00    -0.100 SA
HETATM   26  C   UNL     1      10.931  30.445  57.606  1.00  0.00     0.050 A 
HETATM   27  C   UNL     1      10.717  29.680  56.482  1.00  0.00     0.008 A 
HETATM   28  C   UNL     1       9.341  29.348  56.319  1.00  0.00     0.022 A 
ENDBRANCH  19  24
ENDBRANCH  17  18
ENDBRANCH   2  17
TORSDOF 6
ENDMDL
MODEL 4
REMARK VINA RESULT:      -8.2      3.307      6.360
REMARK  6 active torsions:
REMARK  status: ('A' for Active; 'I' for Inactive)
REMARK    1  A    between atoms: N_2  and  C_4 
REMARK    2  A    between atoms: N_2  and  C_16 
REMARK    3  A    between atoms: C_4  and  C_5 
REMARK       I    between atoms: C_5  and  N_6 
REMARK    4  A    between atoms: N_6  and  C_7 
REMARK    5  A    between atoms: C_16  and  C_17 
REMARK    6  A    between atoms: C_18  and  C_19 
ROOT
HETATM    1  C   UNL     1       5.545  25.484  52.709  1.00  0.00     0.270 C 
HETATM    2  N   UNL     1       6.504  25.749  53.836  1.00  0.00    -0.063 N 
HETATM    3  H   UNL     1       7.305  25.120  53.697  1.00  0.00     0.280 HD
ENDROOT
BRANCH   2   4
HETATM    4  C   UNL     1       7.077  27.175  53.795  1.00  0.00     0.337 C 
BRANCH   4   5
HETATM    5  C   UNL     1       6.125  28.287  54.228  1.00  0.00     0.248 C 
HETATM    6  N   UNL     1       6.431  29.158  55.231  1.00  0.00    -0.326 N 
HETATM    7  H   UNL     1       5.678  29.833  55.351  1.00  0.00     0.169 HD
HETATM    8  O   UNL     1       5.035  28.426  53.663  1.00  0.00    -0.271 OA
BRANCH   6   9
HETATM    9  C   UNL     1       7.529  29.328  56.097  1.00  0.00     0.040 A 
HETATM   10  C   UNL     1       8.875  29.237  55.746  1.00  0.00     0.072 A 
HETATM   11  C   UNL     1       9.868  29.445  56.711  1.00  0.00     0.121 A 
HETATM   12  F   UNL     1      11.152  29.357  56.340  1.00  0.00    -0.206 F 
HETATM   13  C   UNL     1       9.558  29.734  58.028  1.00  0.00     0.084 A 
HETATM   14  C   UNL     1       8.223  29.812  58.380  1.00  0.00     0.121 A 
HETATM   15  F   UNL     1       7.886  30.086  59.646  1.00  0.00    -0.206 F 
HETATM   16  C   UNL     1       7.215  29.611  57.435  1.00  0.00     0.072 A 
ENDBRANCH   6   9
ENDBRANCH   4   5
ENDBRANCH   2   4
BRANCH   2  17
HETATM   17  C   UNL     1       5.927  25.376  55.188  1.00  0.00     0.277 C 
BRANCH  17  18
HETATM   18  C   UNL     1       6.973  24.974  56.166  1.00  0.00     0.016 A 
HETATM   19  C   UNL     1       7.828  23.829  56.187  1.00  0.00     0.103 A 
HETATM   20  N   UNL     1       8.630  23.850  57.259  1.00  0.00    -0.173 NA
HETATM   21  N   UNL     1       8.344  24.990  57.892  1.00  0.00    -0.288 N 
HETATM   22  H   UNL     1       8.871  25.223  58.732  1.00  0.00     0.188 HD
HETATM   23  C   UNL     1       7.344  25.692  57.291  1.00  0.00     0.120 A 
BRANCH  19  24
HETATM   24  C   UNL     1       7.912  22.670  55.224  1.00  0.00     0.035 A 
HETATM   25  S   UNL     1       7.715  21.019  55.614  1.00  0.00    -0.100 SA
HETATM   26  C   UNL     1       7.953  20.524  53.997  1.00  0.00     0.050 A 
HETATM   27  C   UNL     1       8.193  21.595  53.167  1.00  0.00     0.008 A 
HETATM   28  C   UNL     1       8.173  22.832  53.876  1.00  0.00     0.022 A 
ENDBRANCH  19  24
ENDBRANCH  17  18
ENDBRANCH   2  17
TORSDOF 6
ENDMDL
MODEL 5
REMARK VINA RESULT:      -8.2      2.246      3.165
REMARK  6 active torsions:
REMARK  status: ('A' for Active; 'I' for Inactive)
REMARK    1  A    between atoms: N_2  and  C_4 
REMARK    2  A    between atoms: N_2  and  C_16 
REMARK    3  A    between atoms: C_4  and  C_5 
REMARK       I    between atoms: C_5  and  N_6 
REMARK    4  A    between atoms: N_6  and  C_7 
REMARK    5  A    between atoms: C_16  and  C_17 
REMARK    6  A    between atoms: C_18  and  C_19 
ROOT
HETATM    1  C   UNL     1       7.841  25.918  58.003  1.00  0.00     0.270 C 
HETATM    2  N   UNL     1       7.787  26.897  56.864  1.00  0.00    -0.063 N 
HETATM    3  H   UNL     1       8.729  26.928  56.454  1.00  0.00     0.280 HD
ENDROOT
BRANCH   2   4
HETATM    4  C   UNL     1       6.853  26.432  55.734  1.00  0.00     0.337 C 
BRANCH   4   5
HETATM    5  C   UNL     1       7.480  26.347  54.345  1.00  0.00     0.248 C 
HETATM    6  N   UNL     1       7.915  25.171  53.813  1.00  0.00    -0.326 N 
HETATM    7  H   UNL     1       8.280  25.324  52.874  1.00  0.00     0.169 HD
HETATM    8  O   UNL     1       7.605  27.366  53.658  1.00  0.00    -0.271 OA
BRANCH   6   9
HETATM    9  C   UNL     1       7.957  23.835  54.258  1.00  0.00     0.040 A 
HETATM   10  C   UNL     1       8.129  23.412  55.576  1.00  0.00     0.072 A 
HETATM   11  C   UNL     1       8.137  22.045  55.879  1.00  0.00     0.121 A 
HETATM   12  F   UNL     1       8.297  21.673  57.156  1.00  0.00    -0.206 F 
HETATM   13  C   UNL     1       7.987  21.079  54.901  1.00  0.00     0.084 A 
HETATM   14  C   UNL     1       7.830  21.497  53.592  1.00  0.00     0.121 A 
HETATM   15  F   UNL     1       7.685  20.589  52.620  1.00  0.00    -0.206 F 
HETATM   16  C   UNL     1       7.815  22.853  53.266  1.00  0.00     0.072 A 
ENDBRANCH   6   9
ENDBRANCH   4   5
ENDBRANCH   2   4
BRANCH   2  17
HETATM   17  C   UNL     1       7.501  28.312  57.329  1.00  0.00     0.277 C 
BRANCH  17  18
HETATM   18  C   UNL     1       8.693  29.197  57.239  1.00  0.00     0.016 A 
HETATM   19  C   UNL     1       9.132  30.247  58.103  1.00  0.00     0.103 A 
HETATM   20  N   UNL     1      10.265  30.798  57.650  1.00  0.00    -0.173 NA
HETATM   21  N   UNL     1      10.582  30.103  56.556  1.00  0.00    -0.288 N 
HETATM   22  H   UNL     1      11.442  30.341  56.063  1.00  0.00     0.188 HD
HETATM   23  C   UNL     1       9.664  29.145  56.252  1.00  0.00     0.120 A 
BRANCH  19  24
HETATM   24  C   UNL     1       8.502  30.786  59.365  1.00  0.00     0.035 A 
HETATM   25  S   UNL     1       7.090  31.742  59.457  1.00  0.00    -0.100 SA
HETATM   26  C   UNL     1       7.164  31.831  61.162  1.00  0.00     0.050 A 
HETATM   27  C   UNL     1       8.253  31.154  61.660  1.00  0.00     0.008 A 
HETATM   28  C   UNL     1       9.026  30.555  60.623  1.00  0.00     0.022 A 
ENDBRANCH  19  24
ENDBRANCH  17  18
ENDBRANCH   2  17
TORSDOF 6
ENDMDL
MODEL 6
REMARK VINA RESULT:      -8.1      3.687      6.144
REMARK  6 active torsions:
REMARK  status: ('A' for Active; 'I' for Inactive)
REMARK    1  A    between atoms: N_2  and  C_4 
REMARK    2  A    between atoms: N_2  and  C_16 
REMARK    3  A    between atoms: C_4  and  C_5 
REMARK       I    between atoms: C_5  and  N_6 
REMARK    4  A    between atoms: N_6  and  C_7 
REMARK    5  A    between atoms: C_16  and  C_17 
REMARK    6  A    between atoms: C_18  and  C_19 
ROOT
HETATM    1  C   UNL     1       4.719  24.451  52.615  1.00  0.00     0.270 C 
HETATM    2  N   UNL     1       4.853  25.674  53.479  1.00  0.00    -0.063 N 
HETATM    3  H   UNL     1       3.900  25.961  53.736  1.00  0.00     0.280 HD
ENDROOT
BRANCH   2   4
HETATM    4  C   UNL     1       5.575  25.380  54.804  1.00  0.00     0.337 C 
BRANCH   4   5
HETATM    5  C   UNL     1       7.071  25.681  54.827  1.00  0.00     0.248 C 
HETATM    6  N   UNL     1       8.012  24.707  54.678  1.00  0.00    -0.326 N 
HETATM    7  H   UNL     1       8.946  25.114  54.702  1.00  0.00     0.169 HD
HETATM    8  O   UNL     1       7.468  26.841  54.983  1.00  0.00    -0.271 OA
BRANCH   6   9
HETATM    9  C   UNL     1       7.976  23.311  54.490  1.00  0.00     0.040 A 
HETATM   10  C   UNL     1       8.069  22.642  53.270  1.00  0.00     0.072 A 
HETATM   11  C   UNL     1       8.032  21.244  53.232  1.00  0.00     0.121 A 
HETATM   12  F   UNL     1       8.132  20.632  52.044  1.00  0.00    -0.206 F 
HETATM   13  C   UNL     1       7.894  20.484  54.380  1.00  0.00     0.084 A 
HETATM   14  C   UNL     1       7.788  21.147  55.589  1.00  0.00     0.121 A 
HETATM   15  F   UNL     1       7.650  20.444  56.720  1.00  0.00    -0.206 F 
HETATM   16  C   UNL     1       7.825  22.541  55.653  1.00  0.00     0.072 A 
ENDBRANCH   6   9
ENDBRANCH   4   5
ENDBRANCH   2   4
BRANCH   2  17
HETATM   17  C   UNL     1       5.441  26.853  52.728  1.00  0.00     0.277 C 
BRANCH  17  18
HETATM   18  C   UNL     1       4.422  27.883  52.389  1.00  0.00     0.016 A 
HETATM   19  C   UNL     1       3.976  28.359  51.119  1.00  0.00     0.103 A 
HETATM   20  N   UNL     1       3.038  29.304  51.263  1.00  0.00    -0.173 NA
HETATM   21  N   UNL     1       2.843  29.408  52.579  1.00  0.00    -0.288 N 
HETATM   22  H   UNL     1       2.135  30.060  52.913  1.00  0.00     0.188 HD
HETATM   23  C   UNL     1       3.661  28.595  53.302  1.00  0.00     0.120 A 
BRANCH  19  24
HETATM   24  C   UNL     1       4.422  27.967  49.730  1.00  0.00     0.035 A 
HETATM   25  S   UNL     1       5.136  28.999  48.572  1.00  0.00    -0.100 SA
HETATM   26  C   UNL     1       5.286  27.742  47.425  1.00  0.00     0.050 A 
HETATM   27  C   UNL     1       4.789  26.553  47.905  1.00  0.00     0.008 A 
HETATM   28  C   UNL     1       4.287  26.684  49.233  1.00  0.00     0.022 A 
ENDBRANCH  19  24
ENDBRANCH  17  18
ENDBRANCH   2  17
TORSDOF 6
ENDMDL
MODEL 7
REMARK VINA RESULT:      -8.1      3.503      6.669
REMARK  6 active torsions:
REMARK  status: ('A' for Active; 'I' for Inactive)
REMARK    1  A    between atoms: N_2  and  C_4 
REMARK    2  A    between atoms: N_2  and  C_16 
REMARK    3  A    between atoms: C_4  and  C_5 
REMARK       I    between atoms: C_5  and  N_6 
REMARK    4  A    between atoms: N_6  and  C_7 
REMARK    5  A    between atoms: C_16  and  C_17 
REMARK    6  A    between atoms: C_18  and  C_19 
ROOT
HETATM    1  C   UNL     1       5.351  25.057  56.959  1.00  0.00     0.270 C 
HETATM    2  N   UNL     1       5.829  25.956  55.853  1.00  0.00    -0.063 N 
HETATM    3  H   UNL     1       5.361  25.643  54.994  1.00  0.00     0.280 HD
ENDROOT
BRANCH   2   4
HETATM    4  C   UNL     1       5.399  27.418  56.058  1.00  0.00     0.337 C 
BRANCH   4   5
HETATM    5  C   UNL     1       5.872  28.406  54.995  1.00  0.00     0.248 C 
HETATM    6  N   UNL     1       6.919  29.253  55.203  1.00  0.00    -0.326 N 
HETATM    7  H   UNL     1       7.088  29.813  54.369  1.00  0.00     0.169 HD
HETATM    8  O   UNL     1       5.304  28.457  53.899  1.00  0.00    -0.271 OA
BRANCH   6   9
HETATM    9  C   UNL     1       7.796  29.503  56.277  1.00  0.00     0.040 A 
HETATM   10  C   UNL     1       7.429  29.885  57.567  1.00  0.00     0.072 A 
HETATM   11  C   UNL     1       8.409  30.088  58.545  1.00  0.00     0.121 A 
HETATM   12  F   UNL     1       8.022  30.448  59.776  1.00  0.00    -0.206 F 
HETATM   13  C   UNL     1       9.756  29.930  58.273  1.00  0.00     0.084 A 
HETATM   14  C   UNL     1      10.122  29.564  56.991  1.00  0.00     0.121 A 
HETATM   15  F   UNL     1      11.417  29.405  56.692  1.00  0.00    -0.206 F 
HETATM   16  C   UNL     1       9.163  29.353  56.000  1.00  0.00     0.072 A 
ENDBRANCH   6   9
ENDBRANCH   4   5
ENDBRANCH   2   4
BRANCH   2  17
HETATM   17  C   UNL     1       7.314  25.803  55.583  1.00  0.00     0.277 C 
BRANCH  17  18
HETATM   18  C   UNL     1       7.595  25.185  54.259  1.00  0.00     0.016 A 
HETATM   19  C   UNL     1       7.896  23.832  53.916  1.00  0.00     0.103 A 
HETATM   20  N   UNL     1       8.088  23.703  52.597  1.00  0.00    -0.173 NA
HETATM   21  N   UNL     1       7.873  24.919  52.089  1.00  0.00    -0.288 N 
HETATM   22  H   UNL     1       7.937  25.040  51.080  1.00  0.00     0.188 HD
HETATM   23  C   UNL     1       7.594  25.849  53.043  1.00  0.00     0.120 A 
BRANCH  19  24
HETATM   24  C   UNL     1       8.036  22.619  54.804  1.00  0.00     0.035 A 
HETATM   25  S   UNL     1       7.924  20.988  54.309  1.00  0.00    -0.100 SA
HETATM   26  C   UNL     1       8.212  20.404  55.887  1.00  0.00     0.050 A 
HETATM   27  C   UNL     1       8.380  21.431  56.788  1.00  0.00     0.008 A 
HETATM   28  C   UNL     1       8.274  22.707  56.163  1.00  0.00     0.022 A 
ENDBRANCH  19  24
ENDBRANCH  17  18
ENDBRANCH   2  17
TORSDOF 6
ENDMDL
MODEL 8
REMARK VINA RESULT:      -8.0      2.377      2.950
REMARK  6 active torsions:
REMARK  status: ('A' for Active; 'I' for Inactive)
REMARK    1  A    between atoms: N_2  and  C_4 
REMARK    2  A    between atoms: N_2  and  C_16 
REMARK    3  A    between atoms: C_4  and  C_5 
REMARK       I    between atoms: C_5  and  N_6 
REMARK    4  A    between atoms: N_6  and  C_7 
REMARK    5  A    between atoms: C_16  and  C_17 
REMARK    6  A    between atoms: C_18  and  C_19 
ROOT
HETATM    1  C   UNL     1       4.990  25.210  57.156  1.00  0.00     0.270 C 
HETATM    2  N   UNL     1       5.903  26.028  56.287  1.00  0.00    -0.063 N 
HETATM    3  H   UNL     1       6.863  25.817  56.585  1.00  0.00     0.280 HD
ENDROOT
BRANCH   2   4
HETATM    4  C   UNL     1       5.823  25.622  54.806  1.00  0.00     0.337 C 
BRANCH   4   5
HETATM    5  C   UNL     1       7.119  25.752  54.010  1.00  0.00     0.248 C 
HETATM    6  N   UNL     1       7.973  24.705  53.833  1.00  0.00    -0.326 N 
HETATM    7  H   UNL     1       8.764  24.991  53.258  1.00  0.00     0.169 HD
HETATM    8  O   UNL     1       7.426  26.833  53.496  1.00  0.00    -0.271 OA
BRANCH   6   9
HETATM    9  C   UNL     1       7.991  23.358  54.246  1.00  0.00     0.040 A 
HETATM   10  C   UNL     1       8.032  22.902  55.563  1.00  0.00     0.072 A 
HETATM   11  C   UNL     1       8.032  21.528  55.830  1.00  0.00     0.121 A 
HETATM   12  F   UNL     1       8.065  21.123  57.107  1.00  0.00    -0.206 F 
HETATM   13  C   UNL     1       8.002  20.586  54.817  1.00  0.00     0.084 A 
HETATM   14  C   UNL     1       7.974  21.037  53.511  1.00  0.00     0.121 A 
HETATM   15  F   UNL     1       7.948  20.154  52.505  1.00  0.00    -0.206 F 
HETATM   16  C   UNL     1       7.971  22.402  53.219  1.00  0.00     0.072 A 
ENDBRANCH   6   9
ENDBRANCH   4   5
ENDBRANCH   2   4
BRANCH   2  17
HETATM   17  C   UNL     1       5.730  27.519  56.507  1.00  0.00     0.277 C 
BRANCH  17  18
HETATM   18  C   UNL     1       7.001  28.195  56.879  1.00  0.00     0.016 A 
HETATM   19  C   UNL     1       7.252  29.550  57.256  1.00  0.00     0.103 A 
HETATM   20  N   UNL     1       8.552  29.745  57.509  1.00  0.00    -0.173 NA
HETATM   21  N   UNL     1       9.125  28.550  57.351  1.00  0.00    -0.288 N 
HETATM   22  H   UNL     1      10.124  28.464  57.528  1.00  0.00     0.188 HD
HETATM   23  C   UNL     1       8.245  27.589  56.953  1.00  0.00     0.120 A 
BRANCH  19  24
HETATM   24  C   UNL     1       6.295  30.713  57.372  1.00  0.00     0.035 A 
HETATM   25  S   UNL     1       5.117  31.168  56.222  1.00  0.00    -0.100 SA
HETATM   26  C   UNL     1       4.572  32.475  57.177  1.00  0.00     0.050 A 
HETATM   27  C   UNL     1       5.281  32.577  58.351  1.00  0.00     0.008 A 
HETATM   28  C   UNL     1       6.277  31.564  58.462  1.00  0.00     0.022 A 
ENDBRANCH  19  24
ENDBRANCH  17  18
ENDBRANCH   2  17
TORSDOF 6
ENDMDL
MODEL 9
REMARK VINA RESULT:      -7.9      2.317      3.404
REMARK  6 active torsions:
REMARK  status: ('A' for Active; 'I' for Inactive)
REMARK    1  A    between atoms: N_2  and  C_4 
REMARK    2  A    between atoms: N_2  and  C_16 
REMARK    3  A    between atoms: C_4  and  C_5 
REMARK       I    between atoms: C_5  and  N_6 
REMARK    4  A    between atoms: N_6  and  C_7 
REMARK    5  A    between atoms: C_16  and  C_17 
REMARK    6  A    between atoms: C_18  and  C_19 
ROOT
HETATM    1  C   UNL     1       5.275  25.129  54.651  1.00  0.00     0.270 C 
HETATM    2  N   UNL     1       5.646  26.058  55.773  1.00  0.00    -0.063 N 
HETATM    3  H   UNL     1       4.786  26.547  56.049  1.00  0.00     0.280 HD
ENDROOT
BRANCH   2   4
HETATM    4  C   UNL     1       6.122  25.303  57.025  1.00  0.00     0.337 C 
BRANCH   4   5
HETATM    5  C   UNL     1       7.626  25.327  57.285  1.00  0.00     0.248 C 
HETATM    6  N   UNL     1       8.478  24.433  56.709  1.00  0.00    -0.326 N 
HETATM    7  H   UNL     1       9.437  24.629  56.993  1.00  0.00     0.169 HD
HETATM    8  O   UNL     1       8.113  26.178  58.036  1.00  0.00    -0.271 OA
BRANCH   6   9
HETATM    9  C   UNL     1       8.328  23.343  55.829  1.00  0.00     0.040 A 
HETATM   10  C   UNL     1       8.274  23.411  54.438  1.00  0.00     0.072 A 
HETATM   11  C   UNL     1       8.135  22.240  53.683  1.00  0.00     0.121 A 
HETATM   12  F   UNL     1       8.094  22.340  52.347  1.00  0.00    -0.206 F 
HETATM   13  C   UNL     1       8.040  20.994  54.276  1.00  0.00     0.084 A 
HETATM   14  C   UNL     1       8.080  20.927  55.657  1.00  0.00     0.121 A 
HETATM   15  F   UNL     1       7.986  19.739  56.265  1.00  0.00    -0.206 F 
HETATM   16  C   UNL     1       8.220  22.080  56.431  1.00  0.00     0.072 A 
ENDBRANCH   6   9
ENDBRANCH   4   5
ENDBRANCH   2   4
BRANCH   2  17
HETATM   17  C   UNL     1       6.606  27.146  55.331  1.00  0.00     0.277 C 
BRANCH  17  18
HETATM   18  C   UNL     1       6.054  28.513  55.531  1.00  0.00     0.016 A 
HETATM   19  C   UNL     1       6.622  29.652  56.180  1.00  0.00     0.103 A 
HETATM   20  N   UNL     1       5.781  30.694  56.140  1.00  0.00    -0.173 NA
HETATM   21  N   UNL     1       4.722  30.266  55.450  1.00  0.00    -0.288 N 
HETATM   22  H   UNL     1       3.962  30.922  55.273  1.00  0.00     0.188 HD
HETATM   23  C   UNL     1       4.824  28.960  55.079  1.00  0.00     0.120 A 
BRANCH  19  24
HETATM   24  C   UNL     1       7.954  29.805  56.875  1.00  0.00     0.035 A 
HETATM   25  S   UNL     1       8.205  30.422  58.447  1.00  0.00    -0.100 SA
HETATM   26  C   UNL     1       9.896  30.199  58.351  1.00  0.00     0.050 A 
HETATM   27  C   UNL     1      10.273  29.674  57.136  1.00  0.00     0.008 A 
HETATM   28  C   UNL     1       9.153  29.451  56.284  1.00  0.00     0.022 A 
ENDBRANCH  19  24
ENDBRANCH  17  18
ENDBRANCH   2  17
TORSDOF 6
ENDMDL
MODEL 10
REMARK VINA RESULT:      -7.9      1.919      2.297
REMARK  6 active torsions:
REMARK  status: ('A' for Active; 'I' for Inactive)
REMARK    1  A    between atoms: N_2  and  C_4 
REMARK    2  A    between atoms: N_2  and  C_16 
REMARK    3  A    between atoms: C_4  and  C_5 
REMARK       I    between atoms: C_5  and  N_6 
REMARK    4  A    between atoms: N_6  and  C_7 
REMARK    5  A    between atoms: C_16  and  C_17 
REMARK    6  A    between atoms: C_18  and  C_19 
ROOT
HETATM    1  C   UNL     1       5.997  26.102  56.526  1.00  0.00     0.270 C 
HETATM    2  N   UNL     1       6.929  26.937  55.693  1.00  0.00    -0.063 N 
HETATM    3  H   UNL     1       7.743  27.151  56.282  1.00  0.00     0.280 HD
ENDROOT
BRANCH   2   4
HETATM    4  C   UNL     1       7.478  26.169  54.479  1.00  0.00     0.337 C 
BRANCH   4   5
HETATM    5  C   UNL     1       6.448  25.395  53.660  1.00  0.00     0.248 C 
HETATM    6  N   UNL     1       6.437  24.033  53.604  1.00  0.00    -0.326 N 
HETATM    7  H   UNL     1       5.664  23.712  53.024  1.00  0.00     0.169 HD
HETATM    8  O   UNL     1       5.583  26.000  53.019  1.00  0.00    -0.271 OA
BRANCH   6   9
HETATM    9  C   UNL     1       7.227  23.010  54.165  1.00  0.00     0.040 A 
HETATM   10  C   UNL     1       7.462  22.803  55.523  1.00  0.00     0.072 A 
HETATM   11  C   UNL     1       8.260  21.733  55.943  1.00  0.00     0.121 A 
HETATM   12  F   UNL     1       8.460  21.557  57.256  1.00  0.00    -0.206 F 
HETATM   13  C   UNL     1       8.845  20.860  55.042  1.00  0.00     0.084 A 
HETATM   14  C   UNL     1       8.623  21.072  53.694  1.00  0.00     0.121 A 
HETATM   15  F   UNL     1       9.176  20.250  52.795  1.00  0.00    -0.206 F 
HETATM   16  C   UNL     1       7.829  22.131  53.252  1.00  0.00     0.072 A 
ENDBRANCH   6   9
ENDBRANCH   4   5
ENDBRANCH   2   4
BRANCH   2  17
HETATM   17  C   UNL     1       6.330  28.281  55.327  1.00  0.00     0.277 C 
BRANCH  17  18
HETATM   18  C   UNL     1       6.094  29.146  56.514  1.00  0.00     0.016 A 
HETATM   19  C   UNL     1       7.018  29.858  57.338  1.00  0.00     0.103 A 
HETATM   20  N   UNL     1       6.381  30.518  58.314  1.00  0.00    -0.173 NA
HETATM   21  N   UNL     1       5.083  30.284  58.108  1.00  0.00    -0.288 N 
HETATM   22  H   UNL     1       4.408  30.724  58.731  1.00  0.00     0.188 HD
HETATM   23  C   UNL     1       4.855  29.451  57.056  1.00  0.00     0.120 A 
BRANCH  19  24
HETATM   24  C   UNL     1       8.524  29.933  57.257  1.00  0.00     0.035 A 
HETATM   25  S   UNL     1       9.559  30.666  58.401  1.00  0.00    -0.100 SA
HETATM   26  C   UNL     1      10.961  30.257  57.515  1.00  0.00     0.050 A 
HETATM   27  C   UNL     1      10.652  29.582  56.356  1.00  0.00     0.008 A 
HETATM   28  C   UNL     1       9.247  29.399  56.206  1.00  0.00     0.022 A 
ENDBRANCH  19  24
ENDBRANCH  17  18
ENDBRANCH   2  17
TORSDOF 6
ENDMDL
