MODEL 1
REMARK VINA RESULT:      -8.9      0.000      0.000
REMARK  4 active torsions:
REMARK  status: ('A' for Active; 'I' for Inactive)
REMARK    1  A    between atoms: C_6  and  N_7 
REMARK       I    between atoms: N_7  and  C_8 
REMARK    2  A    between atoms: C_8  and  C_9 
REMARK    3  A    between atoms: C_10  and  C_11 
REMARK    4  A    between atoms: C_14  and  O_15 
ROOT
HETATM    1  C   UNL     1       6.623  27.249  52.859  1.00  0.00     0.131 C 
HETATM    2  C   UNL     1       6.322  28.591  53.578  1.00  0.00     0.177 C 
HETATM    3  N   UNL     1       4.902  28.949  53.503  1.00  0.00    -0.088 N 
HETATM    4  C   UNL     1       4.007  28.364  52.642  1.00  0.00     0.721 A 
HETATM    5  N   UNL     1       4.357  27.302  51.883  1.00  0.00    -0.218 N 
HETATM    6  C   UNL     1       5.779  27.132  51.574  1.00  0.00     0.111 C 
HETATM    7  C   UNL     1       5.996  25.822  50.820  1.00  0.00     0.034 C 
HETATM    8  N   UNL     1       4.361  30.038  54.082  1.00  0.00    -0.149 NA
HETATM    9  C   UNL     1       3.111  29.986  53.611  1.00  0.00     0.275 A 
HETATM   10  N   UNL     1       2.855  28.971  52.730  1.00  0.00    -0.055 NA
HETATM   11  H   UNL     1       3.719  27.115  51.107  1.00  0.00     0.178 HD
ENDROOT
BRANCH   1  12
HETATM   12  C   UNL     1       6.507  26.032  53.782  1.00  0.00     0.230 C 
HETATM   13  N   UNL     1       7.652  25.280  53.916  1.00  0.00    -0.326 N 
HETATM   14  H   UNL     1       8.438  25.554  53.335  1.00  0.00     0.169 HD
HETATM   15  O   UNL     1       5.410  25.780  54.277  1.00  0.00    -0.273 OA
BRANCH  13  16
HETATM   16  C   UNL     1       7.836  24.061  54.607  1.00  0.00     0.040 A 
HETATM   17  C   UNL     1       7.998  23.895  55.992  1.00  0.00    -0.035 A 
HETATM   18  C   UNL     1       8.079  22.585  56.514  1.00  0.00     0.015 A 
HETATM   19  C   UNL     1       8.156  25.016  56.979  1.00  0.00     0.050 C 
HETATM   20  C   UNL     1       8.080  21.457  55.687  1.00  0.00    -0.061 A 
HETATM   21  C   UNL     1       8.129  20.078  56.276  1.00  0.00     0.048 C 
HETATM   22  C   UNL     1       7.985  21.637  54.310  1.00  0.00     0.009 A 
HETATM   23  C   UNL     1       7.880  22.925  53.779  1.00  0.00     0.030 A 
ENDBRANCH  13  16
ENDBRANCH   1  12
BRANCH   2  24
HETATM   24  C   UNL     1       6.933  28.703  54.969  1.00  0.00    -0.032 A 
HETATM   25  C   UNL     1       6.081  28.695  56.086  1.00  0.00     0.012 A 
HETATM   26  C   UNL     1       6.596  28.794  57.381  1.00  0.00     0.037 A 
HETATM   27  C   UNL     1       7.970  28.887  57.590  1.00  0.00     0.068 A 
HETATM   28  C   UNL     1       8.826  28.942  56.492  1.00  0.00     0.037 A 
HETATM   29  C   UNL     1       8.311  28.858  55.193  1.00  0.00     0.012 A 
BRANCH  27  30
HETATM   30  O   UNL     1       8.361  28.950  58.899  1.00  0.00    -0.356 OA
HETATM   31  C   UNL     1       8.394  30.259  59.459  1.00  0.00     0.210 C 
ENDBRANCH  27  30
ENDBRANCH   2  24
TORSDOF 4
ENDMDL
MODEL 2
REMARK VINA RESULT:      -8.7      2.155      5.629
REMARK  4 active torsions:
REMARK  status: ('A' for Active; 'I' for Inactive)
REMARK    1  A    between atoms: C_6  and  N_7 
REMARK       I    between atoms: N_7  and  C_8 
REMARK    2  A    between atoms: C_8  and  C_9 
REMARK    3  A    between atoms: C_10  and  C_11 
REMARK    4  A    between atoms: C_14  and  O_15 
ROOT
HETATM    1  C   UNL     1       4.605  27.722  53.357  1.00  0.00     0.131 C 
HETATM    2  C   UNL     1       4.710  26.510  52.394  1.00  0.00     0.177 C 
HETATM    3  N   UNL     1       4.654  26.918  50.987  1.00  0.00    -0.088 N 
HETATM    4  C   UNL     1       4.236  28.155  50.563  1.00  0.00     0.721 A 
HETATM    5  N   UNL     1       3.970  29.145  51.442  1.00  0.00    -0.218 N 
HETATM    6  C   UNL     1       3.601  28.755  52.806  1.00  0.00     0.111 C 
HETATM    7  C   UNL     1       3.461  29.996  53.684  1.00  0.00     0.034 C 
HETATM    8  N   UNL     1       4.769  26.073  49.944  1.00  0.00    -0.149 NA
HETATM    9  C   UNL     1       4.515  26.892  48.919  1.00  0.00     0.275 A 
HETATM   10  N   UNL     1       4.189  28.177  49.258  1.00  0.00    -0.055 NA
HETATM   11  H   UNL     1       3.429  29.918  51.051  1.00  0.00     0.178 HD
ENDROOT
BRANCH   1  12
HETATM   12  C   UNL     1       5.966  28.323  53.719  1.00  0.00     0.230 C 
HETATM   13  N   UNL     1       6.297  28.276  55.054  1.00  0.00    -0.326 N 
HETATM   14  H   UNL     1       5.580  27.922  55.681  1.00  0.00     0.169 HD
HETATM   15  O   UNL     1       6.626  28.849  52.825  1.00  0.00    -0.273 OA
BRANCH  13  16
HETATM   16  C   UNL     1       7.422  28.828  55.709  1.00  0.00     0.040 A 
HETATM   17  C   UNL     1       7.442  29.453  56.966  1.00  0.00    -0.035 A 
HETATM   18  C   UNL     1       8.682  29.864  57.500  1.00  0.00     0.015 A 
HETATM   19  C   UNL     1       6.223  29.781  57.781  1.00  0.00     0.050 C 
HETATM   20  C   UNL     1       9.877  29.738  56.782  1.00  0.00    -0.061 A 
HETATM   21  C   UNL     1      11.182  30.150  57.394  1.00  0.00     0.048 C 
HETATM   22  C   UNL     1       9.835  29.176  55.509  1.00  0.00     0.009 A 
HETATM   23  C   UNL     1       8.619  28.743  54.975  1.00  0.00     0.030 A 
ENDBRANCH  13  16
ENDBRANCH   1  12
BRANCH   2  24
HETATM   24  C   UNL     1       5.838  25.542  52.730  1.00  0.00    -0.032 A 
HETATM   25  C   UNL     1       5.731  24.754  53.888  1.00  0.00     0.012 A 
HETATM   26  C   UNL     1       6.740  23.852  54.236  1.00  0.00     0.037 A 
HETATM   27  C   UNL     1       7.866  23.705  53.430  1.00  0.00     0.068 A 
HETATM   28  C   UNL     1       8.008  24.511  52.303  1.00  0.00     0.037 A 
HETATM   29  C   UNL     1       7.006  25.426  51.960  1.00  0.00     0.012 A 
BRANCH  27  30
HETATM   30  O   UNL     1       8.773  22.773  53.853  1.00  0.00    -0.356 OA
HETATM   31  C   UNL     1       9.086  22.820  55.241  1.00  0.00     0.210 C 
ENDBRANCH  27  30
ENDBRANCH   2  24
TORSDOF 4
ENDMDL
MODEL 3
REMARK VINA RESULT:      -8.5      1.788      5.823
REMARK  4 active torsions:
REMARK  status: ('A' for Active; 'I' for Inactive)
REMARK    1  A    between atoms: C_6  and  N_7 
REMARK       I    between atoms: N_7  and  C_8 
REMARK    2  A    between atoms: C_8  and  C_9 
REMARK    3  A    between atoms: C_10  and  C_11 
REMARK    4  A    between atoms: C_14  and  O_15 
ROOT
HETATM    1  C   UNL     1       4.616  27.814  54.538  1.00  0.00     0.131 C 
HETATM    2  C   UNL     1       4.879  26.471  53.806  1.00  0.00     0.177 C 
HETATM    3  N   UNL     1       5.110  26.662  52.371  1.00  0.00    -0.088 N 
HETATM    4  C   UNL     1       4.815  27.819  51.693  1.00  0.00     0.721 A 
HETATM    5  N   UNL     1       4.405  28.928  52.346  1.00  0.00    -0.218 N 
HETATM    6  C   UNL     1       3.765  28.746  53.652  1.00  0.00     0.111 C 
HETATM    7  C   UNL     1       3.486  30.104  54.291  1.00  0.00     0.034 C 
HETATM    8  N   UNL     1       5.408  25.671  51.510  1.00  0.00    -0.149 NA
HETATM    9  C   UNL     1       5.381  26.325  50.344  1.00  0.00     0.275 A 
HETATM   10  N   UNL     1       5.026  27.645  50.417  1.00  0.00    -0.055 NA
HETATM   11  H   UNL     1       3.971  29.631  51.745  1.00  0.00     0.178 HD
ENDROOT
BRANCH   1  12
HETATM   12  C   UNL     1       5.894  28.469  55.069  1.00  0.00     0.230 C 
HETATM   13  N   UNL     1       5.930  28.679  56.430  1.00  0.00    -0.326 N 
HETATM   14  H   UNL     1       5.081  28.453  56.940  1.00  0.00     0.169 HD
HETATM   15  O   UNL     1       6.751  28.813  54.259  1.00  0.00    -0.273 OA
BRANCH  13  16
HETATM   16  C   UNL     1       6.913  29.343  57.198  1.00  0.00     0.040 A 
HETATM   17  C   UNL     1       8.229  28.915  57.433  1.00  0.00    -0.035 A 
HETATM   18  C   UNL     1       9.099  29.760  58.156  1.00  0.00     0.015 A 
HETATM   19  C   UNL     1       8.784  27.580  57.024  1.00  0.00     0.050 C 
HETATM   20  C   UNL     1       8.667  30.971  58.708  1.00  0.00    -0.061 A 
HETATM   21  C   UNL     1       9.627  31.863  59.438  1.00  0.00     0.048 C 
HETATM   22  C   UNL     1       7.341  31.354  58.524  1.00  0.00     0.009 A 
HETATM   23  C   UNL     1       6.473  30.541  57.791  1.00  0.00     0.030 A 
ENDBRANCH  13  16
ENDBRANCH   1  12
BRANCH   2  24
HETATM   24  C   UNL     1       5.895  25.571  54.499  1.00  0.00    -0.032 A 
HETATM   25  C   UNL     1       5.670  25.199  55.835  1.00  0.00     0.012 A 
HETATM   26  C   UNL     1       6.572  24.374  56.511  1.00  0.00     0.037 A 
HETATM   27  C   UNL     1       7.708  23.891  55.865  1.00  0.00     0.068 A 
HETATM   28  C   UNL     1       7.969  24.286  54.555  1.00  0.00     0.037 A 
HETATM   29  C   UNL     1       7.074  25.125  53.881  1.00  0.00     0.012 A 
BRANCH  27  30
HETATM   30  O   UNL     1       8.504  23.070  56.616  1.00  0.00    -0.356 OA
HETATM   31  C   UNL     1       8.361  21.679  56.349  1.00  0.00     0.210 C 
ENDBRANCH  27  30
ENDBRANCH   2  24
TORSDOF 4
ENDMDL
MODEL 4
REMARK VINA RESULT:      -8.4      6.026     10.680
REMARK  4 active torsions:
REMARK  status: ('A' for Active; 'I' for Inactive)
REMARK    1  A    between atoms: C_6  and  N_7 
REMARK       I    between atoms: N_7  and  C_8 
REMARK    2  A    between atoms: C_8  and  C_9 
REMARK    3  A    between atoms: C_10  and  C_11 
REMARK    4  A    between atoms: C_14  and  O_15 
ROOT
HETATM    1  C   UNL     1       7.805  32.601  60.299  1.00  0.00     0.131 C 
HETATM    2  C   UNL     1       6.878  32.237  59.109  1.00  0.00     0.177 C 
HETATM    3  N   UNL     1       7.001  30.827  58.727  1.00  0.00    -0.088 N 
HETATM    4  C   UNL     1       8.025  30.008  59.133  1.00  0.00     0.721 A 
HETATM    5  N   UNL     1       8.936  30.423  60.041  1.00  0.00    -0.218 N 
HETATM    6  C   UNL     1       9.154  31.867  60.167  1.00  0.00     0.111 C 
HETATM    7  C   UNL     1      10.116  32.150  61.319  1.00  0.00     0.034 C 
HETATM    8  N   UNL     1       6.277  30.236  57.757  1.00  0.00    -0.149 NA
HETATM    9  C   UNL     1       6.850  29.029  57.708  1.00  0.00     0.275 A 
HETATM   10  N   UNL     1       7.922  28.850  58.540  1.00  0.00    -0.055 NA
HETATM   11  H   UNL     1       9.782  29.852  60.075  1.00  0.00     0.178 HD
ENDROOT
BRANCH   1  12
HETATM   12  C   UNL     1       7.135  32.414  61.663  1.00  0.00     0.230 C 
HETATM   13  N   UNL     1       6.814  33.576  62.330  1.00  0.00    -0.326 N 
HETATM   14  H   UNL     1       7.120  34.441  61.893  1.00  0.00     0.169 HD
HETATM   15  O   UNL     1       6.991  31.270  62.089  1.00  0.00    -0.273 OA
BRANCH  13  16
HETATM   16  C   UNL     1       6.286  33.734  63.631  1.00  0.00     0.040 A 
HETATM   17  C   UNL     1       4.933  33.875  63.978  1.00  0.00    -0.035 A 
HETATM   18  C   UNL     1       4.586  33.932  65.346  1.00  0.00     0.015 A 
HETATM   19  C   UNL     1       3.806  34.032  62.998  1.00  0.00     0.050 C 
HETATM   20  C   UNL     1       5.554  33.931  66.357  1.00  0.00    -0.061 A 
HETATM   21  C   UNL     1       5.149  33.954  67.801  1.00  0.00     0.048 C 
HETATM   22  C   UNL     1       6.896  33.858  65.996  1.00  0.00     0.009 A 
HETATM   23  C   UNL     1       7.255  33.777  64.649  1.00  0.00     0.030 A 
ENDBRANCH  13  16
ENDBRANCH   1  12
BRANCH   2  24
HETATM   24  C   UNL     1       5.444  32.731  59.262  1.00  0.00    -0.032 A 
HETATM   25  C   UNL     1       5.143  34.056  58.906  1.00  0.00     0.012 A 
HETATM   26  C   UNL     1       3.842  34.553  59.027  1.00  0.00     0.037 A 
HETATM   27  C   UNL     1       2.814  33.735  59.490  1.00  0.00     0.068 A 
HETATM   28  C   UNL     1       3.104  32.432  59.889  1.00  0.00     0.037 A 
HETATM   29  C   UNL     1       4.409  31.937  59.783  1.00  0.00     0.012 A 
BRANCH  27  30
HETATM   30  O   UNL     1       1.579  34.319  59.540  1.00  0.00    -0.356 OA
HETATM   31  C   UNL     1       1.576  35.702  59.876  1.00  0.00     0.210 C 
ENDBRANCH  27  30
ENDBRANCH   2  24
TORSDOF 4
ENDMDL
MODEL 5
REMARK VINA RESULT:      -7.9      3.035      6.155
REMARK  4 active torsions:
REMARK  status: ('A' for Active; 'I' for Inactive)
REMARK    1  A    between atoms: C_6  and  N_7 
REMARK       I    between atoms: N_7  and  C_8 
REMARK    2  A    between atoms: C_8  and  C_9 
REMARK    3  A    between atoms: C_10  and  C_11 
REMARK    4  A    between atoms: C_14  and  O_15 
ROOT
HETATM    1  C   UNL     1       5.358  27.702  56.629  1.00  0.00     0.131 C 
HETATM    2  C   UNL     1       5.283  29.106  57.285  1.00  0.00     0.177 C 
HETATM    3  N   UNL     1       6.583  29.539  57.809  1.00  0.00    -0.088 N 
HETATM    4  C   UNL     1       7.652  28.699  57.997  1.00  0.00     0.721 A 
HETATM    5  N   UNL     1       7.617  27.415  57.579  1.00  0.00    -0.218 N 
HETATM    6  C   UNL     1       6.301  26.787  57.435  1.00  0.00     0.111 C 
HETATM    7  C   UNL     1       6.452  25.390  56.838  1.00  0.00     0.034 C 
HETATM    8  N   UNL     1       6.811  30.735  58.385  1.00  0.00    -0.149 NA
HETATM    9  C   UNL     1       8.071  30.583  58.803  1.00  0.00     0.275 A 
HETATM   10  N   UNL     1       8.622  29.350  58.580  1.00  0.00    -0.055 NA
HETATM   11  H   UNL     1       8.339  26.821  57.992  1.00  0.00     0.178 HD
ENDROOT
BRANCH   1  12
HETATM   12  C   UNL     1       5.681  27.752  55.134  1.00  0.00     0.230 C 
HETATM   13  N   UNL     1       4.708  27.249  54.300  1.00  0.00    -0.326 N 
HETATM   14  H   UNL     1       3.905  26.824  54.755  1.00  0.00     0.169 HD
HETATM   15  O   UNL     1       6.786  28.168  54.791  1.00  0.00    -0.273 OA
BRANCH  13  16
HETATM   16  C   UNL     1       4.748  27.067  52.899  1.00  0.00     0.040 A 
HETATM   17  C   UNL     1       5.159  25.914  52.212  1.00  0.00    -0.035 A 
HETATM   18  C   UNL     1       5.044  25.885  50.805  1.00  0.00     0.015 A 
HETATM   19  C   UNL     1       5.777  24.705  52.855  1.00  0.00     0.050 C 
HETATM   20  C   UNL     1       4.608  26.996  50.074  1.00  0.00    -0.061 A 
HETATM   21  C   UNL     1       4.462  26.919  48.583  1.00  0.00     0.048 C 
HETATM   22  C   UNL     1       4.267  28.157  50.762  1.00  0.00     0.009 A 
HETATM   23  C   UNL     1       4.352  28.194  52.156  1.00  0.00     0.030 A 
ENDBRANCH  13  16
ENDBRANCH   1  12
BRANCH   2  24
HETATM   24  C   UNL     1       4.558  30.150  56.444  1.00  0.00    -0.032 A 
HETATM   25  C   UNL     1       3.160  30.248  56.544  1.00  0.00     0.012 A 
HETATM   26  C   UNL     1       2.453  31.191  55.793  1.00  0.00     0.037 A 
HETATM   27  C   UNL     1       3.125  32.063  54.940  1.00  0.00     0.068 A 
HETATM   28  C   UNL     1       4.505  31.949  54.795  1.00  0.00     0.037 A 
HETATM   29  C   UNL     1       5.215  30.996  55.535  1.00  0.00     0.012 A 
BRANCH  27  30
HETATM   30  O   UNL     1       2.333  32.961  54.278  1.00  0.00    -0.356 OA
HETATM   31  C   UNL     1       1.024  33.124  54.813  1.00  0.00     0.210 C 
ENDBRANCH  27  30
ENDBRANCH   2  24
TORSDOF 4
ENDMDL
MODEL 6
REMARK VINA RESULT:      -7.9      3.668      7.001
REMARK  4 active torsions:
REMARK  status: ('A' for Active; 'I' for Inactive)
REMARK    1  A    between atoms: C_6  and  N_7 
REMARK       I    between atoms: N_7  and  C_8 
REMARK    2  A    between atoms: C_8  and  C_9 
REMARK    3  A    between atoms: C_10  and  C_11 
REMARK    4  A    between atoms: C_14  and  O_15 
ROOT
HETATM    1  C   UNL     1       3.614  30.238  51.719  1.00  0.00     0.131 C 
HETATM    2  C   UNL     1       3.470  30.618  50.221  1.00  0.00     0.177 C 
HETATM    3  N   UNL     1       4.396  31.686  49.833  1.00  0.00    -0.088 N 
HETATM    4  C   UNL     1       5.071  32.479  50.727  1.00  0.00     0.721 A 
HETATM    5  N   UNL     1       5.026  32.235  52.054  1.00  0.00    -0.218 N 
HETATM    6  C   UNL     1       3.865  31.502  52.567  1.00  0.00     0.111 C 
HETATM    7  C   UNL     1       4.047  31.210  54.054  1.00  0.00     0.034 C 
HETATM    8  N   UNL     1       4.514  32.173  48.582  1.00  0.00    -0.149 NA
HETATM    9  C   UNL     1       5.358  33.191  48.781  1.00  0.00     0.275 A 
HETATM   10  N   UNL     1       5.726  33.407  50.082  1.00  0.00    -0.055 NA
HETATM   11  H   UNL     1       5.336  33.016  52.635  1.00  0.00     0.178 HD
ENDROOT
BRANCH   1  12
HETATM   12  C   UNL     1       4.634  29.123  51.962  1.00  0.00     0.230 C 
HETATM   13  N   UNL     1       4.118  27.946  52.458  1.00  0.00    -0.326 N 
HETATM   14  H   UNL     1       3.129  27.954  52.688  1.00  0.00     0.169 HD
HETATM   15  O   UNL     1       5.822  29.368  51.765  1.00  0.00    -0.273 OA
BRANCH  13  16
HETATM   16  C   UNL     1       4.805  26.783  52.873  1.00  0.00     0.040 A 
HETATM   17  C   UNL     1       5.252  25.733  52.056  1.00  0.00    -0.035 A 
HETATM   18  C   UNL     1       6.003  24.690  52.641  1.00  0.00     0.015 A 
HETATM   19  C   UNL     1       4.942  25.591  50.593  1.00  0.00     0.050 C 
HETATM   20  C   UNL     1       6.248  24.635  54.018  1.00  0.00    -0.061 A 
HETATM   21  C   UNL     1       7.082  23.534  54.601  1.00  0.00     0.048 C 
HETATM   22  C   UNL     1       5.742  25.649  54.827  1.00  0.00     0.009 A 
HETATM   23  C   UNL     1       5.017  26.700  54.261  1.00  0.00     0.030 A 
ENDBRANCH  13  16
ENDBRANCH   1  12
BRANCH   2  24
HETATM   24  C   UNL     1       3.445  29.423  49.275  1.00  0.00    -0.032 A 
HETATM   25  C   UNL     1       2.280  28.640  49.204  1.00  0.00     0.012 A 
HETATM   26  C   UNL     1       2.210  27.537  48.350  1.00  0.00     0.037 A 
HETATM   27  C   UNL     1       3.292  27.201  47.539  1.00  0.00     0.068 A 
HETATM   28  C   UNL     1       4.469  27.940  47.630  1.00  0.00     0.037 A 
HETATM   29  C   UNL     1       4.547  29.037  48.496  1.00  0.00     0.012 A 
BRANCH  27  30
HETATM   30  O   UNL     1       3.100  26.120  46.724  1.00  0.00    -0.356 OA
HETATM   31  C   UNL     1       2.955  24.873  47.395  1.00  0.00     0.210 C 
ENDBRANCH  27  30
ENDBRANCH   2  24
TORSDOF 4
ENDMDL
MODEL 7
REMARK VINA RESULT:      -7.9      3.019      6.267
REMARK  4 active torsions:
REMARK  status: ('A' for Active; 'I' for Inactive)
REMARK    1  A    between atoms: C_6  and  N_7 
REMARK       I    between atoms: N_7  and  C_8 
REMARK    2  A    between atoms: C_8  and  C_9 
REMARK    3  A    between atoms: C_10  and  C_11 
REMARK    4  A    between atoms: C_14  and  O_15 
ROOT
HETATM    1  C   UNL     1       5.580  27.647  56.605  1.00  0.00     0.131 C 
HETATM    2  C   UNL     1       5.509  29.005  57.353  1.00  0.00     0.177 C 
HETATM    3  N   UNL     1       6.832  29.461  57.792  1.00  0.00    -0.088 N 
HETATM    4  C   UNL     1       7.945  28.659  57.836  1.00  0.00     0.721 A 
HETATM    5  N   UNL     1       7.923  27.402  57.341  1.00  0.00    -0.218 N 
HETATM    6  C   UNL     1       6.624  26.727  57.269  1.00  0.00     0.111 C 
HETATM    7  C   UNL     1       6.775  25.377  56.573  1.00  0.00     0.034 C 
HETATM    8  N   UNL     1       7.063  30.629  58.421  1.00  0.00    -0.149 NA
HETATM    9  C   UNL     1       8.360  30.507  58.722  1.00  0.00     0.275 A 
HETATM   10  N   UNL     1       8.936  29.315  58.375  1.00  0.00    -0.055 NA
HETATM   11  H   UNL     1       8.699  26.816  57.654  1.00  0.00     0.178 HD
ENDROOT
BRANCH   1  12
HETATM   12  C   UNL     1       5.771  27.801  55.094  1.00  0.00     0.230 C 
HETATM   13  N   UNL     1       4.711  27.388  54.318  1.00  0.00    -0.326 N 
HETATM   14  H   UNL     1       3.939  26.951  54.812  1.00  0.00     0.169 HD
HETATM   15  O   UNL     1       6.854  28.213  54.683  1.00  0.00    -0.273 OA
BRANCH  13  16
HETATM   16  C   UNL     1       4.620  27.311  52.910  1.00  0.00     0.040 A 
HETATM   17  C   UNL     1       4.098  28.286  52.045  1.00  0.00    -0.035 A 
HETATM   18  C   UNL     1       4.174  28.069  50.653  1.00  0.00     0.015 A 
HETATM   19  C   UNL     1       3.397  29.539  52.488  1.00  0.00     0.050 C 
HETATM   20  C   UNL     1       4.682  26.882  50.114  1.00  0.00    -0.061 A 
HETATM   21  C   UNL     1       4.783  26.699  48.629  1.00  0.00     0.048 C 
HETATM   22  C   UNL     1       5.136  25.895  50.983  1.00  0.00     0.009 A 
HETATM   23  C   UNL     1       5.090  26.103  52.364  1.00  0.00     0.030 A 
ENDBRANCH  13  16
ENDBRANCH   1  12
BRANCH   2  24
HETATM   24  C   UNL     1       4.675  30.065  56.644  1.00  0.00    -0.032 A 
HETATM   25  C   UNL     1       5.332  31.063  55.905  1.00  0.00     0.012 A 
HETATM   26  C   UNL     1       4.609  32.054  55.237  1.00  0.00     0.037 A 
HETATM   27  C   UNL     1       3.217  32.061  55.277  1.00  0.00     0.068 A 
HETATM   28  C   UNL     1       2.551  31.105  56.041  1.00  0.00     0.037 A 
HETATM   29  C   UNL     1       3.274  30.120  56.724  1.00  0.00     0.012 A 
BRANCH  27  30
HETATM   30  O   UNL     1       2.615  33.060  54.563  1.00  0.00    -0.356 OA
HETATM   31  C   UNL     1       1.197  33.122  54.684  1.00  0.00     0.210 C 
ENDBRANCH  27  30
ENDBRANCH   2  24
TORSDOF 4
ENDMDL
MODEL 8
REMARK VINA RESULT:      -7.8      3.294      6.562
REMARK  4 active torsions:
REMARK  status: ('A' for Active; 'I' for Inactive)
REMARK    1  A    between atoms: C_6  and  N_7 
REMARK       I    between atoms: N_7  and  C_8 
REMARK    2  A    between atoms: C_8  and  C_9 
REMARK    3  A    between atoms: C_10  and  C_11 
REMARK    4  A    between atoms: C_14  and  O_15 
ROOT
HETATM    1  C   UNL     1       3.348  29.706  52.333  1.00  0.00     0.131 C 
HETATM    2  C   UNL     1       3.102  30.249  50.900  1.00  0.00     0.177 C 
HETATM    3  N   UNL     1       3.835  31.494  50.650  1.00  0.00    -0.088 N 
HETATM    4  C   UNL     1       4.400  32.263  51.636  1.00  0.00     0.721 A 
HETATM    5  N   UNL     1       4.434  31.844  52.919  1.00  0.00    -0.218 N 
HETATM    6  C   UNL     1       3.419  30.872  53.339  1.00  0.00     0.111 C 
HETATM    7  C   UNL     1       3.689  30.423  54.773  1.00  0.00     0.034 C 
HETATM    8  N   UNL     1       3.837  32.152  49.474  1.00  0.00    -0.149 NA
HETATM    9  C   UNL     1       4.513  33.258  49.800  1.00  0.00     0.275 A 
HETATM   10  N   UNL     1       4.879  33.360  51.115  1.00  0.00    -0.055 NA
HETATM   11  H   UNL     1       4.632  32.583  53.596  1.00  0.00     0.178 HD
ENDROOT
BRANCH   1  12
HETATM   12  C   UNL     1       4.540  28.749  52.418  1.00  0.00     0.230 C 
HETATM   13  N   UNL     1       4.234  27.452  52.767  1.00  0.00    -0.326 N 
HETATM   14  H   UNL     1       3.265  27.271  53.010  1.00  0.00     0.169 HD
HETATM   15  O   UNL     1       5.667  29.205  52.236  1.00  0.00    -0.273 OA
BRANCH  13  16
HETATM   16  C   UNL     1       5.110  26.373  53.021  1.00  0.00     0.040 A 
HETATM   17  C   UNL     1       5.570  25.940  54.275  1.00  0.00    -0.035 A 
HETATM   18  C   UNL     1       6.373  24.781  54.340  1.00  0.00     0.015 A 
HETATM   19  C   UNL     1       5.324  26.654  55.574  1.00  0.00     0.050 C 
HETATM   20  C   UNL     1       6.786  24.099  53.190  1.00  0.00    -0.061 A 
HETATM   21  C   UNL     1       7.608  22.849  53.296  1.00  0.00     0.048 C 
HETATM   22  C   UNL     1       6.378  24.577  51.947  1.00  0.00     0.009 A 
HETATM   23  C   UNL     1       5.563  25.709  51.867  1.00  0.00     0.030 A 
ENDBRANCH  13  16
ENDBRANCH   1  12
BRANCH   2  24
HETATM   24  C   UNL     1       3.240  29.199  49.804  1.00  0.00    -0.032 A 
HETATM   25  C   UNL     1       2.109  28.451  49.436  1.00  0.00     0.012 A 
HETATM   26  C   UNL     1       2.187  27.479  48.435  1.00  0.00     0.037 A 
HETATM   27  C   UNL     1       3.388  27.244  47.770  1.00  0.00     0.068 A 
HETATM   28  C   UNL     1       4.530  27.945  48.153  1.00  0.00     0.037 A 
HETATM   29  C   UNL     1       4.458  28.909  49.166  1.00  0.00     0.012 A 
BRANCH  27  30
HETATM   30  O   UNL     1       3.339  26.291  46.791  1.00  0.00    -0.356 OA
HETATM   31  C   UNL     1       2.942  24.995  47.226  1.00  0.00     0.210 C 
ENDBRANCH  27  30
ENDBRANCH   2  24
TORSDOF 4
ENDMDL
MODEL 9
REMARK VINA RESULT:      -7.4      2.858      6.087
REMARK  4 active torsions:
REMARK  status: ('A' for Active; 'I' for Inactive)
REMARK    1  A    between atoms: C_6  and  N_7 
REMARK       I    between atoms: N_7  and  C_8 
REMARK    2  A    between atoms: C_8  and  C_9 
REMARK    3  A    between atoms: C_10  and  C_11 
REMARK    4  A    between atoms: C_14  and  O_15 
ROOT
HETATM    1  C   UNL     1       3.489  29.569  54.106  1.00  0.00     0.131 C 
HETATM    2  C   UNL     1       3.295  30.530  52.904  1.00  0.00     0.177 C 
HETATM    3  N   UNL     1       4.037  31.783  53.075  1.00  0.00    -0.088 N 
HETATM    4  C   UNL     1       4.567  32.204  54.269  1.00  0.00     0.721 A 
HETATM    5  N   UNL     1       4.554  31.408  55.361  1.00  0.00    -0.218 N 
HETATM    6  C   UNL     1       3.525  30.367  55.425  1.00  0.00     0.111 C 
HETATM    7  C   UNL     1       3.743  29.494  56.659  1.00  0.00     0.034 C 
HETATM    8  N   UNL     1       4.081  32.772  52.161  1.00  0.00    -0.149 NA
HETATM    9  C   UNL     1       4.746  33.716  52.836  1.00  0.00     0.275 A 
HETATM   10  N   UNL     1       5.065  33.402  54.129  1.00  0.00    -0.055 NA
HETATM   11  H   UNL     1       4.729  31.900  56.239  1.00  0.00     0.178 HD
ENDROOT
BRANCH   1  12
HETATM   12  C   UNL     1       4.677  28.618  53.932  1.00  0.00     0.230 C 
HETATM   13  N   UNL     1       4.351  27.300  53.706  1.00  0.00    -0.326 N 
HETATM   14  H   UNL     1       3.363  27.068  53.753  1.00  0.00     0.169 HD
HETATM   15  O   UNL     1       5.811  29.073  54.065  1.00  0.00    -0.273 OA
BRANCH  13  16
HETATM   16  C   UNL     1       5.208  26.180  53.604  1.00  0.00     0.040 A 
HETATM   17  C   UNL     1       5.647  25.562  52.423  1.00  0.00    -0.035 A 
HETATM   18  C   UNL     1       6.578  24.504  52.516  1.00  0.00     0.015 A 
HETATM   19  C   UNL     1       5.156  25.897  51.043  1.00  0.00     0.050 C 
HETATM   20  C   UNL     1       7.013  24.006  53.749  1.00  0.00    -0.061 A 
HETATM   21  C   UNL     1       8.031  22.907  53.813  1.00  0.00     0.048 C 
HETATM   22  C   UNL     1       6.519  24.585  54.915  1.00  0.00     0.009 A 
HETATM   23  C   UNL     1       5.615  25.648  54.840  1.00  0.00     0.030 A 
ENDBRANCH  13  16
ENDBRANCH   1  12
BRANCH   2  24
HETATM   24  C   UNL     1       3.471  29.869  51.542  1.00  0.00    -0.032 A 
HETATM   25  C   UNL     1       4.710  29.983  50.888  1.00  0.00     0.012 A 
HETATM   26  C   UNL     1       4.918  29.392  49.640  1.00  0.00     0.037 A 
HETATM   27  C   UNL     1       3.903  28.662  49.025  1.00  0.00     0.068 A 
HETATM   28  C   UNL     1       2.656  28.577  49.638  1.00  0.00     0.037 A 
HETATM   29  C   UNL     1       2.439  29.181  50.883  1.00  0.00     0.012 A 
BRANCH  27  30
HETATM   30  O   UNL     1       4.230  28.105  47.820  1.00  0.00    -0.356 OA
HETATM   31  C   UNL     1       3.622  26.846  47.550  1.00  0.00     0.210 C 
ENDBRANCH  27  30
ENDBRANCH   2  24
TORSDOF 4
ENDMDL
MODEL 10
REMARK VINA RESULT:      -7.4      9.564     13.418
REMARK  4 active torsions:
REMARK  status: ('A' for Active; 'I' for Inactive)
REMARK    1  A    between atoms: C_6  and  N_7 
REMARK       I    between atoms: N_7  and  C_8 
REMARK    2  A    between atoms: C_8  and  C_9 
REMARK    3  A    between atoms: C_10  and  C_11 
REMARK    4  A    between atoms: C_14  and  O_15 
ROOT
HETATM    1  C   UNL     1       3.927  33.661  62.598  1.00  0.00     0.131 C 
HETATM    2  C   UNL     1       5.059  32.879  63.316  1.00  0.00     0.177 C 
HETATM    3  N   UNL     1       6.214  32.656  62.440  1.00  0.00    -0.088 N 
HETATM    4  C   UNL     1       6.186  32.816  61.077  1.00  0.00     0.721 A 
HETATM    5  N   UNL     1       5.103  33.330  60.454  1.00  0.00    -0.218 N 
HETATM    6  C   UNL     1       3.809  33.201  61.131  1.00  0.00     0.111 C 
HETATM    7  C   UNL     1       2.733  33.945  60.344  1.00  0.00     0.034 C 
HETATM    8  N   UNL     1       7.352  32.045  62.823  1.00  0.00    -0.149 NA
HETATM    9  C   UNL     1       8.006  31.968  61.660  1.00  0.00     0.275 A 
HETATM   10  N   UNL     1       7.325  32.434  60.568  1.00  0.00    -0.055 NA
HETATM   11  H   UNL     1       5.083  33.165  59.446  1.00  0.00     0.178 HD
ENDROOT
BRANCH   1  12
HETATM   12  C   UNL     1       4.047  35.179  62.758  1.00  0.00     0.230 C 
HETATM   13  N   UNL     1       5.310  35.695  62.573  1.00  0.00    -0.326 N 
HETATM   14  H   UNL     1       6.053  35.018  62.426  1.00  0.00     0.169 HD
HETATM   15  O   UNL     1       3.048  35.809  63.095  1.00  0.00    -0.273 OA
BRANCH  13  16
HETATM   16  C   UNL     1       5.759  37.024  62.746  1.00  0.00     0.040 A 
HETATM   17  C   UNL     1       5.746  37.767  63.937  1.00  0.00    -0.035 A 
HETATM   18  C   UNL     1       6.322  39.056  63.938  1.00  0.00     0.015 A 
HETATM   19  C   UNL     1       5.106  37.322  65.222  1.00  0.00     0.050 C 
HETATM   20  C   UNL     1       6.833  39.641  62.774  1.00  0.00    -0.061 A 
HETATM   21  C   UNL     1       7.472  40.997  62.818  1.00  0.00     0.048 C 
HETATM   22  C   UNL     1       6.779  38.920  61.585  1.00  0.00     0.009 A 
HETATM   23  C   UNL     1       6.234  37.634  61.571  1.00  0.00     0.030 A 
ENDBRANCH  13  16
ENDBRANCH   1  12
BRANCH   2  24
HETATM   24  C   UNL     1       5.406  33.415  64.700  1.00  0.00    -0.032 A 
HETATM   25  C   UNL     1       4.365  33.658  65.612  1.00  0.00     0.012 A 
HETATM   26  C   UNL     1       4.635  34.147  66.893  1.00  0.00     0.037 A 
HETATM   27  C   UNL     1       5.946  34.389  67.295  1.00  0.00     0.068 A 
HETATM   28  C   UNL     1       6.986  34.195  66.388  1.00  0.00     0.037 A 
HETATM   29  C   UNL     1       6.717  33.719  65.100  1.00  0.00     0.012 A 
BRANCH  27  30
HETATM   30  O   UNL     1       6.092  34.838  68.579  1.00  0.00    -0.356 OA
HETATM   31  C   UNL     1       7.436  34.935  69.037  1.00  0.00     0.210 C 
ENDBRANCH  27  30
ENDBRANCH   2  24
TORSDOF 4
ENDMDL
