MODEL 1
REMARK VINA RESULT:     -10.5      0.000      0.000
REMARK  6 active torsions:
REMARK  status: ('A' for Active; 'I' for Inactive)
REMARK    1  A    between atoms: C_7  and  S_8 
REMARK    2  A    between atoms: S_8  and  C_9 
REMARK    3  A    between atoms: C_9  and  C_10 
REMARK    4  A    between atoms: C_18  and  C_19 
REMARK    5  A    between atoms: C_29  and  C_30 
REMARK    6  A    between atoms: C_30  and  O_31 
ROOT
HETATM    1  C   UNL     1       3.708  29.013  55.082  1.00  0.00     0.070 C 
HETATM    2  C   UNL     1       4.834  28.439  55.904  1.00  0.00     0.037 A 
HETATM    3  N   UNL     1       5.061  27.079  55.743  1.00  0.00    -0.192 N 
HETATM    4  C   UNL     1       6.033  26.407  56.385  1.00  0.00     0.726 A 
HETATM    5  N   UNL     1       6.827  27.062  57.286  1.00  0.00    -0.082 N 
HETATM    6  N   UNL     1       7.710  26.216  57.862  1.00  0.00    -0.128 NA
HETATM    7  C   UNL     1       7.442  25.083  57.196  1.00  0.00     0.226 A 
HETATM    8  N   UNL     1       6.407  25.160  56.299  1.00  0.00    -0.035 NA
HETATM    9  C   UNL     1       6.700  28.497  57.605  1.00  0.00     0.204 A 
HETATM   10  C   UNL     1       5.594  29.148  56.775  1.00  0.00     0.070 A 
HETATM   11  H   UNL     1       4.491  26.582  55.063  1.00  0.00     0.184 HD
ENDROOT
BRANCH   9  12
HETATM   12  C   UNL     1       8.051  29.208  57.445  1.00  0.00    -0.017 A 
HETATM   13  C   UNL     1       8.556  30.128  58.419  1.00  0.00    -0.017 A 
HETATM   14  C   UNL     1       9.784  30.790  58.151  1.00  0.00    -0.025 A 
HETATM   15  C   UNL     1       7.916  30.449  59.644  1.00  0.00     0.013 A 
HETATM   16  C   UNL     1      10.309  31.719  59.066  1.00  0.00     0.012 A 
HETATM   17  C   UNL     1      10.483  30.529  56.965  1.00  0.00     0.012 A 
HETATM   18  C   UNL     1       9.645  32.014  60.254  1.00  0.00     0.001 A 
HETATM   19  C   UNL     1       8.450  31.378  60.543  1.00  0.00     0.001 A 
HETATM   20  C   UNL     1       9.990  29.632  56.025  1.00  0.00     0.002 A 
HETATM   21  C   UNL     1       8.785  28.984  56.258  1.00  0.00     0.010 A 
ENDBRANCH   9  12
BRANCH  10  22
HETATM   22  C   UNL     1       5.430  30.607  56.910  1.00  0.00     0.293 C 
HETATM   23  O   UNL     1       5.663  31.409  56.019  1.00  0.00    -0.259 OA
BRANCH  22  24
HETATM   24  O   UNL     1       4.979  30.897  58.154  1.00  0.00    -0.323 OA
HETATM   25  C   UNL     1       3.554  30.944  58.243  1.00  0.00     0.213 C 
ENDBRANCH  22  24
ENDBRANCH  10  22
BRANCH   7  26
HETATM   26  S   UNL     1       8.357  23.613  57.373  1.00  0.00    -0.083 SA
BRANCH  26  27
HETATM   27  C   UNL     1       9.334  23.592  55.847  1.00  0.00     0.123 C 
BRANCH  27  28
HETATM   28  C   UNL     1       8.849  22.503  54.914  1.00  0.00    -0.027 A 
HETATM   29  C   UNL     1       8.271  22.771  53.662  1.00  0.00     0.041 A 
HETATM   30 CL   UNL     1       8.009  24.384  53.100  1.00  0.00    -0.084 Cl
HETATM   31  C   UNL     1       7.885  21.723  52.818  1.00  0.00     0.024 A 
HETATM   32  C   UNL     1       8.069  20.399  53.210  1.00  0.00     0.002 A 
HETATM   33  C   UNL     1       8.640  20.116  54.447  1.00  0.00     0.001 A 
HETATM   34  C   UNL     1       9.030  21.158  55.290  1.00  0.00     0.009 A 
ENDBRANCH  27  28
ENDBRANCH  26  27
ENDBRANCH   7  26
TORSDOF 6
ENDMDL
MODEL 2
REMARK VINA RESULT:      -9.7      3.509      8.444
REMARK  6 active torsions:
REMARK  status: ('A' for Active; 'I' for Inactive)
REMARK    1  A    between atoms: C_7  and  S_8 
REMARK    2  A    between atoms: S_8  and  C_9 
REMARK    3  A    between atoms: C_9  and  C_10 
REMARK    4  A    between atoms: C_18  and  C_19 
REMARK    5  A    between atoms: C_29  and  C_30 
REMARK    6  A    between atoms: C_30  and  O_31 
ROOT
HETATM    1  C   UNL     1       3.331  30.633  53.985  1.00  0.00     0.070 C 
HETATM    2  C   UNL     1       4.551  30.086  54.682  1.00  0.00     0.037 A 
HETATM    3  N   UNL     1       4.949  30.771  55.822  1.00  0.00    -0.192 N 
HETATM    4  C   UNL     1       6.004  30.412  56.574  1.00  0.00     0.726 A 
HETATM    5  N   UNL     1       6.774  29.347  56.195  1.00  0.00    -0.082 N 
HETATM    6  N   UNL     1       7.811  29.169  57.044  1.00  0.00    -0.128 NA
HETATM    7  C   UNL     1       7.551  30.116  57.958  1.00  0.00     0.226 A 
HETATM    8  N   UNL     1       6.464  30.909  57.689  1.00  0.00    -0.035 NA
HETATM    9  C   UNL     1       6.516  28.531  54.993  1.00  0.00     0.204 A 
HETATM   10  C   UNL     1       5.267  29.014  54.259  1.00  0.00     0.070 A 
HETATM   11  H   UNL     1       4.376  31.554  56.127  1.00  0.00     0.184 HD
ENDROOT
BRANCH   9  12
HETATM   12  C   UNL     1       6.445  27.041  55.356  1.00  0.00    -0.017 A 
HETATM   13  C   UNL     1       6.965  26.015  54.504  1.00  0.00    -0.017 A 
HETATM   14  C   UNL     1       6.792  24.660  54.891  1.00  0.00    -0.025 A 
HETATM   15  C   UNL     1       7.641  26.243  53.277  1.00  0.00     0.013 A 
HETATM   16  C   UNL     1       7.266  23.617  54.077  1.00  0.00     0.012 A 
HETATM   17  C   UNL     1       6.138  24.347  56.090  1.00  0.00     0.012 A 
HETATM   18  C   UNL     1       7.915  23.882  52.875  1.00  0.00     0.001 A 
HETATM   19  C   UNL     1       8.105  25.194  52.475  1.00  0.00     0.001 A 
HETATM   20  C   UNL     1       5.638  25.346  56.917  1.00  0.00     0.002 A 
HETATM   21  C   UNL     1       5.783  26.678  56.551  1.00  0.00     0.010 A 
ENDBRANCH   9  12
BRANCH  10  22
HETATM   22  C   UNL     1       4.826  28.220  53.098  1.00  0.00     0.293 C 
HETATM   23  O   UNL     1       3.952  27.367  53.142  1.00  0.00    -0.259 OA
BRANCH  22  24
HETATM   24  O   UNL     1       5.529  28.594  52.002  1.00  0.00    -0.323 OA
HETATM   25  C   UNL     1       5.171  27.867  50.825  1.00  0.00     0.213 C 
ENDBRANCH  22  24
ENDBRANCH  10  22
BRANCH   7  26
HETATM   26  S   UNL     1       8.459  30.322  59.428  1.00  0.00    -0.083 SA
BRANCH  26  27
HETATM   27  C   UNL     1       8.357  32.113  59.686  1.00  0.00     0.123 C 
BRANCH  27  28
HETATM   28  C   UNL     1       7.797  32.426  61.057  1.00  0.00    -0.027 A 
HETATM   29  C   UNL     1       6.483  32.879  61.261  1.00  0.00     0.041 A 
HETATM   30 CL   UNL     1       5.401  33.174  59.945  1.00  0.00    -0.084 Cl
HETATM   31  C   UNL     1       6.001  33.106  62.555  1.00  0.00     0.024 A 
HETATM   32  C   UNL     1       6.821  32.887  63.660  1.00  0.00     0.002 A 
HETATM   33  C   UNL     1       8.126  32.438  63.476  1.00  0.00     0.001 A 
HETATM   34  C   UNL     1       8.609  32.207  62.187  1.00  0.00     0.009 A 
ENDBRANCH  27  28
ENDBRANCH  26  27
ENDBRANCH   7  26
TORSDOF 6
ENDMDL
MODEL 3
REMARK VINA RESULT:      -9.0      1.881      2.691
REMARK  6 active torsions:
REMARK  status: ('A' for Active; 'I' for Inactive)
REMARK    1  A    between atoms: C_7  and  S_8 
REMARK    2  A    between atoms: S_8  and  C_9 
REMARK    3  A    between atoms: C_9  and  C_10 
REMARK    4  A    between atoms: C_18  and  C_19 
REMARK    5  A    between atoms: C_29  and  C_30 
REMARK    6  A    between atoms: C_30  and  O_31 
ROOT
HETATM    1  C   UNL     1       4.533  31.973  55.192  1.00  0.00     0.070 C 
HETATM    2  C   UNL     1       5.263  31.060  56.144  1.00  0.00     0.037 A 
HETATM    3  N   UNL     1       5.676  29.846  55.612  1.00  0.00    -0.192 N 
HETATM    4  C   UNL     1       6.352  28.920  56.313  1.00  0.00     0.726 A 
HETATM    5  N   UNL     1       6.622  29.136  57.636  1.00  0.00    -0.082 N 
HETATM    6  N   UNL     1       7.265  28.079  58.181  1.00  0.00    -0.128 NA
HETATM    7  C   UNL     1       7.421  27.297  57.102  1.00  0.00     0.226 A 
HETATM    8  N   UNL     1       6.856  27.773  55.946  1.00  0.00    -0.035 NA
HETATM    9  C   UNL     1       6.225  30.353  58.369  1.00  0.00     0.204 A 
HETATM   10  C   UNL     1       5.509  31.339  57.448  1.00  0.00     0.070 A 
HETATM   11  H   UNL     1       5.499  29.678  54.624  1.00  0.00     0.184 HD
ENDROOT
BRANCH   9  12
HETATM   12  C   UNL     1       7.436  30.980  59.074  1.00  0.00    -0.017 A 
HETATM   13  C   UNL     1       7.373  31.480  60.414  1.00  0.00    -0.017 A 
HETATM   14  C   UNL     1       8.526  32.106  60.958  1.00  0.00    -0.025 A 
HETATM   15  C   UNL     1       6.232  31.412  61.254  1.00  0.00     0.013 A 
HETATM   16  C   UNL     1       8.506  32.632  62.261  1.00  0.00     0.012 A 
HETATM   17  C   UNL     1       9.697  32.212  60.196  1.00  0.00     0.012 A 
HETATM   18  C   UNL     1       7.363  32.554  63.051  1.00  0.00     0.001 A 
HETATM   19  C   UNL     1       6.226  31.943  62.548  1.00  0.00     0.001 A 
HETATM   20  C   UNL     1       9.754  31.721  58.897  1.00  0.00     0.002 A 
HETATM   21  C   UNL     1       8.635  31.119  58.338  1.00  0.00     0.010 A 
ENDBRANCH   9  12
BRANCH  10  22
HETATM   22  C   UNL     1       5.152  32.650  58.022  1.00  0.00     0.293 C 
HETATM   23  O   UNL     1       5.748  33.689  57.783  1.00  0.00    -0.259 OA
BRANCH  22  24
HETATM   24  O   UNL     1       4.073  32.510  58.829  1.00  0.00    -0.323 OA
HETATM   25  C   UNL     1       3.723  33.712  59.518  1.00  0.00     0.213 C 
ENDBRANCH  22  24
ENDBRANCH  10  22
BRANCH   7  26
HETATM   26  S   UNL     1       8.324  25.810  57.103  1.00  0.00    -0.083 SA
BRANCH  26  27
HETATM   27  C   UNL     1       7.047  24.594  56.685  1.00  0.00     0.123 C 
BRANCH  27  28
HETATM   28  C   UNL     1       7.376  23.896  55.383  1.00  0.00    -0.027 A 
HETATM   29  C   UNL     1       6.664  24.124  54.193  1.00  0.00     0.041 A 
HETATM   30 CL   UNL     1       5.303  25.187  54.129  1.00  0.00    -0.084 Cl
HETATM   31  C   UNL     1       7.042  23.489  53.005  1.00  0.00     0.024 A 
HETATM   32  C   UNL     1       8.132  22.620  52.987  1.00  0.00     0.002 A 
HETATM   33  C   UNL     1       8.848  22.383  54.157  1.00  0.00     0.001 A 
HETATM   34  C   UNL     1       8.476  23.018  55.343  1.00  0.00     0.009 A 
ENDBRANCH  27  28
ENDBRANCH  26  27
ENDBRANCH   7  26
TORSDOF 6
ENDMDL
MODEL 4
REMARK VINA RESULT:      -8.7      5.430      6.851
REMARK  6 active torsions:
REMARK  status: ('A' for Active; 'I' for Inactive)
REMARK    1  A    between atoms: C_7  and  S_8 
REMARK    2  A    between atoms: S_8  and  C_9 
REMARK    3  A    between atoms: C_9  and  C_10 
REMARK    4  A    between atoms: C_18  and  C_19 
REMARK    5  A    between atoms: C_29  and  C_30 
REMARK    6  A    between atoms: C_30  and  O_31 
ROOT
HETATM    1  C   UNL     1       2.866  26.457  47.737  1.00  0.00     0.070 C 
HETATM    2  C   UNL     1       3.497  26.989  48.999  1.00  0.00     0.037 A 
HETATM    3  N   UNL     1       4.412  26.146  49.614  1.00  0.00    -0.192 N 
HETATM    4  C   UNL     1       5.079  26.466  50.736  1.00  0.00     0.726 A 
HETATM    5  N   UNL     1       4.831  27.661  51.354  1.00  0.00    -0.082 N 
HETATM    6  N   UNL     1       5.558  27.783  52.488  1.00  0.00    -0.128 NA
HETATM    7  C   UNL     1       6.284  26.656  52.443  1.00  0.00     0.226 A 
HETATM    8  N   UNL     1       6.001  25.817  51.394  1.00  0.00    -0.035 NA
HETATM    9  C   UNL     1       3.865  28.659  50.857  1.00  0.00     0.204 A 
HETATM   10  C   UNL     1       3.214  28.193  49.556  1.00  0.00     0.070 A 
HETATM   11  H   UNL     1       4.622  25.261  49.157  1.00  0.00     0.184 HD
ENDROOT
BRANCH   9  12
HETATM   12  C   UNL     1       4.531  30.035  50.721  1.00  0.00    -0.017 A 
HETATM   13  C   UNL     1       4.159  31.154  51.534  1.00  0.00    -0.017 A 
HETATM   14  C   UNL     1       4.784  32.406  51.289  1.00  0.00    -0.025 A 
HETATM   15  C   UNL     1       3.195  31.118  52.574  1.00  0.00     0.013 A 
HETATM   16  C   UNL     1       4.436  33.538  52.045  1.00  0.00     0.012 A 
HETATM   17  C   UNL     1       5.750  32.527  50.281  1.00  0.00     0.012 A 
HETATM   18  C   UNL     1       3.477  33.465  53.051  1.00  0.00     0.001 A 
HETATM   19  C   UNL     1       2.857  32.255  53.316  1.00  0.00     0.001 A 
HETATM   20  C   UNL     1       6.111  31.437  49.498  1.00  0.00     0.002 A 
HETATM   21  C   UNL     1       5.504  30.207  49.709  1.00  0.00     0.010 A 
ENDBRANCH   9  12
BRANCH  10  22
HETATM   22  C   UNL     1       2.307  29.143  48.886  1.00  0.00     0.293 C 
HETATM   23  O   UNL     1       2.513  29.628  47.784  1.00  0.00    -0.259 OA
BRANCH  22  24
HETATM   24  O   UNL     1       1.231  29.371  49.676  1.00  0.00    -0.323 OA
HETATM   25  C   UNL     1       0.865  30.751  49.748  1.00  0.00     0.213 C 
ENDBRANCH  22  24
ENDBRANCH  10  22
BRANCH   7  26
HETATM   26  S   UNL     1       7.551  26.272  53.571  1.00  0.00    -0.083 SA
BRANCH  26  27
HETATM   27  C   UNL     1       6.801  24.935  54.539  1.00  0.00     0.123 C 
BRANCH  27  28
HETATM   28  C   UNL     1       7.550  23.636  54.330  1.00  0.00    -0.027 A 
HETATM   29  C   UNL     1       8.391  23.075  55.305  1.00  0.00     0.041 A 
HETATM   30 CL   UNL     1       8.690  23.856  56.817  1.00  0.00    -0.084 Cl
HETATM   31  C   UNL     1       9.020  21.845  55.079  1.00  0.00     0.024 A 
HETATM   32  C   UNL     1       8.821  21.162  53.880  1.00  0.00     0.002 A 
HETATM   33  C   UNL     1       7.990  21.705  52.904  1.00  0.00     0.001 A 
HETATM   34  C   UNL     1       7.358  22.929  53.128  1.00  0.00     0.009 A 
ENDBRANCH  27  28
ENDBRANCH  26  27
ENDBRANCH   7  26
TORSDOF 6
ENDMDL
MODEL 5
REMARK VINA RESULT:      -8.4      4.004      6.487
REMARK  6 active torsions:
REMARK  status: ('A' for Active; 'I' for Inactive)
REMARK    1  A    between atoms: C_7  and  S_8 
REMARK    2  A    between atoms: S_8  and  C_9 
REMARK    3  A    between atoms: C_9  and  C_10 
REMARK    4  A    between atoms: C_18  and  C_19 
REMARK    5  A    between atoms: C_29  and  C_30 
REMARK    6  A    between atoms: C_30  and  O_31 
ROOT
HETATM    1  C   UNL     1       3.304  30.630  56.480  1.00  0.00     0.070 C 
HETATM    2  C   UNL     1       3.936  29.914  55.313  1.00  0.00     0.037 A 
HETATM    3  N   UNL     1       4.360  28.616  55.565  1.00  0.00    -0.192 N 
HETATM    4  C   UNL     1       4.930  27.828  54.636  1.00  0.00     0.726 A 
HETATM    5  N   UNL     1       5.159  28.318  53.380  1.00  0.00    -0.082 N 
HETATM    6  N   UNL     1       5.778  27.400  52.605  1.00  0.00    -0.128 NA
HETATM    7  C   UNL     1       5.815  26.351  53.440  1.00  0.00     0.226 A 
HETATM    8  N   UNL     1       5.322  26.585  54.699  1.00  0.00    -0.035 NA
HETATM    9  C   UNL     1       4.804  29.685  52.953  1.00  0.00     0.204 A 
HETATM   10  C   UNL     1       4.125  30.455  54.084  1.00  0.00     0.070 A 
HETATM   11  H   UNL     1       4.180  28.230  56.489  1.00  0.00     0.184 HD
ENDROOT
BRANCH   9  12
HETATM   12  C   UNL     1       3.956  29.649  51.674  1.00  0.00    -0.017 A 
HETATM   13  C   UNL     1       4.353  30.313  50.469  1.00  0.00    -0.017 A 
HETATM   14  C   UNL     1       3.469  30.281  49.357  1.00  0.00    -0.025 A 
HETATM   15  C   UNL     1       5.569  31.021  50.293  1.00  0.00     0.013 A 
HETATM   16  C   UNL     1       3.804  30.936  48.160  1.00  0.00     0.012 A 
HETATM   17  C   UNL     1       2.247  29.601  49.445  1.00  0.00     0.012 A 
HETATM   18  C   UNL     1       5.004  31.630  48.030  1.00  0.00     0.001 A 
HETATM   19  C   UNL     1       5.887  31.671  49.096  1.00  0.00     0.001 A 
HETATM   20  C   UNL     1       1.869  28.955  50.616  1.00  0.00     0.002 A 
HETATM   21  C   UNL     1       2.709  28.984  51.721  1.00  0.00     0.010 A 
ENDBRANCH   9  12
BRANCH  10  22
HETATM   22  C   UNL     1       3.616  31.801  53.763  1.00  0.00     0.293 C 
HETATM   23  O   UNL     1       2.452  32.046  53.484  1.00  0.00    -0.259 OA
BRANCH  22  24
HETATM   24  O   UNL     1       4.629  32.696  53.839  1.00  0.00    -0.323 OA
HETATM   25  C   UNL     1       4.648  33.623  52.751  1.00  0.00     0.213 C 
ENDBRANCH  22  24
ENDBRANCH  10  22
BRANCH   7  26
HETATM   26  S   UNL     1       6.377  24.768  52.985  1.00  0.00    -0.083 SA
BRANCH  26  27
HETATM   27  C   UNL     1       7.303  24.260  54.458  1.00  0.00     0.123 C 
BRANCH  27  28
HETATM   28  C   UNL     1       7.788  22.833  54.321  1.00  0.00    -0.027 A 
HETATM   29  C   UNL     1       8.224  22.066  55.414  1.00  0.00     0.041 A 
HETATM   30 CL   UNL     1       8.298  22.712  57.015  1.00  0.00    -0.084 Cl
HETATM   31  C   UNL     1       8.615  20.733  55.238  1.00  0.00     0.024 A 
HETATM   32  C   UNL     1       8.577  20.150  53.972  1.00  0.00     0.002 A 
HETATM   33  C   UNL     1       8.148  20.896  52.879  1.00  0.00     0.001 A 
HETATM   34  C   UNL     1       7.754  22.224  53.051  1.00  0.00     0.009 A 
ENDBRANCH  27  28
ENDBRANCH  26  27
ENDBRANCH   7  26
TORSDOF 6
ENDMDL
MODEL 6
REMARK VINA RESULT:      -8.4      5.959      9.196
REMARK  6 active torsions:
REMARK  status: ('A' for Active; 'I' for Inactive)
REMARK    1  A    between atoms: C_7  and  S_8 
REMARK    2  A    between atoms: S_8  and  C_9 
REMARK    3  A    between atoms: C_9  and  C_10 
REMARK    4  A    between atoms: C_18  and  C_19 
REMARK    5  A    between atoms: C_29  and  C_30 
REMARK    6  A    between atoms: C_30  and  O_31 
ROOT
HETATM    1  C   UNL     1       6.381  34.107  66.744  1.00  0.00     0.070 C 
HETATM    2  C   UNL     1       6.542  33.960  65.252  1.00  0.00     0.037 A 
HETATM    3  N   UNL     1       7.416  32.963  64.840  1.00  0.00    -0.192 N 
HETATM    4  C   UNL     1       7.667  32.683  63.549  1.00  0.00     0.726 A 
HETATM    5  N   UNL     1       7.081  33.434  62.567  1.00  0.00    -0.082 N 
HETATM    6  N   UNL     1       7.488  33.036  61.341  1.00  0.00    -0.128 NA
HETATM    7  C   UNL     1       8.257  31.984  61.661  1.00  0.00     0.226 A 
HETATM    8  N   UNL     1       8.404  31.753  63.006  1.00  0.00    -0.035 NA
HETATM    9  C   UNL     1       6.156  34.553  62.828  1.00  0.00     0.204 A 
HETATM   10  C   UNL     1       5.921  34.733  64.327  1.00  0.00     0.070 A 
HETATM   11  H   UNL     1       7.845  32.384  65.557  1.00  0.00     0.184 HD
ENDROOT
BRANCH   9  12
HETATM   12  C   UNL     1       4.848  34.368  62.046  1.00  0.00    -0.017 A 
HETATM   13  C   UNL     1       4.239  35.428  61.302  1.00  0.00    -0.017 A 
HETATM   14  C   UNL     1       2.993  35.181  60.667  1.00  0.00    -0.025 A 
HETATM   15  C   UNL     1       4.781  36.731  61.152  1.00  0.00     0.013 A 
HETATM   16  C   UNL     1       2.346  36.197  59.943  1.00  0.00     0.012 A 
HETATM   17  C   UNL     1       2.390  33.920  60.762  1.00  0.00     0.012 A 
HETATM   18  C   UNL     1       2.905  37.466  59.828  1.00  0.00     0.001 A 
HETATM   19  C   UNL     1       4.123  37.733  60.431  1.00  0.00     0.001 A 
HETATM   20  C   UNL     1       2.987  32.892  61.483  1.00  0.00     0.002 A 
HETATM   21  C   UNL     1       4.198  33.114  62.124  1.00  0.00     0.010 A 
ENDBRANCH   9  12
BRANCH  10  22
HETATM   22  C   UNL     1       4.930  35.747  64.730  1.00  0.00     0.293 C 
HETATM   23  O   UNL     1       5.133  36.952  64.708  1.00  0.00    -0.259 OA
BRANCH  22  24
HETATM   24  O   UNL     1       3.784  35.132  65.109  1.00  0.00    -0.323 OA
HETATM   25  C   UNL     1       3.306  35.565  66.385  1.00  0.00     0.213 C 
ENDBRANCH  22  24
ENDBRANCH  10  22
BRANCH   7  26
HETATM   26  S   UNL     1       8.983  30.920  60.492  1.00  0.00    -0.083 SA
BRANCH  26  27
HETATM   27  C   UNL     1       8.341  31.580  58.932  1.00  0.00     0.123 C 
BRANCH  27  28
HETATM   28  C   UNL     1       7.243  30.692  58.385  1.00  0.00    -0.027 A 
HETATM   29  C   UNL     1       5.934  31.148  58.159  1.00  0.00     0.041 A 
HETATM   30 CL   UNL     1       5.445  32.761  58.544  1.00  0.00    -0.084 Cl
HETATM   31  C   UNL     1       4.970  30.298  57.605  1.00  0.00     0.024 A 
HETATM   32  C   UNL     1       5.298  28.985  57.270  1.00  0.00     0.002 A 
HETATM   33  C   UNL     1       6.591  28.518  57.488  1.00  0.00     0.001 A 
HETATM   34  C   UNL     1       7.556  29.364  58.037  1.00  0.00     0.009 A 
ENDBRANCH  27  28
ENDBRANCH  26  27
ENDBRANCH   7  26
TORSDOF 6
ENDMDL
MODEL 7
REMARK VINA RESULT:      -8.1      4.815      7.548
REMARK  6 active torsions:
REMARK  status: ('A' for Active; 'I' for Inactive)
REMARK    1  A    between atoms: C_7  and  S_8 
REMARK    2  A    between atoms: S_8  and  C_9 
REMARK    3  A    between atoms: C_9  and  C_10 
REMARK    4  A    between atoms: C_18  and  C_19 
REMARK    5  A    between atoms: C_29  and  C_30 
REMARK    6  A    between atoms: C_30  and  O_31 
ROOT
HETATM    1  C   UNL     1       3.076  31.256  54.915  1.00  0.00     0.070 C 
HETATM    2  C   UNL     1       3.725  30.439  53.827  1.00  0.00     0.037 A 
HETATM    3  N   UNL     1       4.267  29.226  54.230  1.00  0.00    -0.192 N 
HETATM    4  C   UNL     1       4.869  28.366  53.390  1.00  0.00     0.726 A 
HETATM    5  N   UNL     1       5.011  28.695  52.070  1.00  0.00    -0.082 N 
HETATM    6  N   UNL     1       5.679  27.732  51.397  1.00  0.00    -0.128 NA
HETATM    7  C   UNL     1       5.835  26.814  52.362  1.00  0.00     0.226 A 
HETATM    8  N   UNL     1       5.369  27.179  53.600  1.00  0.00    -0.035 NA
HETATM    9  C   UNL     1       4.526  29.958  51.481  1.00  0.00     0.204 A 
HETATM   10  C   UNL     1       3.823  30.819  52.529  1.00  0.00     0.070 A 
HETATM   11  H   UNL     1       4.154  28.958  55.205  1.00  0.00     0.184 HD
ENDROOT
BRANCH   9  12
HETATM   12  C   UNL     1       3.639  29.678  50.259  1.00  0.00    -0.017 A 
HETATM   13  C   UNL     1       3.868  30.291  48.986  1.00  0.00    -0.017 A 
HETATM   14  C   UNL     1       2.953  30.025  47.932  1.00  0.00    -0.025 A 
HETATM   15  C   UNL     1       4.944  31.167  48.686  1.00  0.00     0.013 A 
HETATM   16  C   UNL     1       3.123  30.621  46.671  1.00  0.00     0.012 A 
HETATM   17  C   UNL     1       1.864  29.169  48.142  1.00  0.00     0.012 A 
HETATM   18  C   UNL     1       4.187  31.483  46.419  1.00  0.00     0.001 A 
HETATM   19  C   UNL     1       5.098  31.755  47.426  1.00  0.00     0.001 A 
HETATM   20  C   UNL     1       1.649  28.573  49.379  1.00  0.00     0.002 A 
HETATM   21  C   UNL     1       2.521  28.830  50.428  1.00  0.00     0.010 A 
ENDBRANCH   9  12
BRANCH  10  22
HETATM   22  C   UNL     1       3.190  32.063  52.054  1.00  0.00     0.293 C 
HETATM   23  O   UNL     1       1.996  32.181  51.824  1.00  0.00    -0.259 OA
BRANCH  22  24
HETATM   24  O   UNL     1       4.131  33.029  51.930  1.00  0.00    -0.323 OA
HETATM   25  C   UNL     1       3.737  34.279  52.501  1.00  0.00     0.213 C 
ENDBRANCH  22  24
ENDBRANCH  10  22
BRANCH   7  26
HETATM   26  S   UNL     1       6.514  25.234  52.099  1.00  0.00    -0.083 SA
BRANCH  26  27
HETATM   27  C   UNL     1       7.578  25.033  53.552  1.00  0.00     0.123 C 
BRANCH  27  28
HETATM   28  C   UNL     1       7.716  23.571  53.919  1.00  0.00    -0.027 A 
HETATM   29  C   UNL     1       7.604  23.101  55.238  1.00  0.00     0.041 A 
HETATM   30 CL   UNL     1       7.355  24.169  56.574  1.00  0.00    -0.084 Cl
HETATM   31  C   UNL     1       7.690  21.731  55.514  1.00  0.00     0.024 A 
HETATM   32  C   UNL     1       7.890  20.816  54.483  1.00  0.00     0.002 A 
HETATM   33  C   UNL     1       8.002  21.266  53.170  1.00  0.00     0.001 A 
HETATM   34  C   UNL     1       7.913  22.630  52.890  1.00  0.00     0.009 A 
ENDBRANCH  27  28
ENDBRANCH  26  27
ENDBRANCH   7  26
TORSDOF 6
ENDMDL
MODEL 8
REMARK VINA RESULT:      -8.1      4.860      7.012
REMARK  6 active torsions:
REMARK  status: ('A' for Active; 'I' for Inactive)
REMARK    1  A    between atoms: C_7  and  S_8 
REMARK    2  A    between atoms: S_8  and  C_9 
REMARK    3  A    between atoms: C_9  and  C_10 
REMARK    4  A    between atoms: C_18  and  C_19 
REMARK    5  A    between atoms: C_29  and  C_30 
REMARK    6  A    between atoms: C_30  and  O_31 
ROOT
HETATM    1  C   UNL     1       6.719  23.384  54.586  1.00  0.00     0.070 C 
HETATM    2  C   UNL     1       6.656  24.830  54.167  1.00  0.00     0.037 A 
HETATM    3  N   UNL     1       6.246  25.058  52.860  1.00  0.00    -0.192 N 
HETATM    4  C   UNL     1       6.118  26.286  52.326  1.00  0.00     0.726 A 
HETATM    5  N   UNL     1       6.446  27.386  53.069  1.00  0.00    -0.082 N 
HETATM    6  N   UNL     1       6.298  28.521  52.351  1.00  0.00    -0.128 NA
HETATM    7  C   UNL     1       5.797  28.030  51.207  1.00  0.00     0.226 A 
HETATM    8  N   UNL     1       5.692  26.663  51.151  1.00  0.00    -0.035 NA
HETATM    9  C   UNL     1       6.933  27.323  54.460  1.00  0.00     0.204 A 
HETATM   10  C   UNL     1       6.986  25.880  54.959  1.00  0.00     0.070 A 
HETATM   11  H   UNL     1       5.980  24.252  52.300  1.00  0.00     0.184 HD
ENDROOT
BRANCH   9  12
HETATM   12  C   UNL     1       6.090  28.228  55.369  1.00  0.00    -0.017 A 
HETATM   13  C   UNL     1       6.674  29.088  56.354  1.00  0.00    -0.017 A 
HETATM   14  C   UNL     1       5.810  29.838  57.196  1.00  0.00    -0.025 A 
HETATM   15  C   UNL     1       8.067  29.248  56.571  1.00  0.00     0.013 A 
HETATM   16  C   UNL     1       6.335  30.679  58.192  1.00  0.00     0.012 A 
HETATM   17  C   UNL     1       4.420  29.741  57.047  1.00  0.00     0.012 A 
HETATM   18  C   UNL     1       7.708  30.801  58.380  1.00  0.00     0.001 A 
HETATM   19  C   UNL     1       8.575  30.087  57.568  1.00  0.00     0.001 A 
HETATM   20  C   UNL     1       3.858  28.908  56.087  1.00  0.00     0.002 A 
HETATM   21  C   UNL     1       4.682  28.154  55.262  1.00  0.00     0.010 A 
ENDBRANCH   9  12
BRANCH  10  22
HETATM   22  C   UNL     1       7.351  25.676  56.373  1.00  0.00     0.293 C 
HETATM   23  O   UNL     1       6.545  25.642  57.291  1.00  0.00    -0.259 OA
BRANCH  22  24
HETATM   24  O   UNL     1       8.693  25.526  56.476  1.00  0.00    -0.323 OA
HETATM   25  C   UNL     1       9.078  24.449  57.332  1.00  0.00     0.213 C 
ENDBRANCH  22  24
ENDBRANCH  10  22
BRANCH   7  26
HETATM   26  S   UNL     1       5.242  29.019  49.887  1.00  0.00    -0.083 SA
BRANCH  26  27
HETATM   27  C   UNL     1       5.064  27.803  48.555  1.00  0.00     0.123 C 
BRANCH  27  28
HETATM   28  C   UNL     1       3.702  27.916  47.904  1.00  0.00    -0.027 A 
HETATM   29  C   UNL     1       2.816  26.831  47.793  1.00  0.00     0.041 A 
HETATM   30 CL   UNL     1       3.233  25.247  48.343  1.00  0.00    -0.084 Cl
HETATM   31  C   UNL     1       1.548  27.004  47.225  1.00  0.00     0.024 A 
HETATM   32  C   UNL     1       1.148  28.256  46.762  1.00  0.00     0.002 A 
HETATM   33  C   UNL     1       2.014  29.341  46.865  1.00  0.00     0.001 A 
HETATM   34  C   UNL     1       3.278  29.174  47.434  1.00  0.00     0.009 A 
ENDBRANCH  27  28
ENDBRANCH  26  27
ENDBRANCH   7  26
TORSDOF 6
ENDMDL
MODEL 9
REMARK VINA RESULT:      -8.1      3.845      6.243
REMARK  6 active torsions:
REMARK  status: ('A' for Active; 'I' for Inactive)
REMARK    1  A    between atoms: C_7  and  S_8 
REMARK    2  A    between atoms: S_8  and  C_9 
REMARK    3  A    between atoms: C_9  and  C_10 
REMARK    4  A    between atoms: C_18  and  C_19 
REMARK    5  A    between atoms: C_29  and  C_30 
REMARK    6  A    between atoms: C_30  and  O_31 
ROOT
HETATM    1  C   UNL     1       5.556  32.213  62.894  1.00  0.00     0.070 C 
HETATM    2  C   UNL     1       6.014  32.069  61.465  1.00  0.00     0.037 A 
HETATM    3  N   UNL     1       7.113  31.245  61.268  1.00  0.00    -0.192 N 
HETATM    4  C   UNL     1       7.644  30.992  60.058  1.00  0.00     0.726 A 
HETATM    5  N   UNL     1       7.124  31.600  58.950  1.00  0.00    -0.082 N 
HETATM    6  N   UNL     1       7.815  31.261  57.838  1.00  0.00    -0.128 NA
HETATM    7  C   UNL     1       8.688  30.378  58.346  1.00  0.00     0.226 A 
HETATM    8  N   UNL     1       8.624  30.205  59.706  1.00  0.00    -0.035 NA
HETATM    9  C   UNL     1       5.980  32.532  58.983  1.00  0.00     0.204 A 
HETATM   10  C   UNL     1       5.445  32.694  60.404  1.00  0.00     0.070 A 
HETATM   11  H   UNL     1       7.501  30.770  62.080  1.00  0.00     0.184 HD
ENDROOT
BRANCH   9  12
HETATM   12  C   UNL     1       4.894  32.090  57.992  1.00  0.00    -0.017 A 
HETATM   13  C   UNL     1       4.429  32.933  56.933  1.00  0.00    -0.017 A 
HETATM   14  C   UNL     1       3.372  32.464  56.108  1.00  0.00    -0.025 A 
HETATM   15  C   UNL     1       4.938  34.225  56.639  1.00  0.00     0.013 A 
HETATM   16  C   UNL     1       2.867  33.264  55.070  1.00  0.00     0.012 A 
HETATM   17  C   UNL     1       2.814  31.198  56.328  1.00  0.00     0.012 A 
HETATM   18  C   UNL     1       3.386  34.531  54.819  1.00  0.00     0.001 A 
HETATM   19  C   UNL     1       4.422  35.011  55.603  1.00  0.00     0.001 A 
HETATM   20  C   UNL     1       3.271  30.381  57.356  1.00  0.00     0.002 A 
HETATM   21  C   UNL     1       4.294  30.824  58.184  1.00  0.00     0.010 A 
ENDBRANCH   9  12
BRANCH  10  22
HETATM   22  C   UNL     1       4.230  33.513  60.571  1.00  0.00     0.293 C 
HETATM   23  O   UNL     1       3.098  33.057  60.631  1.00  0.00    -0.259 OA
BRANCH  22  24
HETATM   24  O   UNL     1       4.575  34.820  60.652  1.00  0.00    -0.323 OA
HETATM   25  C   UNL     1       3.833  35.657  59.763  1.00  0.00     0.213 C 
ENDBRANCH  22  24
ENDBRANCH  10  22
BRANCH   7  26
HETATM   26  S   UNL     1       9.796  29.445  57.383  1.00  0.00    -0.083 SA
BRANCH  26  27
HETATM   27  C   UNL     1       8.761  28.968  55.974  1.00  0.00     0.123 C 
BRANCH  27  28
HETATM   28  C   UNL     1       7.725  27.947  56.391  1.00  0.00    -0.027 A 
HETATM   29  C   UNL     1       6.372  28.038  56.023  1.00  0.00     0.041 A 
HETATM   30 CL   UNL     1       5.760  29.366  55.102  1.00  0.00    -0.084 Cl
HETATM   31  C   UNL     1       5.465  27.039  56.394  1.00  0.00     0.024 A 
HETATM   32  C   UNL     1       5.893  25.940  57.137  1.00  0.00     0.002 A 
HETATM   33  C   UNL     1       7.230  25.835  57.510  1.00  0.00     0.001 A 
HETATM   34  C   UNL     1       8.138  26.827  57.138  1.00  0.00     0.009 A 
ENDBRANCH  27  28
ENDBRANCH  26  27
ENDBRANCH   7  26
TORSDOF 6
ENDMDL
MODEL 10
REMARK VINA RESULT:      -7.9      5.204      7.931
REMARK  6 active torsions:
REMARK  status: ('A' for Active; 'I' for Inactive)
REMARK    1  A    between atoms: C_7  and  S_8 
REMARK    2  A    between atoms: S_8  and  C_9 
REMARK    3  A    between atoms: C_9  and  C_10 
REMARK    4  A    between atoms: C_18  and  C_19 
REMARK    5  A    between atoms: C_29  and  C_30 
REMARK    6  A    between atoms: C_30  and  O_31 
ROOT
HETATM    1  C   UNL     1       4.099  32.911  52.000  1.00  0.00     0.070 C 
HETATM    2  C   UNL     1       4.607  31.503  51.823  1.00  0.00     0.037 A 
HETATM    3  N   UNL     1       4.495  30.681  52.935  1.00  0.00    -0.192 N 
HETATM    4  C   UNL     1       4.883  29.393  52.950  1.00  0.00     0.726 A 
HETATM    5  N   UNL     1       5.466  28.849  51.839  1.00  0.00    -0.082 N 
HETATM    6  N   UNL     1       5.830  27.566  52.058  1.00  0.00    -0.128 NA
HETATM    7  C   UNL     1       5.358  27.381  53.301  1.00  0.00     0.226 A 
HETATM    8  N   UNL     1       4.790  28.486  53.883  1.00  0.00    -0.035 NA
HETATM    9  C   UNL     1       5.695  29.590  50.584  1.00  0.00     0.204 A 
HETATM   10  C   UNL     1       5.167  31.020  50.686  1.00  0.00     0.070 A 
HETATM   11  H   UNL     1       4.047  31.064  53.764  1.00  0.00     0.184 HD
ENDROOT
BRANCH   9  12
HETATM   12  C   UNL     1       5.102  28.828  49.390  1.00  0.00    -0.017 A 
HETATM   13  C   UNL     1       3.698  28.582  49.255  1.00  0.00    -0.017 A 
HETATM   14  C   UNL     1       3.250  27.808  48.151  1.00  0.00    -0.025 A 
HETATM   15  C   UNL     1       2.701  29.044  50.152  1.00  0.00     0.013 A 
HETATM   16  C   UNL     1       1.884  27.521  47.987  1.00  0.00     0.012 A 
HETATM   17  C   UNL     1       4.169  27.316  47.215  1.00  0.00     0.012 A 
HETATM   18  C   UNL     1       0.937  27.985  48.896  1.00  0.00     0.001 A 
HETATM   19  C   UNL     1       1.346  28.748  49.978  1.00  0.00     0.001 A 
HETATM   20  C   UNL     1       5.531  27.561  47.349  1.00  0.00     0.002 A 
HETATM   21  C   UNL     1       5.994  28.302  48.427  1.00  0.00     0.010 A 
ENDBRANCH   9  12
BRANCH  10  22
HETATM   22  C   UNL     1       5.231  31.843  49.464  1.00  0.00     0.293 C 
HETATM   23  O   UNL     1       4.277  32.058  48.731  1.00  0.00    -0.259 OA
BRANCH  22  24
HETATM   24  O   UNL     1       6.489  32.316  49.303  1.00  0.00    -0.323 OA
HETATM   25  C   UNL     1       6.596  33.305  48.277  1.00  0.00     0.213 C 
ENDBRANCH  22  24
ENDBRANCH  10  22
BRANCH   7  26
HETATM   26  S   UNL     1       5.380  25.852  54.130  1.00  0.00    -0.083 SA
BRANCH  26  27
HETATM   27  C   UNL     1       7.090  25.770  54.724  1.00  0.00     0.123 C 
BRANCH  27  28
HETATM   28  C   UNL     1       7.698  24.416  54.425  1.00  0.00    -0.027 A 
HETATM   29  C   UNL     1       8.509  23.725  55.340  1.00  0.00     0.041 A 
HETATM   30 CL   UNL     1       8.935  24.394  56.876  1.00  0.00    -0.084 Cl
HETATM   31  C   UNL     1       9.005  22.452  55.032  1.00  0.00     0.024 A 
HETATM   32  C   UNL     1       8.699  21.854  53.811  1.00  0.00     0.002 A 
HETATM   33  C   UNL     1       7.896  22.526  52.893  1.00  0.00     0.001 A 
HETATM   34  C   UNL     1       7.397  23.793  53.199  1.00  0.00     0.009 A 
ENDBRANCH  27  28
ENDBRANCH  26  27
ENDBRANCH   7  26
TORSDOF 6
ENDMDL
