MODEL 1
REMARK VINA RESULT:      -9.5      0.000      0.000
REMARK  8 active torsions:
REMARK  status: ('A' for Active; 'I' for Inactive)
REMARK    1  A    between atoms: C_2  and  O_3 
REMARK    2  A    between atoms: O_3  and  C_4 
REMARK    3  A    between atoms: C_5  and  N_6 
REMARK       I    between atoms: N_6  and  C_7 
REMARK    4  A    between atoms: C_7  and  C_8 
REMARK    5  A    between atoms: N_11  and  C_12 
REMARK    6  A    between atoms: C_12  and  C_13 
REMARK       I    between atoms: C_13  and  N_14 
REMARK    7  A    between atoms: N_14  and  C_15 
REMARK    8  A    between atoms: C_23  and  N_24 
ROOT
HETATM    1  C   UNL     1       7.024  27.195  56.609  1.00  0.00     0.187 A 
HETATM    2  N   UNL     1       8.007  26.802  57.498  1.00  0.00    -0.150 NA
HETATM    3  N   UNL     1       9.005  27.667  57.443  1.00  0.00     0.007 NA
HETATM    4  N   UNL     1       8.675  28.600  56.536  1.00  0.00    -0.248 N 
HETATM    5  C   UNL     1       7.481  28.314  55.918  1.00  0.00     0.151 A 
ENDROOT
BRANCH   1   6
HETATM    6  C   UNL     1       5.814  26.394  56.453  1.00  0.00     0.280 C 
HETATM    7  N   UNL     1       5.799  25.205  55.756  1.00  0.00    -0.319 N 
HETATM    8  H   UNL     1       5.009  24.639  56.038  1.00  0.00     0.169 HD
HETATM    9  O   UNL     1       4.774  26.692  57.051  1.00  0.00    -0.265 OA
BRANCH   7  10
HETATM   10  C   UNL     1       6.579  24.705  54.696  1.00  0.00     0.068 A 
HETATM   11  C   UNL     1       7.330  23.514  54.723  1.00  0.00     0.095 A 
HETATM   12  C   UNL     1       8.008  23.114  53.562  1.00  0.00     0.039 A 
HETATM   13  C   UNL     1       7.984  23.902  52.409  1.00  0.00     0.003 A 
HETATM   14  C   UNL     1       7.302  25.112  52.408  1.00  0.00     0.002 A 
HETATM   15  C   UNL     1       6.613  25.515  53.549  1.00  0.00     0.032 A 
BRANCH  11  16
HETATM   16  O   UNL     1       7.425  22.855  55.921  1.00  0.00    -0.349 OA
BRANCH  16  17
HETATM   17  C   UNL     1       8.466  21.891  56.073  1.00  0.00     0.171 C 
HETATM   18  C   UNL     1       7.838  20.512  56.135  1.00  0.00     0.034 C 
ENDBRANCH  16  17
ENDBRANCH  11  16
ENDBRANCH   7  10
ENDBRANCH   1   6
BRANCH   5  19
HETATM   19  N   UNL     1       7.001  29.041  54.883  1.00  0.00    -0.382 N 
HETATM   20  H   UNL     1       6.996  28.742  53.904  1.00  0.00     0.157 HD
HETATM   21  H   UNL     1       6.692  30.004  55.004  1.00  0.00     0.157 HD
ENDBRANCH   5  19
BRANCH   4  22
HETATM   22  C   UNL     1       9.519  29.762  56.412  1.00  0.00     0.251 C 
BRANCH  22  23
HETATM   23  C   UNL     1       9.722  30.479  57.721  1.00  0.00     0.241 C 
HETATM   24  N   UNL     1       8.707  30.273  58.641  1.00  0.00    -0.326 N 
HETATM   25  H   UNL     1       8.087  29.486  58.476  1.00  0.00     0.169 HD
HETATM   26  O   UNL     1      10.724  31.172  57.897  1.00  0.00    -0.271 OA
BRANCH  24  27
HETATM   27  C   UNL     1       8.512  30.977  59.847  1.00  0.00     0.034 A 
HETATM   28  C   UNL     1       7.667  32.084  59.966  1.00  0.00     0.031 A 
HETATM   29  C   UNL     1       7.481  32.707  61.205  1.00  0.00     0.026 A 
HETATM   30  C   UNL     1       8.144  32.227  62.330  1.00  0.00     0.034 A 
HETATM   31 CL   UNL     1       7.910  32.990  63.853  1.00  0.00    -0.084 Cl
HETATM   32  C   UNL     1       8.990  31.126  62.226  1.00  0.00     0.026 A 
HETATM   33  C   UNL     1       9.168  30.499  60.989  1.00  0.00     0.031 A 
ENDBRANCH  24  27
ENDBRANCH  22  23
ENDBRANCH   4  22
TORSDOF 8
ENDMDL
MODEL 2
REMARK VINA RESULT:      -9.3      1.069      2.258
REMARK  8 active torsions:
REMARK  status: ('A' for Active; 'I' for Inactive)
REMARK    1  A    between atoms: C_2  and  O_3 
REMARK    2  A    between atoms: O_3  and  C_4 
REMARK    3  A    between atoms: C_5  and  N_6 
REMARK       I    between atoms: N_6  and  C_7 
REMARK    4  A    between atoms: C_7  and  C_8 
REMARK    5  A    between atoms: N_11  and  C_12 
REMARK    6  A    between atoms: C_12  and  C_13 
REMARK       I    between atoms: C_13  and  N_14 
REMARK    7  A    between atoms: N_14  and  C_15 
REMARK    8  A    between atoms: C_23  and  N_24 
ROOT
HETATM    1  C   UNL     1       7.000  27.219  56.673  1.00  0.00     0.187 A 
HETATM    2  N   UNL     1       8.010  26.781  57.510  1.00  0.00    -0.150 NA
HETATM    3  N   UNL     1       9.031  27.616  57.423  1.00  0.00     0.007 NA
HETATM    4  N   UNL     1       8.689  28.575  56.547  1.00  0.00    -0.248 N 
HETATM    5  C   UNL     1       7.460  28.335  55.979  1.00  0.00     0.151 A 
ENDROOT
BRANCH   1   6
HETATM    6  C   UNL     1       5.761  26.457  56.559  1.00  0.00     0.280 C 
HETATM    7  N   UNL     1       5.726  25.170  56.067  1.00  0.00    -0.319 N 
HETATM    8  H   UNL     1       4.888  24.695  56.378  1.00  0.00     0.169 HD
HETATM    9  O   UNL     1       4.701  26.897  57.019  1.00  0.00    -0.265 OA
BRANCH   7  10
HETATM   10  C   UNL     1       6.546  24.465  55.166  1.00  0.00     0.068 A 
HETATM   11  C   UNL     1       6.386  24.430  53.768  1.00  0.00     0.095 A 
HETATM   12  C   UNL     1       7.326  23.732  52.995  1.00  0.00     0.039 A 
HETATM   13  C   UNL     1       8.378  23.039  53.598  1.00  0.00     0.003 A 
HETATM   14  C   UNL     1       8.493  23.015  54.982  1.00  0.00     0.002 A 
HETATM   15  C   UNL     1       7.575  23.716  55.761  1.00  0.00     0.032 A 
BRANCH  11  16
HETATM   16  O   UNL     1       5.261  25.014  53.247  1.00  0.00    -0.349 OA
BRANCH  16  17
HETATM   17  C   UNL     1       5.410  26.256  52.561  1.00  0.00     0.171 C 
HETATM   18  C   UNL     1       5.250  26.005  51.073  1.00  0.00     0.034 C 
ENDBRANCH  16  17
ENDBRANCH  11  16
ENDBRANCH   7  10
ENDBRANCH   1   6
BRANCH   5  19
HETATM   19  N   UNL     1       6.957  29.094  54.979  1.00  0.00    -0.382 N 
HETATM   20  H   UNL     1       6.555  28.734  54.109  1.00  0.00     0.157 HD
HETATM   21  H   UNL     1       7.036  30.110  54.987  1.00  0.00     0.157 HD
ENDBRANCH   5  19
BRANCH   4  22
HETATM   22  C   UNL     1       9.562  29.712  56.403  1.00  0.00     0.251 C 
BRANCH  22  23
HETATM   23  C   UNL     1       9.746  30.474  57.690  1.00  0.00     0.241 C 
HETATM   24  N   UNL     1       8.770  30.222  58.639  1.00  0.00    -0.326 N 
HETATM   25  H   UNL     1       8.202  29.390  58.509  1.00  0.00     0.169 HD
HETATM   26  O   UNL     1      10.701  31.238  57.824  1.00  0.00    -0.271 OA
BRANCH  24  27
HETATM   27  C   UNL     1       8.555  30.940  59.834  1.00  0.00     0.034 A 
HETATM   28  C   UNL     1       7.697  32.040  59.928  1.00  0.00     0.031 A 
HETATM   29  C   UNL     1       7.492  32.678  61.157  1.00  0.00     0.026 A 
HETATM   30  C   UNL     1       8.148  32.220  62.295  1.00  0.00     0.034 A 
HETATM   31 CL   UNL     1       7.891  33.001  63.805  1.00  0.00    -0.084 Cl
HETATM   32  C   UNL     1       9.006  31.127  62.216  1.00  0.00     0.026 A 
HETATM   33  C   UNL     1       9.204  30.484  60.989  1.00  0.00     0.031 A 
ENDBRANCH  24  27
ENDBRANCH  22  23
ENDBRANCH   4  22
TORSDOF 8
ENDMDL
MODEL 3
REMARK VINA RESULT:      -9.1      3.446      9.159
REMARK  8 active torsions:
REMARK  status: ('A' for Active; 'I' for Inactive)
REMARK    1  A    between atoms: C_2  and  O_3 
REMARK    2  A    between atoms: O_3  and  C_4 
REMARK    3  A    between atoms: C_5  and  N_6 
REMARK       I    between atoms: N_6  and  C_7 
REMARK    4  A    between atoms: C_7  and  C_8 
REMARK    5  A    between atoms: N_11  and  C_12 
REMARK    6  A    between atoms: C_12  and  C_13 
REMARK       I    between atoms: C_13  and  N_14 
REMARK    7  A    between atoms: N_14  and  C_15 
REMARK    8  A    between atoms: C_23  and  N_24 
ROOT
HETATM    1  C   UNL     1       8.331  29.262  57.363  1.00  0.00     0.187 A 
HETATM    2  N   UNL     1       8.355  28.151  58.185  1.00  0.00    -0.150 NA
HETATM    3  N   UNL     1       7.339  27.365  57.873  1.00  0.00     0.007 NA
HETATM    4  N   UNL     1       6.670  27.957  56.870  1.00  0.00    -0.248 N 
HETATM    5  C   UNL     1       7.195  29.190  56.562  1.00  0.00     0.151 A 
ENDROOT
BRANCH   1   6
HETATM    6  C   UNL     1       9.336  30.309  57.517  1.00  0.00     0.280 C 
HETATM    7  N   UNL     1       9.585  30.925  58.724  1.00  0.00    -0.319 N 
HETATM    8  H   UNL     1      10.506  31.345  58.725  1.00  0.00     0.169 HD
HETATM    9  O   UNL     1      10.096  30.600  56.586  1.00  0.00    -0.265 OA
BRANCH   7  10
HETATM   10  C   UNL     1       8.790  31.161  59.862  1.00  0.00     0.068 A 
HETATM   11  C   UNL     1       7.531  31.792  59.865  1.00  0.00     0.095 A 
HETATM   12  C   UNL     1       6.829  31.899  61.074  1.00  0.00     0.039 A 
HETATM   13  C   UNL     1       7.383  31.434  62.269  1.00  0.00     0.003 A 
HETATM   14  C   UNL     1       8.656  30.877  62.276  1.00  0.00     0.002 A 
HETATM   15  C   UNL     1       9.358  30.752  61.079  1.00  0.00     0.032 A 
BRANCH  11  16
HETATM   16  O   UNL     1       7.101  32.347  58.688  1.00  0.00    -0.349 OA
BRANCH  16  17
HETATM   17  C   UNL     1       5.748  32.119  58.296  1.00  0.00     0.171 C 
HETATM   18  C   UNL     1       5.030  33.454  58.246  1.00  0.00     0.034 C 
ENDBRANCH  16  17
ENDBRANCH  11  16
ENDBRANCH   7  10
ENDBRANCH   1   6
BRANCH   5  19
HETATM   19  N   UNL     1       6.618  30.027  55.670  1.00  0.00    -0.382 N 
HETATM   20  H   UNL     1       6.310  29.765  54.730  1.00  0.00     0.157 HD
HETATM   21  H   UNL     1       6.539  31.026  55.848  1.00  0.00     0.157 HD
ENDBRANCH   5  19
BRANCH   4  22
HETATM   22  C   UNL     1       5.616  27.218  56.223  1.00  0.00     0.251 C 
BRANCH  22  23
HETATM   23  C   UNL     1       5.955  25.763  56.030  1.00  0.00     0.241 C 
HETATM   24  N   UNL     1       7.124  25.546  55.319  1.00  0.00    -0.326 N 
HETATM   25  H   UNL     1       7.764  26.329  55.231  1.00  0.00     0.169 HD
HETATM   26  O   UNL     1       5.218  24.891  56.489  1.00  0.00    -0.271 OA
BRANCH  24  27
HETATM   27  C   UNL     1       7.573  24.314  54.799  1.00  0.00     0.034 A 
HETATM   28  C   UNL     1       8.225  23.345  55.568  1.00  0.00     0.031 A 
HETATM   29  C   UNL     1       8.601  22.122  55.000  1.00  0.00     0.026 A 
HETATM   30  C   UNL     1       8.331  21.866  53.659  1.00  0.00     0.034 A 
HETATM   31 CL   UNL     1       8.788  20.362  52.965  1.00  0.00    -0.084 Cl
HETATM   32  C   UNL     1       7.683  22.823  52.882  1.00  0.00     0.026 A 
HETATM   33  C   UNL     1       7.300  24.041  53.453  1.00  0.00     0.031 A 
ENDBRANCH  24  27
ENDBRANCH  22  23
ENDBRANCH   4  22
TORSDOF 8
ENDMDL
MODEL 4
REMARK VINA RESULT:      -8.7      1.920      2.409
REMARK  8 active torsions:
REMARK  status: ('A' for Active; 'I' for Inactive)
REMARK    1  A    between atoms: C_2  and  O_3 
REMARK    2  A    between atoms: O_3  and  C_4 
REMARK    3  A    between atoms: C_5  and  N_6 
REMARK       I    between atoms: N_6  and  C_7 
REMARK    4  A    between atoms: C_7  and  C_8 
REMARK    5  A    between atoms: N_11  and  C_12 
REMARK    6  A    between atoms: C_12  and  C_13 
REMARK       I    between atoms: C_13  and  N_14 
REMARK    7  A    between atoms: N_14  and  C_15 
REMARK    8  A    between atoms: C_23  and  N_24 
ROOT
HETATM    1  C   UNL     1       6.193  28.517  55.420  1.00  0.00     0.187 A 
HETATM    2  N   UNL     1       7.450  28.862  54.958  1.00  0.00    -0.150 NA
HETATM    3  N   UNL     1       8.211  29.184  55.990  1.00  0.00     0.007 NA
HETATM    4  N   UNL     1       7.462  29.052  57.096  1.00  0.00    -0.248 N 
HETATM    5  C   UNL     1       6.163  28.717  56.798  1.00  0.00     0.151 A 
ENDROOT
BRANCH   1   6
HETATM    6  C   UNL     1       5.144  28.142  54.478  1.00  0.00     0.280 C 
HETATM    7  N   UNL     1       5.059  26.881  53.929  1.00  0.00    -0.319 N 
HETATM    8  H   UNL     1       4.119  26.702  53.597  1.00  0.00     0.169 HD
HETATM    9  O   UNL     1       4.210  28.913  54.228  1.00  0.00    -0.265 OA
BRANCH   7  10
HETATM   10  C   UNL     1       6.017  25.886  53.658  1.00  0.00     0.068 A 
HETATM   11  C   UNL     1       6.417  24.870  54.546  1.00  0.00     0.095 A 
HETATM   12  C   UNL     1       7.340  23.910  54.107  1.00  0.00     0.039 A 
HETATM   13  C   UNL     1       7.896  23.981  52.828  1.00  0.00     0.003 A 
HETATM   14  C   UNL     1       7.555  25.026  51.978  1.00  0.00     0.002 A 
HETATM   15  C   UNL     1       6.628  25.979  52.397  1.00  0.00     0.032 A 
BRANCH  11  16
HETATM   16  O   UNL     1       5.939  24.930  55.830  1.00  0.00    -0.349 OA
BRANCH  16  17
HETATM   17  C   UNL     1       6.844  24.639  56.894  1.00  0.00     0.171 C 
HETATM   18  C   UNL     1       8.023  25.588  56.795  1.00  0.00     0.034 C 
ENDBRANCH  16  17
ENDBRANCH  11  16
ENDBRANCH   7  10
ENDBRANCH   1   6
BRANCH   5  19
HETATM   19  N   UNL     1       5.192  28.648  57.737  1.00  0.00    -0.382 N 
HETATM   20  H   UNL     1       4.449  29.339  57.869  1.00  0.00     0.157 HD
HETATM   21  H   UNL     1       5.196  27.930  58.459  1.00  0.00     0.157 HD
ENDBRANCH   5  19
BRANCH   4  22
HETATM   22  C   UNL     1       8.110  29.173  58.378  1.00  0.00     0.251 C 
BRANCH  22  23
HETATM   23  C   UNL     1       7.871  30.509  59.030  1.00  0.00     0.241 C 
HETATM   24  N   UNL     1       7.955  30.487  60.412  1.00  0.00    -0.326 N 
HETATM   25  H   UNL     1       8.416  29.686  60.834  1.00  0.00     0.169 HD
HETATM   26  O   UNL     1       7.626  31.498  58.339  1.00  0.00    -0.271 OA
BRANCH  24  27
HETATM   27  C   UNL     1       7.567  31.517  61.293  1.00  0.00     0.034 A 
HETATM   28  C   UNL     1       6.443  32.323  61.090  1.00  0.00     0.031 A 
HETATM   29  C   UNL     1       6.086  33.296  62.031  1.00  0.00     0.026 A 
HETATM   30  C   UNL     1       6.856  33.470  63.176  1.00  0.00     0.034 A 
HETATM   31 CL   UNL     1       6.413  34.662  64.333  1.00  0.00    -0.084 Cl
HETATM   32  C   UNL     1       7.979  32.676  63.391  1.00  0.00     0.026 A 
HETATM   33  C   UNL     1       8.330  31.697  62.454  1.00  0.00     0.031 A 
ENDBRANCH  24  27
ENDBRANCH  22  23
ENDBRANCH   4  22
TORSDOF 8
ENDMDL
MODEL 5
REMARK VINA RESULT:      -8.6      4.860      7.725
REMARK  8 active torsions:
REMARK  status: ('A' for Active; 'I' for Inactive)
REMARK    1  A    between atoms: C_2  and  O_3 
REMARK    2  A    between atoms: O_3  and  C_4 
REMARK    3  A    between atoms: C_5  and  N_6 
REMARK       I    between atoms: N_6  and  C_7 
REMARK    4  A    between atoms: C_7  and  C_8 
REMARK    5  A    between atoms: N_11  and  C_12 
REMARK    6  A    between atoms: C_12  and  C_13 
REMARK       I    between atoms: C_13  and  N_14 
REMARK    7  A    between atoms: N_14  and  C_15 
REMARK    8  A    between atoms: C_23  and  N_24 
ROOT
HETATM    1  C   UNL     1       5.764  28.691  55.352  1.00  0.00     0.187 A 
HETATM    2  N   UNL     1       7.104  29.026  55.302  1.00  0.00    -0.150 NA
HETATM    3  N   UNL     1       7.757  28.314  56.204  1.00  0.00     0.007 NA
HETATM    4  N   UNL     1       6.858  27.535  56.826  1.00  0.00    -0.248 N 
HETATM    5  C   UNL     1       5.577  27.786  56.394  1.00  0.00     0.151 A 
ENDROOT
BRANCH   1   6
HETATM    6  C   UNL     1       4.809  29.355  54.471  1.00  0.00     0.280 C 
HETATM    7  N   UNL     1       4.158  28.694  53.453  1.00  0.00    -0.319 N 
HETATM    8  H   UNL     1       3.315  29.190  53.190  1.00  0.00     0.169 HD
HETATM    9  O   UNL     1       4.453  30.520  54.684  1.00  0.00    -0.265 OA
BRANCH   7  10
HETATM   10  C   UNL     1       4.488  27.569  52.674  1.00  0.00     0.068 A 
HETATM   11  C   UNL     1       4.720  27.573  51.285  1.00  0.00     0.095 A 
HETATM   12  C   UNL     1       5.105  26.379  50.658  1.00  0.00     0.039 A 
HETATM   13  C   UNL     1       5.210  25.189  51.383  1.00  0.00     0.003 A 
HETATM   14  C   UNL     1       4.910  25.172  52.739  1.00  0.00     0.002 A 
HETATM   15  C   UNL     1       4.541  26.354  53.377  1.00  0.00     0.032 A 
BRANCH  11  16
HETATM   16  O   UNL     1       4.471  28.738  50.608  1.00  0.00    -0.349 OA
BRANCH  16  17
HETATM   17  C   UNL     1       5.526  29.297  49.827  1.00  0.00     0.171 C 
HETATM   18  C   UNL     1       5.067  29.373  48.384  1.00  0.00     0.034 C 
ENDBRANCH  16  17
ENDBRANCH  11  16
ENDBRANCH   7  10
ENDBRANCH   1   6
BRANCH   5  19
HETATM   19  N   UNL     1       4.490  27.214  56.959  1.00  0.00    -0.382 N 
HETATM   20  H   UNL     1       4.499  26.356  57.518  1.00  0.00     0.157 HD
HETATM   21  H   UNL     1       3.549  27.558  56.778  1.00  0.00     0.157 HD
ENDBRANCH   5  19
BRANCH   4  22
HETATM   22  C   UNL     1       7.340  26.528  57.738  1.00  0.00     0.251 C 
BRANCH  22  23
HETATM   23  C   UNL     1       8.014  25.378  57.035  1.00  0.00     0.241 C 
HETATM   24  N   UNL     1       7.392  24.993  55.859  1.00  0.00    -0.326 N 
HETATM   25  H   UNL     1       6.739  25.651  55.445  1.00  0.00     0.169 HD
HETATM   26  O   UNL     1       9.025  24.868  57.517  1.00  0.00    -0.271 OA
BRANCH  24  27
HETATM   27  C   UNL     1       7.658  23.827  55.113  1.00  0.00     0.034 A 
HETATM   28  C   UNL     1       7.524  22.534  55.629  1.00  0.00     0.031 A 
HETATM   29  C   UNL     1       7.756  21.417  54.818  1.00  0.00     0.026 A 
HETATM   30  C   UNL     1       8.129  21.589  53.489  1.00  0.00     0.034 A 
HETATM   31 CL   UNL     1       8.408  20.217  52.492  1.00  0.00    -0.084 Cl
HETATM   32  C   UNL     1       8.267  22.871  52.962  1.00  0.00     0.026 A 
HETATM   33  C   UNL     1       8.026  23.986  53.770  1.00  0.00     0.031 A 
ENDBRANCH  24  27
ENDBRANCH  22  23
ENDBRANCH   4  22
TORSDOF 8
ENDMDL
MODEL 6
REMARK VINA RESULT:      -8.6      2.319      3.501
REMARK  8 active torsions:
REMARK  status: ('A' for Active; 'I' for Inactive)
REMARK    1  A    between atoms: C_2  and  O_3 
REMARK    2  A    between atoms: O_3  and  C_4 
REMARK    3  A    between atoms: C_5  and  N_6 
REMARK       I    between atoms: N_6  and  C_7 
REMARK    4  A    between atoms: C_7  and  C_8 
REMARK    5  A    between atoms: N_11  and  C_12 
REMARK    6  A    between atoms: C_12  and  C_13 
REMARK       I    between atoms: C_13  and  N_14 
REMARK    7  A    between atoms: N_14  and  C_15 
REMARK    8  A    between atoms: C_23  and  N_24 
ROOT
HETATM    1  C   UNL     1       5.935  28.430  55.465  1.00  0.00     0.187 A 
HETATM    2  N   UNL     1       7.197  28.564  54.914  1.00  0.00    -0.150 NA
HETATM    3  N   UNL     1       8.046  28.903  55.868  1.00  0.00     0.007 NA
HETATM    4  N   UNL     1       7.349  28.988  57.013  1.00  0.00    -0.248 N 
HETATM    5  C   UNL     1       6.005  28.784  56.809  1.00  0.00     0.151 A 
ENDROOT
BRANCH   1   6
HETATM    6  C   UNL     1       4.799  28.084  54.617  1.00  0.00     0.280 C 
HETATM    7  N   UNL     1       4.706  26.875  53.962  1.00  0.00    -0.319 N 
HETATM    8  H   UNL     1       3.743  26.674  53.725  1.00  0.00     0.169 HD
HETATM    9  O   UNL     1       3.809  28.821  54.552  1.00  0.00    -0.265 OA
BRANCH   7  10
HETATM   10  C   UNL     1       5.669  25.964  53.488  1.00  0.00     0.068 A 
HETATM   11  C   UNL     1       6.265  25.992  52.213  1.00  0.00     0.095 A 
HETATM   12  C   UNL     1       7.259  25.051  51.908  1.00  0.00     0.039 A 
HETATM   13  C   UNL     1       7.623  24.067  52.831  1.00  0.00     0.003 A 
HETATM   14  C   UNL     1       6.983  23.996  54.061  1.00  0.00     0.002 A 
HETATM   15  C   UNL     1       6.004  24.934  54.382  1.00  0.00     0.032 A 
BRANCH  11  16
HETATM   16  O   UNL     1       5.772  26.893  51.306  1.00  0.00    -0.349 OA
BRANCH  16  17
HETATM   17  C   UNL     1       4.961  26.396  50.242  1.00  0.00     0.171 C 
HETATM   18  C   UNL     1       4.945  27.426  49.129  1.00  0.00     0.034 C 
ENDBRANCH  16  17
ENDBRANCH  11  16
ENDBRANCH   7  10
ENDBRANCH   1   6
BRANCH   5  19
HETATM   19  N   UNL     1       5.086  28.939  57.790  1.00  0.00    -0.382 N 
HETATM   20  H   UNL     1       5.299  29.056  58.784  1.00  0.00     0.157 HD
HETATM   21  H   UNL     1       4.089  28.851  57.607  1.00  0.00     0.157 HD
ENDBRANCH   5  19
BRANCH   4  22
HETATM   22  C   UNL     1       8.076  29.171  58.244  1.00  0.00     0.251 C 
BRANCH  22  23
HETATM   23  C   UNL     1       7.774  30.487  58.911  1.00  0.00     0.241 C 
HETATM   24  N   UNL     1       8.021  30.499  60.274  1.00  0.00    -0.326 N 
HETATM   25  H   UNL     1       8.611  29.759  60.643  1.00  0.00     0.169 HD
HETATM   26  O   UNL     1       7.346  31.431  58.248  1.00  0.00    -0.271 OA
BRANCH  24  27
HETATM   27  C   UNL     1       7.632  31.499  61.188  1.00  0.00     0.034 A 
HETATM   28  C   UNL     1       6.507  32.311  61.011  1.00  0.00     0.031 A 
HETATM   29  C   UNL     1       6.149  33.252  61.982  1.00  0.00     0.026 A 
HETATM   30  C   UNL     1       6.917  33.388  63.134  1.00  0.00     0.034 A 
HETATM   31 CL   UNL     1       6.472  34.540  64.330  1.00  0.00    -0.084 Cl
HETATM   32  C   UNL     1       8.041  32.587  63.324  1.00  0.00     0.026 A 
HETATM   33  C   UNL     1       8.393  31.641  62.356  1.00  0.00     0.031 A 
ENDBRANCH  24  27
ENDBRANCH  22  23
ENDBRANCH   4  22
TORSDOF 8
ENDMDL
MODEL 7
REMARK VINA RESULT:      -8.3      2.514      3.611
REMARK  8 active torsions:
REMARK  status: ('A' for Active; 'I' for Inactive)
REMARK    1  A    between atoms: C_2  and  O_3 
REMARK    2  A    between atoms: O_3  and  C_4 
REMARK    3  A    between atoms: C_5  and  N_6 
REMARK       I    between atoms: N_6  and  C_7 
REMARK    4  A    between atoms: C_7  and  C_8 
REMARK    5  A    between atoms: N_11  and  C_12 
REMARK    6  A    between atoms: C_12  and  C_13 
REMARK       I    between atoms: C_13  and  N_14 
REMARK    7  A    between atoms: N_14  and  C_15 
REMARK    8  A    between atoms: C_23  and  N_24 
ROOT
HETATM    1  C   UNL     1       5.942  26.789  53.419  1.00  0.00     0.187 A 
HETATM    2  N   UNL     1       7.085  27.452  53.825  1.00  0.00    -0.150 NA
HETATM    3  N   UNL     1       6.738  28.595  54.391  1.00  0.00     0.007 NA
HETATM    4  N   UNL     1       5.398  28.671  54.351  1.00  0.00    -0.248 N 
HETATM    5  C   UNL     1       4.846  27.607  53.679  1.00  0.00     0.151 A 
ENDROOT
BRANCH   1   6
HETATM    6  C   UNL     1       6.045  25.503  52.737  1.00  0.00     0.280 C 
HETATM    7  N   UNL     1       6.374  24.339  53.397  1.00  0.00    -0.319 N 
HETATM    8  H   UNL     1       6.065  23.533  52.869  1.00  0.00     0.169 HD
HETATM    9  O   UNL     1       5.716  25.386  51.551  1.00  0.00    -0.265 OA
BRANCH   7  10
HETATM   10  C   UNL     1       7.123  24.075  54.560  1.00  0.00     0.068 A 
HETATM   11  C   UNL     1       8.316  23.330  54.614  1.00  0.00     0.095 A 
HETATM   12  C   UNL     1       8.984  23.207  55.841  1.00  0.00     0.039 A 
HETATM   13  C   UNL     1       8.455  23.768  57.006  1.00  0.00     0.003 A 
HETATM   14  C   UNL     1       7.240  24.441  56.964  1.00  0.00     0.002 A 
HETATM   15  C   UNL     1       6.574  24.584  55.748  1.00  0.00     0.032 A 
BRANCH  11  16
HETATM   16  O   UNL     1       8.714  22.691  53.468  1.00  0.00    -0.349 OA
BRANCH  16  17
HETATM   17  C   UNL     1       9.053  21.308  53.557  1.00  0.00     0.171 C 
HETATM   18  C   UNL     1       7.910  20.495  52.978  1.00  0.00     0.034 C 
ENDBRANCH  16  17
ENDBRANCH  11  16
ENDBRANCH   7  10
ENDBRANCH   1   6
BRANCH   5  19
HETATM   19  N   UNL     1       3.524  27.524  53.402  1.00  0.00    -0.382 N 
HETATM   20  H   UNL     1       3.086  27.811  52.523  1.00  0.00     0.157 HD
HETATM   21  H   UNL     1       2.845  27.252  54.111  1.00  0.00     0.157 HD
ENDBRANCH   5  19
BRANCH   4  22
HETATM   22  C   UNL     1       4.752  29.743  55.065  1.00  0.00     0.251 C 
BRANCH  22  23
HETATM   23  C   UNL     1       5.134  29.790  56.521  1.00  0.00     0.241 C 
HETATM   24  N   UNL     1       6.070  30.763  56.829  1.00  0.00    -0.326 N 
HETATM   25  H   UNL     1       6.208  31.504  56.148  1.00  0.00     0.169 HD
HETATM   26  O   UNL     1       4.624  29.003  57.318  1.00  0.00    -0.271 OA
BRANCH  24  27
HETATM   27  C   UNL     1       6.773  30.898  58.044  1.00  0.00     0.034 A 
HETATM   28  C   UNL     1       7.844  30.077  58.410  1.00  0.00     0.031 A 
HETATM   29  C   UNL     1       8.531  30.296  59.609  1.00  0.00     0.026 A 
HETATM   30  C   UNL     1       8.144  31.335  60.450  1.00  0.00     0.034 A 
HETATM   31 CL   UNL     1       8.992  31.606  61.921  1.00  0.00    -0.084 Cl
HETATM   32  C   UNL     1       7.079  32.159  60.099  1.00  0.00     0.026 A 
HETATM   33  C   UNL     1       6.399  31.945  58.896  1.00  0.00     0.031 A 
ENDBRANCH  24  27
ENDBRANCH  22  23
ENDBRANCH   4  22
TORSDOF 8
ENDMDL
MODEL 8
REMARK VINA RESULT:      -8.3      1.917      2.490
REMARK  8 active torsions:
REMARK  status: ('A' for Active; 'I' for Inactive)
REMARK    1  A    between atoms: C_2  and  O_3 
REMARK    2  A    between atoms: O_3  and  C_4 
REMARK    3  A    between atoms: C_5  and  N_6 
REMARK       I    between atoms: N_6  and  C_7 
REMARK    4  A    between atoms: C_7  and  C_8 
REMARK    5  A    between atoms: N_11  and  C_12 
REMARK    6  A    between atoms: C_12  and  C_13 
REMARK       I    between atoms: C_13  and  N_14 
REMARK    7  A    between atoms: N_14  and  C_15 
REMARK    8  A    between atoms: C_23  and  N_24 
ROOT
HETATM    1  C   UNL     1       7.154  27.387  57.285  1.00  0.00     0.187 A 
HETATM    2  N   UNL     1       5.776  27.486  57.326  1.00  0.00    -0.150 NA
HETATM    3  N   UNL     1       5.443  28.753  57.510  1.00  0.00     0.007 NA
HETATM    4  N   UNL     1       6.583  29.458  57.588  1.00  0.00    -0.248 N 
HETATM    5  C   UNL     1       7.691  28.646  57.537  1.00  0.00     0.151 A 
ENDROOT
BRANCH   1   6
HETATM    6  C   UNL     1       7.790  26.085  57.116  1.00  0.00     0.280 C 
HETATM    7  N   UNL     1       7.956  25.497  55.880  1.00  0.00    -0.319 N 
HETATM    8  H   UNL     1       8.693  24.804  55.913  1.00  0.00     0.169 HD
HETATM    9  O   UNL     1       8.320  25.509  58.073  1.00  0.00    -0.265 OA
BRANCH   7  10
HETATM   10  C   UNL     1       7.249  25.599  54.667  1.00  0.00     0.068 A 
HETATM   11  C   UNL     1       6.644  24.530  53.979  1.00  0.00     0.095 A 
HETATM   12  C   UNL     1       5.918  24.800  52.810  1.00  0.00     0.039 A 
HETATM   13  C   UNL     1       5.832  26.098  52.302  1.00  0.00     0.003 A 
HETATM   14  C   UNL     1       6.491  27.141  52.942  1.00  0.00     0.002 A 
HETATM   15  C   UNL     1       7.203  26.889  54.112  1.00  0.00     0.032 A 
BRANCH  11  16
HETATM   16  O   UNL     1       6.876  23.264  54.452  1.00  0.00    -0.349 OA
BRANCH  16  17
HETATM   17  C   UNL     1       7.741  22.417  53.698  1.00  0.00     0.171 C 
HETATM   18  C   UNL     1       9.024  22.220  54.482  1.00  0.00     0.034 C 
ENDBRANCH  16  17
ENDBRANCH  11  16
ENDBRANCH   7  10
ENDBRANCH   1   6
BRANCH   5  19
HETATM   19  N   UNL     1       8.948  29.114  57.719  1.00  0.00    -0.382 N 
HETATM   20  H   UNL     1       9.305  30.001  57.355  1.00  0.00     0.157 HD
HETATM   21  H   UNL     1       9.670  28.549  58.163  1.00  0.00     0.157 HD
ENDBRANCH   5  19
BRANCH   4  22
HETATM   22  C   UNL     1       6.496  30.896  57.611  1.00  0.00     0.251 C 
BRANCH  22  23
HETATM   23  C   UNL     1       7.155  31.502  58.822  1.00  0.00     0.241 C 
HETATM   24  N   UNL     1       6.387  31.440  59.973  1.00  0.00    -0.326 N 
HETATM   25  H   UNL     1       5.610  30.787  59.975  1.00  0.00     0.169 HD
HETATM   26  O   UNL     1       8.280  31.995  58.732  1.00  0.00    -0.271 OA
BRANCH  24  27
HETATM   27  C   UNL     1       6.640  32.110  61.188  1.00  0.00     0.034 A 
HETATM   28  C   UNL     1       5.950  33.257  61.594  1.00  0.00     0.031 A 
HETATM   29  C   UNL     1       6.217  33.844  62.836  1.00  0.00     0.026 A 
HETATM   30  C   UNL     1       7.178  33.289  63.675  1.00  0.00     0.034 A 
HETATM   31 CL   UNL     1       7.500  34.008  65.202  1.00  0.00    -0.084 Cl
HETATM   32  C   UNL     1       7.873  32.148  63.282  1.00  0.00     0.026 A 
HETATM   33  C   UNL     1       7.600  31.557  62.045  1.00  0.00     0.031 A 
ENDBRANCH  24  27
ENDBRANCH  22  23
ENDBRANCH   4  22
TORSDOF 8
ENDMDL
MODEL 9
REMARK VINA RESULT:      -8.2      5.131      7.440
REMARK  8 active torsions:
REMARK  status: ('A' for Active; 'I' for Inactive)
REMARK    1  A    between atoms: C_2  and  O_3 
REMARK    2  A    between atoms: O_3  and  C_4 
REMARK    3  A    between atoms: C_5  and  N_6 
REMARK       I    between atoms: N_6  and  C_7 
REMARK    4  A    between atoms: C_7  and  C_8 
REMARK    5  A    between atoms: N_11  and  C_12 
REMARK    6  A    between atoms: C_12  and  C_13 
REMARK       I    between atoms: C_13  and  N_14 
REMARK    7  A    between atoms: N_14  and  C_15 
REMARK    8  A    between atoms: C_23  and  N_24 
ROOT
HETATM    1  C   UNL     1       7.305  25.273  56.539  1.00  0.00     0.187 A 
HETATM    2  N   UNL     1       6.112  24.639  56.243  1.00  0.00    -0.150 NA
HETATM    3  N   UNL     1       5.252  25.535  55.790  1.00  0.00     0.007 NA
HETATM    4  N   UNL     1       5.874  26.724  55.795  1.00  0.00    -0.248 N 
HETATM    5  C   UNL     1       7.137  26.639  56.332  1.00  0.00     0.151 A 
ENDROOT
BRANCH   1   6
HETATM    6  C   UNL     1       8.423  24.511  57.084  1.00  0.00     0.280 C 
HETATM    7  N   UNL     1       9.043  23.500  56.381  1.00  0.00    -0.319 N 
HETATM    8  H   UNL     1       9.973  23.334  56.744  1.00  0.00     0.169 HD
HETATM    9  O   UNL     1       8.943  24.829  58.159  1.00  0.00    -0.265 OA
BRANCH   7  10
HETATM   10  C   UNL     1       8.601  22.624  55.372  1.00  0.00     0.068 A 
HETATM   11  C   UNL     1       8.342  22.979  54.034  1.00  0.00     0.095 A 
HETATM   12  C   UNL     1       7.967  21.977  53.127  1.00  0.00     0.039 A 
HETATM   13  C   UNL     1       7.804  20.655  53.545  1.00  0.00     0.003 A 
HETATM   14  C   UNL     1       7.990  20.320  54.880  1.00  0.00     0.002 A 
HETATM   15  C   UNL     1       8.376  21.302  55.789  1.00  0.00     0.032 A 
BRANCH  11  16
HETATM   16  O   UNL     1       8.388  24.312  53.715  1.00  0.00    -0.349 OA
BRANCH  16  17
HETATM   17  C   UNL     1       7.921  24.707  52.426  1.00  0.00     0.171 C 
HETATM   18  C   UNL     1       6.412  24.846  52.484  1.00  0.00     0.034 C 
ENDBRANCH  16  17
ENDBRANCH  11  16
ENDBRANCH   7  10
ENDBRANCH   1   6
BRANCH   5  19
HETATM   19  N   UNL     1       7.910  27.726  56.554  1.00  0.00    -0.382 N 
HETATM   20  H   UNL     1       8.631  27.799  57.278  1.00  0.00     0.157 HD
HETATM   21  H   UNL     1       7.753  28.604  56.063  1.00  0.00     0.157 HD
ENDBRANCH   5  19
BRANCH   4  22
HETATM   22  C   UNL     1       5.210  27.845  55.178  1.00  0.00     0.251 C 
BRANCH  22  23
HETATM   23  C   UNL     1       5.723  28.138  53.792  1.00  0.00     0.241 C 
HETATM   24  N   UNL     1       4.728  28.266  52.838  1.00  0.00    -0.326 N 
HETATM   25  H   UNL     1       3.782  28.421  53.174  1.00  0.00     0.169 HD
HETATM   26  O   UNL     1       6.933  28.241  53.591  1.00  0.00    -0.271 OA
BRANCH  24  27
HETATM   27  C   UNL     1       4.908  28.319  51.440  1.00  0.00     0.034 A 
HETATM   28  C   UNL     1       5.470  29.414  50.776  1.00  0.00     0.031 A 
HETATM   29  C   UNL     1       5.665  29.381  49.390  1.00  0.00     0.026 A 
HETATM   30  C   UNL     1       5.294  28.254  48.663  1.00  0.00     0.034 A 
HETATM   31 CL   UNL     1       5.540  28.213  46.962  1.00  0.00    -0.084 Cl
HETATM   32  C   UNL     1       4.732  27.157  49.312  1.00  0.00     0.026 A 
HETATM   33  C   UNL     1       4.545  27.188  50.698  1.00  0.00     0.031 A 
ENDBRANCH  24  27
ENDBRANCH  22  23
ENDBRANCH   4  22
TORSDOF 8
ENDMDL
MODEL 10
REMARK VINA RESULT:      -8.1      4.718      6.962
REMARK  8 active torsions:
REMARK  status: ('A' for Active; 'I' for Inactive)
REMARK    1  A    between atoms: C_2  and  O_3 
REMARK    2  A    between atoms: O_3  and  C_4 
REMARK    3  A    between atoms: C_5  and  N_6 
REMARK       I    between atoms: N_6  and  C_7 
REMARK    4  A    between atoms: C_7  and  C_8 
REMARK    5  A    between atoms: N_11  and  C_12 
REMARK    6  A    between atoms: C_12  and  C_13 
REMARK       I    between atoms: C_13  and  N_14 
REMARK    7  A    between atoms: N_14  and  C_15 
REMARK    8  A    between atoms: C_23  and  N_24 
ROOT
HETATM    1  C   UNL     1       6.400  27.082  56.597  1.00  0.00     0.187 A 
HETATM    2  N   UNL     1       5.053  26.785  56.502  1.00  0.00    -0.150 NA
HETATM    3  N   UNL     1       4.410  27.851  56.056  1.00  0.00     0.007 NA
HETATM    4  N   UNL     1       5.321  28.818  55.869  1.00  0.00    -0.248 N 
HETATM    5  C   UNL     1       6.576  28.424  56.269  1.00  0.00     0.151 A 
ENDROOT
BRANCH   1   6
HETATM    6  C   UNL     1       7.338  26.080  57.091  1.00  0.00     0.280 C 
HETATM    7  N   UNL     1       8.063  25.266  56.248  1.00  0.00    -0.319 N 
HETATM    8  H   UNL     1       8.880  24.902  56.722  1.00  0.00     0.169 HD
HETATM    9  O   UNL     1       7.613  26.007  58.294  1.00  0.00    -0.265 OA
BRANCH   7  10
HETATM   10  C   UNL     1       7.829  24.781  54.947  1.00  0.00     0.068 A 
HETATM   11  C   UNL     1       7.500  23.453  54.614  1.00  0.00     0.095 A 
HETATM   12  C   UNL     1       7.233  23.136  53.274  1.00  0.00     0.039 A 
HETATM   13  C   UNL     1       7.337  24.104  52.273  1.00  0.00     0.003 A 
HETATM   14  C   UNL     1       7.732  25.397  52.594  1.00  0.00     0.002 A 
HETATM   15  C   UNL     1       7.986  25.729  53.923  1.00  0.00     0.032 A 
BRANCH  11  16
HETATM   16  O   UNL     1       7.546  22.521  55.618  1.00  0.00    -0.349 OA
BRANCH  16  17
HETATM   17  C   UNL     1       8.672  21.648  55.669  1.00  0.00     0.171 C 
HETATM   18  C   UNL     1       8.228  20.325  56.265  1.00  0.00     0.034 C 
ENDBRANCH  16  17
ENDBRANCH  11  16
ENDBRANCH   7  10
ENDBRANCH   1   6
BRANCH   5  19
HETATM   19  N   UNL     1       7.634  29.266  56.291  1.00  0.00    -0.382 N 
HETATM   20  H   UNL     1       7.665  30.185  55.841  1.00  0.00     0.157 HD
HETATM   21  H   UNL     1       8.530  28.990  56.688  1.00  0.00     0.157 HD
ENDBRANCH   5  19
BRANCH   4  22
HETATM   22  C   UNL     1       4.904  30.034  55.216  1.00  0.00     0.251 C 
BRANCH  22  23
HETATM   23  C   UNL     1       4.486  29.815  53.786  1.00  0.00     0.241 C 
HETATM   24  N   UNL     1       5.307  28.948  53.085  1.00  0.00    -0.326 N 
HETATM   25  H   UNL     1       5.920  28.350  53.630  1.00  0.00     0.169 HD
HETATM   26  O   UNL     1       3.493  30.388  53.338  1.00  0.00    -0.271 OA
BRANCH  24  27
HETATM   27  C   UNL     1       5.299  28.726  51.692  1.00  0.00     0.034 A 
HETATM   28  C   UNL     1       5.641  29.704  50.754  1.00  0.00     0.031 A 
HETATM   29  C   UNL     1       5.659  29.403  49.387  1.00  0.00     0.026 A 
HETATM   30  C   UNL     1       5.330  28.123  48.954  1.00  0.00     0.034 A 
HETATM   31 CL   UNL     1       5.359  27.753  47.275  1.00  0.00    -0.084 Cl
HETATM   32  C   UNL     1       4.987  27.139  49.877  1.00  0.00     0.026 A 
HETATM   33  C   UNL     1       4.977  27.438  51.243  1.00  0.00     0.031 A 
ENDBRANCH  24  27
ENDBRANCH  22  23
ENDBRANCH   4  22
TORSDOF 8
ENDMDL
