MODEL 1
REMARK VINA RESULT:      -9.6      0.000      0.000
REMARK  5 active torsions:
REMARK  status: ('A' for Active; 'I' for Inactive)
REMARK    1  A    between atoms: C_2  and  C_3 
REMARK    2  A    between atoms: C_6  and  C_7 
REMARK    3  A    between atoms: C_7  and  C_8 
REMARK       I    between atoms: C_8  and  N_9 
REMARK    4  A    between atoms: N_9  and  C_10 
REMARK    5  A    between atoms: C_12  and  C_13 
ROOT
HETATM    1  C   UNL     1       6.103  27.823  56.118  1.00  0.00     0.226 C 
HETATM    2  N   UNL     1       6.993  27.777  57.183  1.00  0.00    -0.327 N 
HETATM    3  O   UNL     1       6.029  28.711  55.274  1.00  0.00    -0.273 OA
HETATM    4  H   UNL     1       6.867  27.021  57.844  1.00  0.00     0.169 HD
ENDROOT
BRANCH   1   5
HETATM    5  C   UNL     1       5.202  26.595  56.061  1.00  0.00     0.144 C 
BRANCH   5   6
HETATM    6  C   UNL     1       5.712  25.516  55.161  1.00  0.00    -0.021 A 
HETATM    7  C   UNL     1       6.708  24.523  55.449  1.00  0.00    -0.001 A 
HETATM    8  C   UNL     1       6.925  23.790  54.278  1.00  0.00     0.049 A 
HETATM    9  C   UNL     1       7.460  24.188  56.592  1.00  0.00     0.014 A 
HETATM   10  C   UNL     1       7.872  22.751  54.174  1.00  0.00    -0.031 A 
HETATM   11  N   UNL     1       6.061  24.291  53.331  1.00  0.00    -0.364 N 
HETATM   12  C   UNL     1       8.590  22.444  55.344  1.00  0.00     0.009 A 
HETATM   13  C   UNL     1       8.388  23.145  56.530  1.00  0.00     0.002 A 
HETATM   14  C   UNL     1       5.336  25.329  53.845  1.00  0.00     0.097 A 
HETATM   15  H   UNL     1       5.985  23.941  52.387  1.00  0.00     0.165 HD
BRANCH  10  16
HETATM   16  C   UNL     1       8.130  21.976  52.906  1.00  0.00     0.036 C 
HETATM   17  C   UNL     1       8.158  20.476  53.150  1.00  0.00     0.010 C 
ENDBRANCH  10  16
ENDBRANCH   5   6
ENDBRANCH   1   5
BRANCH   2  18
HETATM   18  C   UNL     1       8.031  28.684  57.482  1.00  0.00     0.035 A 
HETATM   19  C   UNL     1       7.879  29.467  58.637  1.00  0.00     0.042 A 
HETATM   20  C   UNL     1       8.867  30.383  59.031  1.00  0.00    -0.021 A 
HETATM   21  C   UNL     1      10.023  30.505  58.252  1.00  0.00     0.012 A 
HETATM   22  C   UNL     1      10.181  29.729  57.102  1.00  0.00     0.003 A 
HETATM   23  C   UNL     1       9.188  28.826  56.717  1.00  0.00     0.029 A 
BRANCH  20  24
HETATM   24  C   UNL     1       8.672  31.195  60.220  1.00  0.00     0.010 A 
HETATM   25  C   UNL     1       7.906  32.368  60.423  1.00  0.00     0.152 A 
HETATM   26  N   UNL     1       7.966  32.814  61.681  1.00  0.00    -0.187 NA
HETATM   27  N   UNL     1       8.776  31.932  62.288  1.00  0.00    -0.289 N 
HETATM   28  H   UNL     1       8.978  32.064  63.273  1.00  0.00     0.188 HD
HETATM   29  C   UNL     1       9.222  30.944  61.459  1.00  0.00     0.123 A 
ENDBRANCH  20  24
ENDBRANCH   2  18
TORSDOF 5
ENDMDL
MODEL 2
REMARK VINA RESULT:      -9.5      1.034      1.646
REMARK  5 active torsions:
REMARK  status: ('A' for Active; 'I' for Inactive)
REMARK    1  A    between atoms: C_2  and  C_3 
REMARK    2  A    between atoms: C_6  and  C_7 
REMARK    3  A    between atoms: C_7  and  C_8 
REMARK       I    between atoms: C_8  and  N_9 
REMARK    4  A    between atoms: N_9  and  C_10 
REMARK    5  A    between atoms: C_12  and  C_13 
ROOT
HETATM    1  C   UNL     1       6.138  28.269  55.850  1.00  0.00     0.226 C 
HETATM    2  N   UNL     1       7.041  28.068  56.887  1.00  0.00    -0.327 N 
HETATM    3  O   UNL     1       6.048  29.277  55.156  1.00  0.00    -0.273 OA
HETATM    4  H   UNL     1       6.930  27.217  57.423  1.00  0.00     0.169 HD
ENDROOT
BRANCH   1   5
HETATM    5  C   UNL     1       5.249  27.055  55.611  1.00  0.00     0.144 C 
BRANCH   5   6
HETATM    6  C   UNL     1       6.003  25.769  55.499  1.00  0.00    -0.021 A 
HETATM    7  C   UNL     1       6.670  25.233  54.346  1.00  0.00    -0.001 A 
HETATM    8  C   UNL     1       7.152  23.966  54.687  1.00  0.00     0.049 A 
HETATM    9  C   UNL     1       6.894  25.700  53.035  1.00  0.00     0.014 A 
HETATM   10  C   UNL     1       7.830  23.122  53.784  1.00  0.00    -0.031 A 
HETATM   11  N   UNL     1       6.829  23.762  56.010  1.00  0.00    -0.364 N 
HETATM   12  C   UNL     1       8.042  23.635  52.492  1.00  0.00     0.009 A 
HETATM   13  C   UNL     1       7.587  24.898  52.123  1.00  0.00     0.002 A 
HETATM   14  C   UNL     1       6.134  24.829  56.504  1.00  0.00     0.097 A 
HETATM   15  H   UNL     1       7.068  22.932  56.533  1.00  0.00     0.165 HD
BRANCH  10  16
HETATM   16  C   UNL     1       8.328  21.744  54.139  1.00  0.00     0.036 C 
HETATM   17  C   UNL     1       8.250  20.786  52.961  1.00  0.00     0.010 C 
ENDBRANCH  10  16
ENDBRANCH   5   6
ENDBRANCH   1   5
BRANCH   2  18
HETATM   18  C   UNL     1       8.073  28.928  57.313  1.00  0.00     0.035 A 
HETATM   19  C   UNL     1       7.886  29.589  58.537  1.00  0.00     0.042 A 
HETATM   20  C   UNL     1       8.865  30.450  59.058  1.00  0.00    -0.021 A 
HETATM   21  C   UNL     1      10.048  30.640  58.337  1.00  0.00     0.012 A 
HETATM   22  C   UNL     1      10.242  29.986  57.118  1.00  0.00     0.003 A 
HETATM   23  C   UNL     1       9.258  29.137  56.608  1.00  0.00     0.029 A 
BRANCH  20  24
HETATM   24  C   UNL     1       8.633  31.137  60.317  1.00  0.00     0.010 A 
HETATM   25  C   UNL     1       7.944  32.340  60.601  1.00  0.00     0.152 A 
HETATM   26  N   UNL     1       7.932  32.636  61.903  1.00  0.00    -0.187 NA
HETATM   27  N   UNL     1       8.619  31.625  62.460  1.00  0.00    -0.289 N 
HETATM   28  H   UNL     1       8.747  31.628  63.467  1.00  0.00     0.188 HD
HETATM   29  C   UNL     1       9.057  30.702  61.555  1.00  0.00     0.123 A 
ENDBRANCH  20  24
ENDBRANCH   2  18
TORSDOF 5
ENDMDL
MODEL 3
REMARK VINA RESULT:      -9.2      2.247      8.829
REMARK  5 active torsions:
REMARK  status: ('A' for Active; 'I' for Inactive)
REMARK    1  A    between atoms: C_2  and  C_3 
REMARK    2  A    between atoms: C_6  and  C_7 
REMARK    3  A    between atoms: C_7  and  C_8 
REMARK       I    between atoms: C_8  and  N_9 
REMARK    4  A    between atoms: N_9  and  C_10 
REMARK    5  A    between atoms: C_12  and  C_13 
ROOT
HETATM    1  C   UNL     1       7.454  28.145  54.872  1.00  0.00     0.226 C 
HETATM    2  N   UNL     1       6.921  26.865  54.965  1.00  0.00    -0.327 N 
HETATM    3  O   UNL     1       8.396  28.487  54.164  1.00  0.00    -0.273 OA
HETATM    4  H   UNL     1       6.202  26.726  55.663  1.00  0.00     0.169 HD
ENDROOT
BRANCH   1   5
HETATM    5  C   UNL     1       6.707  29.149  55.741  1.00  0.00     0.144 C 
BRANCH   5   6
HETATM    6  C   UNL     1       7.469  29.582  56.953  1.00  0.00    -0.021 A 
HETATM    7  C   UNL     1       7.084  30.552  57.939  1.00  0.00    -0.001 A 
HETATM    8  C   UNL     1       8.152  30.694  58.830  1.00  0.00     0.049 A 
HETATM    9  C   UNL     1       5.934  31.338  58.148  1.00  0.00     0.014 A 
HETATM   10  C   UNL     1       8.147  31.598  59.913  1.00  0.00    -0.031 A 
HETATM   11  N   UNL     1       9.127  29.810  58.426  1.00  0.00    -0.364 N 
HETATM   12  C   UNL     1       6.972  32.351  60.089  1.00  0.00     0.009 A 
HETATM   13  C   UNL     1       5.886  32.224  59.228  1.00  0.00     0.002 A 
HETATM   14  C   UNL     1       8.734  29.146  57.299  1.00  0.00     0.097 A 
HETATM   15  H   UNL     1      10.011  29.683  58.897  1.00  0.00     0.165 HD
BRANCH  10  16
HETATM   16  C   UNL     1       9.306  31.774  60.862  1.00  0.00     0.036 C 
HETATM   17  C   UNL     1       9.396  30.640  61.870  1.00  0.00     0.010 C 
ENDBRANCH  10  16
ENDBRANCH   5   6
ENDBRANCH   1   5
BRANCH   2  18
HETATM   18  C   UNL     1       7.291  25.720  54.231  1.00  0.00     0.035 A 
HETATM   19  C   UNL     1       7.503  24.539  54.959  1.00  0.00     0.042 A 
HETATM   20  C   UNL     1       7.853  23.340  54.316  1.00  0.00    -0.021 A 
HETATM   21  C   UNL     1       7.984  23.335  52.924  1.00  0.00     0.012 A 
HETATM   22  C   UNL     1       7.775  24.506  52.193  1.00  0.00     0.003 A 
HETATM   23  C   UNL     1       7.433  25.694  52.844  1.00  0.00     0.029 A 
BRANCH  20  24
HETATM   24  C   UNL     1       8.087  22.138  55.099  1.00  0.00     0.010 A 
HETATM   25  C   UNL     1       8.073  20.774  54.724  1.00  0.00     0.152 A 
HETATM   26  N   UNL     1       8.359  19.955  55.739  1.00  0.00    -0.187 NA
HETATM   27  N   UNL     1       8.554  20.791  56.771  1.00  0.00    -0.289 N 
HETATM   28  H   UNL     1       8.789  20.393  57.675  1.00  0.00     0.188 HD
HETATM   29  C   UNL     1       8.405  22.107  56.440  1.00  0.00     0.123 A 
ENDBRANCH  20  24
ENDBRANCH   2  18
TORSDOF 5
ENDMDL
MODEL 4
REMARK VINA RESULT:      -9.1      2.145      8.649
REMARK  5 active torsions:
REMARK  status: ('A' for Active; 'I' for Inactive)
REMARK    1  A    between atoms: C_2  and  C_3 
REMARK    2  A    between atoms: C_6  and  C_7 
REMARK    3  A    between atoms: C_7  and  C_8 
REMARK       I    between atoms: C_8  and  N_9 
REMARK    4  A    between atoms: N_9  and  C_10 
REMARK    5  A    between atoms: C_12  and  C_13 
ROOT
HETATM    1  C   UNL     1       5.633  27.546  55.144  1.00  0.00     0.226 C 
HETATM    2  N   UNL     1       6.058  26.226  55.236  1.00  0.00    -0.327 N 
HETATM    3  O   UNL     1       5.810  28.297  54.189  1.00  0.00    -0.273 OA
HETATM    4  H   UNL     1       5.913  25.767  56.126  1.00  0.00     0.169 HD
ENDROOT
BRANCH   1   5
HETATM    5  C   UNL     1       4.856  27.993  56.375  1.00  0.00     0.144 C 
BRANCH   5   6
HETATM    6  C   UNL     1       5.502  29.118  57.120  1.00  0.00    -0.021 A 
HETATM    7  C   UNL     1       6.899  29.315  57.383  1.00  0.00    -0.001 A 
HETATM    8  C   UNL     1       7.020  30.448  58.192  1.00  0.00     0.049 A 
HETATM    9  C   UNL     1       8.074  28.626  57.023  1.00  0.00     0.014 A 
HETATM   10  C   UNL     1       8.253  30.924  58.686  1.00  0.00    -0.031 A 
HETATM   11  N   UNL     1       5.749  30.944  58.374  1.00  0.00    -0.364 N 
HETATM   12  C   UNL     1       9.398  30.211  58.290  1.00  0.00     0.009 A 
HETATM   13  C   UNL     1       9.314  29.087  57.474  1.00  0.00     0.002 A 
HETATM   14  C   UNL     1       4.831  30.152  57.745  1.00  0.00     0.097 A 
HETATM   15  H   UNL     1       5.532  31.773  58.908  1.00  0.00     0.165 HD
BRANCH  10  16
HETATM   16  C   UNL     1       8.386  32.130  59.582  1.00  0.00     0.036 C 
HETATM   17  C   UNL     1       9.508  31.967  60.596  1.00  0.00     0.010 C 
ENDBRANCH  10  16
ENDBRANCH   5   6
ENDBRANCH   1   5
BRANCH   2  18
HETATM   18  C   UNL     1       6.709  25.457  54.250  1.00  0.00     0.035 A 
HETATM   19  C   UNL     1       7.043  24.137  54.591  1.00  0.00     0.042 A 
HETATM   20  C   UNL     1       7.674  23.285  53.670  1.00  0.00    -0.021 A 
HETATM   21  C   UNL     1       7.963  23.770  52.391  1.00  0.00     0.012 A 
HETATM   22  C   UNL     1       7.634  25.081  52.045  1.00  0.00     0.003 A 
HETATM   23  C   UNL     1       7.013  25.922  52.972  1.00  0.00     0.029 A 
BRANCH  20  24
HETATM   24  C   UNL     1       8.027  21.929  54.060  1.00  0.00     0.010 A 
HETATM   25  C   UNL     1       8.494  20.839  53.288  1.00  0.00     0.152 A 
HETATM   26  N   UNL     1       8.728  19.748  54.023  1.00  0.00    -0.187 NA
HETATM   27  N   UNL     1       8.407  20.133  55.268  1.00  0.00    -0.289 N 
HETATM   28  H   UNL     1       8.503  19.460  56.021  1.00  0.00     0.188 HD
HETATM   29  C   UNL     1       7.984  21.430  55.343  1.00  0.00     0.123 A 
ENDBRANCH  20  24
ENDBRANCH   2  18
TORSDOF 5
ENDMDL
MODEL 5
REMARK VINA RESULT:      -9.0      1.984      9.211
REMARK  5 active torsions:
REMARK  status: ('A' for Active; 'I' for Inactive)
REMARK    1  A    between atoms: C_2  and  C_3 
REMARK    2  A    between atoms: C_6  and  C_7 
REMARK    3  A    between atoms: C_7  and  C_8 
REMARK       I    between atoms: C_8  and  N_9 
REMARK    4  A    between atoms: N_9  and  C_10 
REMARK    5  A    between atoms: C_12  and  C_13 
ROOT
HETATM    1  C   UNL     1       7.926  27.859  57.241  1.00  0.00     0.226 C 
HETATM    2  N   UNL     1       7.620  27.850  55.886  1.00  0.00    -0.327 N 
HETATM    3  O   UNL     1       7.635  26.986  58.054  1.00  0.00    -0.273 OA
HETATM    4  H   UNL     1       7.851  28.687  55.367  1.00  0.00     0.169 HD
ENDROOT
BRANCH   1   5
HETATM    5  C   UNL     1       8.728  29.089  57.648  1.00  0.00     0.144 C 
BRANCH   5   6
HETATM    6  C   UNL     1       7.936  30.095  58.421  1.00  0.00    -0.021 A 
HETATM    7  C   UNL     1       8.284  30.727  59.662  1.00  0.00    -0.001 A 
HETATM    8  C   UNL     1       7.199  31.519  60.051  1.00  0.00     0.049 A 
HETATM    9  C   UNL     1       9.414  30.688  60.503  1.00  0.00     0.014 A 
HETATM   10  C   UNL     1       7.167  32.260  61.250  1.00  0.00    -0.031 A 
HETATM   11  N   UNL     1       6.250  31.406  59.061  1.00  0.00    -0.364 N 
HETATM   12  C   UNL     1       8.322  32.200  62.050  1.00  0.00     0.009 A 
HETATM   13  C   UNL     1       9.425  31.433  61.686  1.00  0.00     0.002 A 
HETATM   14  C   UNL     1       6.676  30.550  58.084  1.00  0.00     0.097 A 
HETATM   15  H   UNL     1       5.361  31.885  59.066  1.00  0.00     0.165 HD
BRANCH  10  16
HETATM   16  C   UNL     1       5.989  33.095  61.687  1.00  0.00     0.036 C 
HETATM   17  C   UNL     1       4.948  32.270  62.428  1.00  0.00     0.010 C 
ENDBRANCH  10  16
ENDBRANCH   5   6
ENDBRANCH   1   5
BRANCH   2  18
HETATM   18  C   UNL     1       6.985  26.830  55.150  1.00  0.00     0.035 A 
HETATM   19  C   UNL     1       7.673  25.612  55.025  1.00  0.00     0.042 A 
HETATM   20  C   UNL     1       7.115  24.528  54.329  1.00  0.00    -0.021 A 
HETATM   21  C   UNL     1       5.845  24.674  53.760  1.00  0.00     0.012 A 
HETATM   22  C   UNL     1       5.155  25.881  53.881  1.00  0.00     0.003 A 
HETATM   23  C   UNL     1       5.723  26.955  54.570  1.00  0.00     0.029 A 
BRANCH  20  24
HETATM   24  C   UNL     1       7.861  23.288  54.198  1.00  0.00     0.010 A 
HETATM   25  C   UNL     1       7.842  22.300  53.184  1.00  0.00     0.152 A 
HETATM   26  N   UNL     1       8.698  21.302  53.418  1.00  0.00    -0.187 NA
HETATM   27  N   UNL     1       9.267  21.643  54.585  1.00  0.00    -0.289 N 
HETATM   28  H   UNL     1       9.968  21.024  54.977  1.00  0.00     0.188 HD
HETATM   29  C   UNL     1       8.802  22.823  55.091  1.00  0.00     0.123 A 
ENDBRANCH  20  24
ENDBRANCH   2  18
TORSDOF 5
ENDMDL
MODEL 6
REMARK VINA RESULT:      -9.0      2.400      3.530
REMARK  5 active torsions:
REMARK  status: ('A' for Active; 'I' for Inactive)
REMARK    1  A    between atoms: C_2  and  C_3 
REMARK    2  A    between atoms: C_6  and  C_7 
REMARK    3  A    between atoms: C_7  and  C_8 
REMARK       I    between atoms: C_8  and  N_9 
REMARK    4  A    between atoms: N_9  and  C_10 
REMARK    5  A    between atoms: C_12  and  C_13 
ROOT
HETATM    1  C   UNL     1       7.908  29.250  58.122  1.00  0.00     0.226 C 
HETATM    2  N   UNL     1       7.331  30.106  59.051  1.00  0.00    -0.327 N 
HETATM    3  O   UNL     1       9.109  29.049  57.972  1.00  0.00    -0.273 OA
HETATM    4  H   UNL     1       6.328  30.230  58.988  1.00  0.00     0.169 HD
ENDROOT
BRANCH   1   5
HETATM    5  C   UNL     1       6.868  28.514  57.286  1.00  0.00     0.144 C 
BRANCH   5   6
HETATM    6  C   UNL     1       7.227  27.093  56.992  1.00  0.00    -0.021 A 
HETATM    7  C   UNL     1       7.410  26.475  55.709  1.00  0.00    -0.001 A 
HETATM    8  C   UNL     1       7.643  25.113  55.925  1.00  0.00     0.049 A 
HETATM    9  C   UNL     1       7.383  26.942  54.380  1.00  0.00     0.014 A 
HETATM   10  C   UNL     1       7.827  24.180  54.884  1.00  0.00    -0.031 A 
HETATM   11  N   UNL     1       7.646  24.923  57.288  1.00  0.00    -0.364 N 
HETATM   12  C   UNL     1       7.805  24.696  53.576  1.00  0.00     0.009 A 
HETATM   13  C   UNL     1       7.589  26.048  53.326  1.00  0.00     0.002 A 
HETATM   14  C   UNL     1       7.390  26.098  57.937  1.00  0.00     0.097 A 
HETATM   15  H   UNL     1       7.807  24.033  57.739  1.00  0.00     0.165 HD
BRANCH  10  16
HETATM   16  C   UNL     1       8.052  22.706  55.111  1.00  0.00     0.036 C 
HETATM   17  C   UNL     1       8.601  22.015  53.873  1.00  0.00     0.010 C 
ENDBRANCH  10  16
ENDBRANCH   5   6
ENDBRANCH   1   5
BRANCH   2  18
HETATM   18  C   UNL     1       7.978  30.862  60.049  1.00  0.00     0.035 A 
HETATM   19  C   UNL     1       7.196  31.288  61.133  1.00  0.00     0.042 A 
HETATM   20  C   UNL     1       7.754  32.028  62.188  1.00  0.00    -0.021 A 
HETATM   21  C   UNL     1       9.118  32.333  62.150  1.00  0.00     0.012 A 
HETATM   22  C   UNL     1       9.903  31.913  61.075  1.00  0.00     0.003 A 
HETATM   23  C   UNL     1       9.335  31.183  60.028  1.00  0.00     0.029 A 
BRANCH  20  24
HETATM   24  C   UNL     1       6.913  32.474  63.287  1.00  0.00     0.010 A 
HETATM   25  C   UNL     1       5.512  32.394  63.470  1.00  0.00     0.152 A 
HETATM   26  N   UNL     1       5.112  32.906  64.637  1.00  0.00    -0.187 NA
HETATM   27  N   UNL     1       6.255  33.321  65.205  1.00  0.00    -0.289 N 
HETATM   28  H   UNL     1       6.207  33.756  66.121  1.00  0.00     0.188 HD
HETATM   29  C   UNL     1       7.360  33.083  64.440  1.00  0.00     0.123 A 
ENDBRANCH  20  24
ENDBRANCH   2  18
TORSDOF 5
ENDMDL
MODEL 7
REMARK VINA RESULT:      -8.9      5.113      9.094
REMARK  5 active torsions:
REMARK  status: ('A' for Active; 'I' for Inactive)
REMARK    1  A    between atoms: C_2  and  C_3 
REMARK    2  A    between atoms: C_6  and  C_7 
REMARK    3  A    between atoms: C_7  and  C_8 
REMARK       I    between atoms: C_8  and  N_9 
REMARK    4  A    between atoms: N_9  and  C_10 
REMARK    5  A    between atoms: C_12  and  C_13 
ROOT
HETATM    1  C   UNL     1       5.659  26.401  52.117  1.00  0.00     0.226 C 
HETATM    2  N   UNL     1       6.853  26.203  52.799  1.00  0.00    -0.327 N 
HETATM    3  O   UNL     1       4.597  25.826  52.338  1.00  0.00    -0.273 OA
HETATM    4  H   UNL     1       7.664  26.689  52.437  1.00  0.00     0.169 HD
ENDROOT
BRANCH   1   5
HETATM    5  C   UNL     1       5.775  27.472  51.041  1.00  0.00     0.144 C 
BRANCH   5   6
HETATM    6  C   UNL     1       4.483  27.776  50.351  1.00  0.00    -0.021 A 
HETATM    7  C   UNL     1       3.889  27.082  49.243  1.00  0.00    -0.001 A 
HETATM    8  C   UNL     1       2.734  27.780  48.878  1.00  0.00     0.049 A 
HETATM    9  C   UNL     1       4.234  25.933  48.504  1.00  0.00     0.014 A 
HETATM   10  C   UNL     1       1.910  27.409  47.796  1.00  0.00    -0.031 A 
HETATM   11  N   UNL     1       2.609  28.830  49.759  1.00  0.00    -0.364 N 
HETATM   12  C   UNL     1       2.287  26.249  47.096  1.00  0.00     0.009 A 
HETATM   13  C   UNL     1       3.423  25.523  47.442  1.00  0.00     0.002 A 
HETATM   14  C   UNL     1       3.654  28.843  50.640  1.00  0.00     0.097 A 
HETATM   15  H   UNL     1       1.853  29.499  49.746  1.00  0.00     0.165 HD
BRANCH  10  16
HETATM   16  C   UNL     1       0.678  28.174  47.381  1.00  0.00     0.036 C 
HETATM   17  C   UNL     1       0.055  27.609  46.114  1.00  0.00     0.010 C 
ENDBRANCH  10  16
ENDBRANCH   5   6
ENDBRANCH   1   5
BRANCH   2  18
HETATM   18  C   UNL     1       7.085  25.372  53.913  1.00  0.00     0.035 A 
HETATM   19  C   UNL     1       7.508  24.059  53.651  1.00  0.00     0.042 A 
HETATM   20  C   UNL     1       7.785  23.161  54.694  1.00  0.00    -0.021 A 
HETATM   21  C   UNL     1       7.640  23.596  56.015  1.00  0.00     0.012 A 
HETATM   22  C   UNL     1       7.219  24.900  56.284  1.00  0.00     0.003 A 
HETATM   23  C   UNL     1       6.940  25.782  55.238  1.00  0.00     0.029 A 
BRANCH  20  24
HETATM   24  C   UNL     1       8.202  21.802  54.390  1.00  0.00     0.010 A 
HETATM   25  C   UNL     1       8.193  21.083  53.171  1.00  0.00     0.152 A 
HETATM   26  N   UNL     1       8.680  19.846  53.296  1.00  0.00    -0.187 NA
HETATM   27  N   UNL     1       8.999  19.764  54.598  1.00  0.00    -0.289 N 
HETATM   28  H   UNL     1       9.397  18.897  54.942  1.00  0.00     0.188 HD
HETATM   29  C   UNL     1       8.735  20.908  55.295  1.00  0.00     0.123 A 
ENDBRANCH  20  24
ENDBRANCH   2  18
TORSDOF 5
ENDMDL
MODEL 8
REMARK VINA RESULT:      -8.8      4.364      8.740
REMARK  5 active torsions:
REMARK  status: ('A' for Active; 'I' for Inactive)
REMARK    1  A    between atoms: C_2  and  C_3 
REMARK    2  A    between atoms: C_6  and  C_7 
REMARK    3  A    between atoms: C_7  and  C_8 
REMARK       I    between atoms: C_8  and  N_9 
REMARK    4  A    between atoms: N_9  and  C_10 
REMARK    5  A    between atoms: C_12  and  C_13 
ROOT
HETATM    1  C   UNL     1       5.786  28.081  53.409  1.00  0.00     0.226 C 
HETATM    2  N   UNL     1       5.700  28.526  52.096  1.00  0.00    -0.327 N 
HETATM    3  O   UNL     1       4.841  27.851  54.158  1.00  0.00    -0.273 OA
HETATM    4  H   UNL     1       6.574  28.755  51.640  1.00  0.00     0.169 HD
ENDROOT
BRANCH   1   5
HETATM    5  C   UNL     1       7.226  27.854  53.852  1.00  0.00     0.144 C 
BRANCH   5   6
HETATM    6  C   UNL     1       7.440  26.555  54.563  1.00  0.00    -0.021 A 
HETATM    7  C   UNL     1       7.584  25.247  53.988  1.00  0.00    -0.001 A 
HETATM    8  C   UNL     1       7.668  24.331  55.041  1.00  0.00     0.049 A 
HETATM    9  C   UNL     1       7.634  24.753  52.670  1.00  0.00     0.014 A 
HETATM   10  C   UNL     1       7.775  22.938  54.853  1.00  0.00    -0.031 A 
HETATM   11  N   UNL     1       7.622  25.061  56.207  1.00  0.00    -0.364 N 
HETATM   12  C   UNL     1       7.834  22.493  53.520  1.00  0.00     0.009 A 
HETATM   13  C   UNL     1       7.767  23.379  52.449  1.00  0.00     0.002 A 
HETATM   14  C   UNL     1       7.478  26.392  55.934  1.00  0.00     0.097 A 
HETATM   15  H   UNL     1       7.680  24.660  57.132  1.00  0.00     0.165 HD
BRANCH  10  16
HETATM   16  C   UNL     1       7.839  21.942  55.984  1.00  0.00     0.036 C 
HETATM   17  C   UNL     1       8.066  20.524  55.485  1.00  0.00     0.010 C 
ENDBRANCH  10  16
ENDBRANCH   5   6
ENDBRANCH   1   5
BRANCH   2  18
HETATM   18  C   UNL     1       4.536  28.740  51.331  1.00  0.00     0.035 A 
HETATM   19  C   UNL     1       4.304  27.858  50.264  1.00  0.00     0.042 A 
HETATM   20  C   UNL     1       3.162  27.975  49.456  1.00  0.00    -0.021 A 
HETATM   21  C   UNL     1       2.241  28.990  49.735  1.00  0.00     0.012 A 
HETATM   22  C   UNL     1       2.464  29.871  50.794  1.00  0.00     0.003 A 
HETATM   23  C   UNL     1       3.607  29.748  51.587  1.00  0.00     0.029 A 
BRANCH  20  24
HETATM   24  C   UNL     1       2.961  27.060  48.345  1.00  0.00     0.010 A 
HETATM   25  C   UNL     1       3.580  25.824  48.042  1.00  0.00     0.152 A 
HETATM   26  N   UNL     1       3.103  25.266  46.926  1.00  0.00    -0.187 NA
HETATM   27  N   UNL     1       2.179  26.145  46.506  1.00  0.00    -0.289 N 
HETATM   28  H   UNL     1       1.668  25.935  45.655  1.00  0.00     0.188 HD
HETATM   29  C   UNL     1       2.054  27.233  47.321  1.00  0.00     0.123 A 
ENDBRANCH  20  24
ENDBRANCH   2  18
TORSDOF 5
ENDMDL
MODEL 9
REMARK VINA RESULT:      -8.4      1.989      2.821
REMARK  5 active torsions:
REMARK  status: ('A' for Active; 'I' for Inactive)
REMARK    1  A    between atoms: C_2  and  C_3 
REMARK    2  A    between atoms: C_6  and  C_7 
REMARK    3  A    between atoms: C_7  and  C_8 
REMARK       I    between atoms: C_8  and  N_9 
REMARK    4  A    between atoms: N_9  and  C_10 
REMARK    5  A    between atoms: C_12  and  C_13 
ROOT
HETATM    1  C   UNL     1       6.138  28.162  55.225  1.00  0.00     0.226 C 
HETATM    2  N   UNL     1       5.211  28.843  56.004  1.00  0.00    -0.327 N 
HETATM    3  O   UNL     1       7.267  28.550  54.939  1.00  0.00    -0.273 OA
HETATM    4  H   UNL     1       4.290  28.431  56.073  1.00  0.00     0.169 HD
ENDROOT
BRANCH   1   5
HETATM    5  C   UNL     1       5.621  26.806  54.761  1.00  0.00     0.144 C 
BRANCH   5   6
HETATM    6  C   UNL     1       6.313  25.646  55.402  1.00  0.00    -0.021 A 
HETATM    7  C   UNL     1       6.873  24.489  54.763  1.00  0.00    -0.001 A 
HETATM    8  C   UNL     1       7.328  23.631  55.769  1.00  0.00     0.049 A 
HETATM    9  C   UNL     1       7.022  24.081  53.423  1.00  0.00     0.014 A 
HETATM   10  C   UNL     1       7.905  22.370  55.514  1.00  0.00    -0.031 A 
HETATM   11  N   UNL     1       7.094  24.264  56.968  1.00  0.00    -0.364 N 
HETATM   12  C   UNL     1       8.044  22.012  54.161  1.00  0.00     0.009 A 
HETATM   13  C   UNL     1       7.615  22.848  53.135  1.00  0.00     0.002 A 
HETATM   14  C   UNL     1       6.479  25.467  56.762  1.00  0.00     0.097 A 
HETATM   15  H   UNL     1       7.337  23.883  57.871  1.00  0.00     0.165 HD
BRANCH  10  16
HETATM   16  C   UNL     1       8.373  21.428  56.595  1.00  0.00     0.036 C 
HETATM   17  C   UNL     1       9.085  20.212  56.025  1.00  0.00     0.010 C 
ENDBRANCH  10  16
ENDBRANCH   5   6
ENDBRANCH   1   5
BRANCH   2  18
HETATM   18  C   UNL     1       5.385  30.068  56.680  1.00  0.00     0.035 A 
HETATM   19  C   UNL     1       6.305  30.085  57.741  1.00  0.00     0.042 A 
HETATM   20  C   UNL     1       6.564  31.261  58.462  1.00  0.00    -0.021 A 
HETATM   21  C   UNL     1       5.891  32.434  58.104  1.00  0.00     0.012 A 
HETATM   22  C   UNL     1       4.975  32.425  57.050  1.00  0.00     0.003 A 
HETATM   23  C   UNL     1       4.721  31.247  56.344  1.00  0.00     0.029 A 
BRANCH  20  24
HETATM   24  C   UNL     1       7.506  31.242  59.569  1.00  0.00     0.010 A 
HETATM   25  C   UNL     1       8.600  30.385  59.836  1.00  0.00     0.152 A 
HETATM   26  N   UNL     1       9.245  30.705  60.961  1.00  0.00    -0.187 NA
HETATM   27  N   UNL     1       8.565  31.766  61.422  1.00  0.00    -0.289 N 
HETATM   28  H   UNL     1       8.874  32.197  62.287  1.00  0.00     0.188 HD
HETATM   29  C   UNL     1       7.518  32.129  60.624  1.00  0.00     0.123 A 
ENDBRANCH  20  24
ENDBRANCH   2  18
TORSDOF 5
ENDMDL
MODEL 10
REMARK VINA RESULT:      -7.9      3.486      9.222
REMARK  5 active torsions:
REMARK  status: ('A' for Active; 'I' for Inactive)
REMARK    1  A    between atoms: C_2  and  C_3 
REMARK    2  A    between atoms: C_6  and  C_7 
REMARK    3  A    between atoms: C_7  and  C_8 
REMARK       I    between atoms: C_8  and  N_9 
REMARK    4  A    between atoms: N_9  and  C_10 
REMARK    5  A    between atoms: C_12  and  C_13 
ROOT
HETATM    1  C   UNL     1       6.981  27.734  54.314  1.00  0.00     0.226 C 
HETATM    2  N   UNL     1       5.636  27.454  54.104  1.00  0.00    -0.327 N 
HETATM    3  O   UNL     1       7.703  28.403  53.582  1.00  0.00    -0.273 OA
HETATM    4  H   UNL     1       5.202  26.812  54.754  1.00  0.00     0.169 HD
ENDROOT
BRANCH   1   5
HETATM    5  C   UNL     1       7.500  27.139  55.617  1.00  0.00     0.144 C 
BRANCH   5   6
HETATM    6  C   UNL     1       7.664  28.141  56.714  1.00  0.00    -0.021 A 
HETATM    7  C   UNL     1       8.809  28.961  56.996  1.00  0.00    -0.001 A 
HETATM    8  C   UNL     1       8.539  29.671  58.170  1.00  0.00     0.049 A 
HETATM    9  C   UNL     1      10.057  29.155  56.373  1.00  0.00     0.014 A 
HETATM   10  C   UNL     1       9.460  30.552  58.776  1.00  0.00    -0.031 A 
HETATM   11  N   UNL     1       7.264  29.328  58.558  1.00  0.00    -0.364 N 
HETATM   12  C   UNL     1      10.687  30.722  58.111  1.00  0.00     0.009 A 
HETATM   13  C   UNL     1      10.982  30.042  56.933  1.00  0.00     0.002 A 
HETATM   14  C   UNL     1       6.734  28.407  57.700  1.00  0.00     0.097 A 
HETATM   15  H   UNL     1       6.795  29.703  59.371  1.00  0.00     0.165 HD
BRANCH  10  16
HETATM   16  C   UNL     1       9.185  31.299  60.057  1.00  0.00     0.036 C 
HETATM   17  C   UNL     1       7.936  32.161  59.958  1.00  0.00     0.010 C 
ENDBRANCH  10  16
ENDBRANCH   5   6
ENDBRANCH   1   5
BRANCH   2  18
HETATM   18  C   UNL     1       4.808  27.926  53.065  1.00  0.00     0.035 A 
HETATM   19  C   UNL     1       5.165  27.569  51.755  1.00  0.00     0.042 A 
HETATM   20  C   UNL     1       4.392  27.972  50.654  1.00  0.00    -0.021 A 
HETATM   21  C   UNL     1       3.243  28.737  50.880  1.00  0.00     0.012 A 
HETATM   22  C   UNL     1       2.882  29.095  52.180  1.00  0.00     0.003 A 
HETATM   23  C   UNL     1       3.662  28.694  53.267  1.00  0.00     0.029 A 
BRANCH  20  24
HETATM   24  C   UNL     1       4.799  27.605  49.308  1.00  0.00     0.010 A 
HETATM   25  C   UNL     1       4.501  26.459  48.532  1.00  0.00     0.152 A 
HETATM   26  N   UNL     1       5.055  26.498  47.317  1.00  0.00    -0.187 NA
HETATM   27  N   UNL     1       5.714  27.668  47.310  1.00  0.00    -0.289 N 
HETATM   28  H   UNL     1       6.226  27.927  46.473  1.00  0.00     0.188 HD
HETATM   29  C   UNL     1       5.590  28.368  48.476  1.00  0.00     0.123 A 
ENDBRANCH  20  24
ENDBRANCH   2  18
TORSDOF 5
ENDMDL
