MODEL 1
REMARK VINA RESULT:      -8.8      0.000      0.000
REMARK  5 active torsions:
REMARK  status: ('A' for Active; 'I' for Inactive)
REMARK    1  A    between atoms: C_2  and  O_3 
REMARK    2  A    between atoms: O_3  and  C_4 
REMARK    3  A    between atoms: C_5  and  C_6 
REMARK    4  A    between atoms: N_7  and  N_8 
REMARK       I    between atoms: N_8  and  C_9 
REMARK    5  A    between atoms: C_9  and  C_10 
ROOT
HETATM    1  N   UNL     1       7.698  25.965  56.854  1.00  0.00    -0.243 N 
HETATM    2  C   UNL     1       7.536  27.144  56.136  1.00  0.00     0.274 C 
HETATM    3  O   UNL     1       7.276  27.213  54.937  1.00  0.00    -0.266 OA
HETATM    4  H   UNL     1       7.580  26.031  57.858  1.00  0.00     0.192 HD
ENDROOT
BRANCH   1   5
HETATM    5  N   UNL     1       7.572  24.680  56.385  1.00  0.00    -0.183 NA
HETATM    6  C   UNL     1       8.636  23.954  56.243  1.00  0.00     0.153 C 
BRANCH   6   7
HETATM    7  C   UNL     1       8.560  22.590  55.684  1.00  0.00     0.016 A 
HETATM    8  C   UNL     1       8.642  22.378  54.303  1.00  0.00     0.080 A 
HETATM    9  C   UNL     1       8.664  21.076  53.799  1.00  0.00     0.037 A 
HETATM   10  C   UNL     1       8.557  19.986  54.665  1.00  0.00     0.003 A 
HETATM   11  C   UNL     1       8.435  20.197  56.039  1.00  0.00     0.001 A 
HETATM   12  C   UNL     1       8.438  21.496  56.550  1.00  0.00     0.016 A 
BRANCH   8  13
HETATM   13  O   UNL     1       8.731  23.386  53.379  1.00  0.00    -0.351 OA
BRANCH  13  14
HETATM   14  C   UNL     1       7.465  23.667  52.763  1.00  0.00     0.171 C 
HETATM   15  C   UNL     1       7.585  24.968  51.993  1.00  0.00     0.034 C 
ENDBRANCH  13  14
ENDBRANCH   8  13
ENDBRANCH   6   7
ENDBRANCH   1   5
BRANCH   2  16
HETATM   16  C   UNL     1       7.625  28.359  56.954  1.00  0.00     0.061 A 
HETATM   17  C   UNL     1       8.735  29.233  57.240  1.00  0.00     0.008 A 
HETATM   18  C   UNL     1       8.272  30.217  58.119  1.00  0.00     0.043 A 
HETATM   19  C   UNL     1      10.089  29.303  56.835  1.00  0.00     0.015 A 
HETATM   20  C   UNL     1       9.093  31.226  58.639  1.00  0.00     0.030 A 
HETATM   21  N   UNL     1       6.933  29.990  58.322  1.00  0.00    -0.364 N 
HETATM   22  C   UNL     1      10.432  31.245  58.245  1.00  0.00     0.002 A 
HETATM   23  C   UNL     1      10.923  30.303  57.349  1.00  0.00     0.001 A 
HETATM   24  H   UNL     1       6.334  30.563  58.899  1.00  0.00     0.165 HD
HETATM   25  C   UNL     1       6.532  28.891  57.620  1.00  0.00     0.106 A 
ENDBRANCH   2  16
TORSDOF 5
ENDMDL
MODEL 2
REMARK VINA RESULT:      -8.5      2.176      3.770
REMARK  5 active torsions:
REMARK  status: ('A' for Active; 'I' for Inactive)
REMARK    1  A    between atoms: C_2  and  O_3 
REMARK    2  A    between atoms: O_3  and  C_4 
REMARK    3  A    between atoms: C_5  and  C_6 
REMARK    4  A    between atoms: N_7  and  N_8 
REMARK       I    between atoms: N_8  and  C_9 
REMARK    5  A    between atoms: C_9  and  C_10 
ROOT
HETATM    1  N   UNL     1       7.596  28.370  56.953  1.00  0.00    -0.243 N 
HETATM    2  C   UNL     1       8.448  29.237  57.627  1.00  0.00     0.274 C 
HETATM    3  O   UNL     1       9.670  29.267  57.504  1.00  0.00    -0.266 OA
HETATM    4  H   UNL     1       6.626  28.656  56.886  1.00  0.00     0.192 HD
ENDROOT
BRANCH   1   5
HETATM    5  N   UNL     1       7.940  27.424  56.018  1.00  0.00    -0.183 NA
HETATM    6  C   UNL     1       7.003  26.740  55.441  1.00  0.00     0.153 C 
BRANCH   6   7
HETATM    7  C   UNL     1       7.325  25.670  54.476  1.00  0.00     0.016 A 
HETATM    8  C   UNL     1       7.309  24.326  54.868  1.00  0.00     0.080 A 
HETATM    9  C   UNL     1       7.522  23.322  53.921  1.00  0.00     0.037 A 
HETATM   10  C   UNL     1       7.798  23.657  52.593  1.00  0.00     0.003 A 
HETATM   11  C   UNL     1       7.853  24.997  52.209  1.00  0.00     0.001 A 
HETATM   12  C   UNL     1       7.615  26.004  53.147  1.00  0.00     0.016 A 
BRANCH   8  13
HETATM   13  O   UNL     1       7.067  23.907  56.149  1.00  0.00    -0.351 OA
BRANCH  13  14
HETATM   14  C   UNL     1       8.227  23.311  56.750  1.00  0.00     0.171 C 
HETATM   15  C   UNL     1       8.939  24.370  57.571  1.00  0.00     0.034 C 
ENDBRANCH  13  14
ENDBRANCH   8  13
ENDBRANCH   6   7
ENDBRANCH   1   5
BRANCH   2  16
HETATM   16  C   UNL     1       7.757  30.211  58.480  1.00  0.00     0.061 A 
HETATM   17  C   UNL     1       8.138  30.818  59.730  1.00  0.00     0.008 A 
HETATM   18  C   UNL     1       7.080  31.641  60.130  1.00  0.00     0.043 A 
HETATM   19  C   UNL     1       9.278  30.766  60.566  1.00  0.00     0.015 A 
HETATM   20  C   UNL     1       7.088  32.370  61.326  1.00  0.00     0.030 A 
HETATM   21  N   UNL     1       6.121  31.584  59.149  1.00  0.00    -0.364 N 
HETATM   22  C   UNL     1       8.215  32.270  62.144  1.00  0.00     0.002 A 
HETATM   23  C   UNL     1       9.299  31.486  61.767  1.00  0.00     0.001 A 
HETATM   24  H   UNL     1       5.252  32.100  59.164  1.00  0.00     0.165 HD
HETATM   25  C   UNL     1       6.521  30.744  58.151  1.00  0.00     0.106 A 
ENDBRANCH   2  16
TORSDOF 5
ENDMDL
MODEL 3
REMARK VINA RESULT:      -8.5      1.783      8.018
REMARK  5 active torsions:
REMARK  status: ('A' for Active; 'I' for Inactive)
REMARK    1  A    between atoms: C_2  and  O_3 
REMARK    2  A    between atoms: O_3  and  C_4 
REMARK    3  A    between atoms: C_5  and  C_6 
REMARK    4  A    between atoms: N_7  and  N_8 
REMARK       I    between atoms: N_8  and  C_9 
REMARK    5  A    between atoms: C_9  and  C_10 
ROOT
HETATM    1  N   UNL     1       8.177  24.994  57.561  1.00  0.00    -0.243 N 
HETATM    2  C   UNL     1       7.324  24.272  56.734  1.00  0.00     0.274 C 
HETATM    3  O   UNL     1       6.262  24.687  56.278  1.00  0.00    -0.266 OA
HETATM    4  H   UNL     1       9.141  24.683  57.595  1.00  0.00     0.192 HD
ENDROOT
BRANCH   1   5
HETATM    5  N   UNL     1       8.019  26.289  57.993  1.00  0.00    -0.183 NA
HETATM    6  C   UNL     1       8.233  27.260  57.162  1.00  0.00     0.153 C 
BRANCH   6   7
HETATM    7  C   UNL     1       8.137  28.668  57.594  1.00  0.00     0.016 A 
HETATM    8  C   UNL     1       6.890  29.272  57.788  1.00  0.00     0.080 A 
HETATM    9  C   UNL     1       6.817  30.574  58.289  1.00  0.00     0.037 A 
HETATM   10  C   UNL     1       7.986  31.291  58.551  1.00  0.00     0.003 A 
HETATM   11  C   UNL     1       9.231  30.705  58.320  1.00  0.00     0.001 A 
HETATM   12  C   UNL     1       9.309  29.394  57.844  1.00  0.00     0.016 A 
BRANCH   8  13
HETATM   13  O   UNL     1       5.694  28.653  57.540  1.00  0.00    -0.351 OA
BRANCH  13  14
HETATM   14  C   UNL     1       5.045  29.178  56.372  1.00  0.00     0.171 C 
HETATM   15  C   UNL     1       5.052  28.108  55.297  1.00  0.00     0.034 C 
ENDBRANCH  13  14
ENDBRANCH   8  13
ENDBRANCH   6   7
ENDBRANCH   1   5
BRANCH   2  16
HETATM   16  C   UNL     1       7.833  22.947  56.363  1.00  0.00     0.061 A 
HETATM   17  C   UNL     1       7.943  22.295  55.083  1.00  0.00     0.008 A 
HETATM   18  C   UNL     1       8.456  21.014  55.312  1.00  0.00     0.043 A 
HETATM   19  C   UNL     1       7.672  22.660  53.743  1.00  0.00     0.015 A 
HETATM   20  C   UNL     1       8.669  20.080  54.290  1.00  0.00     0.030 A 
HETATM   21  N   UNL     1       8.699  20.904  56.660  1.00  0.00    -0.364 N 
HETATM   22  C   UNL     1       8.358  20.462  52.984  1.00  0.00     0.002 A 
HETATM   23  C   UNL     1       7.875  21.736  52.711  1.00  0.00     0.001 A 
HETATM   24  H   UNL     1       9.093  20.089  57.108  1.00  0.00     0.165 HD
HETATM   25  C   UNL     1       8.344  22.057  57.296  1.00  0.00     0.106 A 
ENDBRANCH   2  16
TORSDOF 5
ENDMDL
MODEL 4
REMARK VINA RESULT:      -8.4      2.715      8.680
REMARK  5 active torsions:
REMARK  status: ('A' for Active; 'I' for Inactive)
REMARK    1  A    between atoms: C_2  and  O_3 
REMARK    2  A    between atoms: O_3  and  C_4 
REMARK    3  A    between atoms: C_5  and  C_6 
REMARK    4  A    between atoms: N_7  and  N_8 
REMARK       I    between atoms: N_8  and  C_9 
REMARK    5  A    between atoms: C_9  and  C_10 
ROOT
HETATM    1  N   UNL     1       7.966  28.075  57.311  1.00  0.00    -0.243 N 
HETATM    2  C   UNL     1       7.815  26.701  57.165  1.00  0.00     0.274 C 
HETATM    3  O   UNL     1       7.739  25.895  58.089  1.00  0.00    -0.266 OA
HETATM    4  H   UNL     1       7.688  28.645  56.520  1.00  0.00     0.192 HD
ENDROOT
BRANCH   1   5
HETATM    5  N   UNL     1       8.026  28.786  58.486  1.00  0.00    -0.183 NA
HETATM    6  C   UNL     1       8.091  30.079  58.436  1.00  0.00     0.153 C 
BRANCH   6   7
HETATM    7  C   UNL     1       8.220  30.883  59.668  1.00  0.00     0.016 A 
HETATM    8  C   UNL     1       7.440  32.030  59.857  1.00  0.00     0.080 A 
HETATM    9  C   UNL     1       7.505  32.724  61.068  1.00  0.00     0.037 A 
HETATM   10  C   UNL     1       8.382  32.304  62.070  1.00  0.00     0.003 A 
HETATM   11  C   UNL     1       9.189  31.185  61.868  1.00  0.00     0.001 A 
HETATM   12  C   UNL     1       9.108  30.472  60.670  1.00  0.00     0.016 A 
BRANCH   8  13
HETATM   13  O   UNL     1       6.569  32.525  58.923  1.00  0.00    -0.351 OA
BRANCH  13  14
HETATM   14  C   UNL     1       5.335  32.960  59.513  1.00  0.00     0.171 C 
HETATM   15  C   UNL     1       4.247  31.973  59.133  1.00  0.00     0.034 C 
ENDBRANCH  13  14
ENDBRANCH   8  13
ENDBRANCH   6   7
ENDBRANCH   1   5
BRANCH   2  16
HETATM   16  C   UNL     1       7.670  26.261  55.773  1.00  0.00     0.061 A 
HETATM   17  C   UNL     1       7.748  24.951  55.177  1.00  0.00     0.008 A 
HETATM   18  C   UNL     1       7.581  25.112  53.798  1.00  0.00     0.043 A 
HETATM   19  C   UNL     1       7.933  23.635  55.664  1.00  0.00     0.015 A 
HETATM   20  C   UNL     1       7.630  24.046  52.891  1.00  0.00     0.030 A 
HETATM   21  N   UNL     1       7.358  26.447  53.564  1.00  0.00    -0.364 N 
HETATM   22  C   UNL     1       7.848  22.765  53.402  1.00  0.00     0.002 A 
HETATM   23  C   UNL     1       7.989  22.560  54.770  1.00  0.00     0.001 A 
HETATM   24  H   UNL     1       7.182  26.850  52.654  1.00  0.00     0.165 HD
HETATM   25  C   UNL     1       7.395  27.141  54.738  1.00  0.00     0.106 A 
ENDBRANCH   2  16
TORSDOF 5
ENDMDL
MODEL 5
REMARK VINA RESULT:      -8.4      1.829      2.595
REMARK  5 active torsions:
REMARK  status: ('A' for Active; 'I' for Inactive)
REMARK    1  A    between atoms: C_2  and  O_3 
REMARK    2  A    between atoms: O_3  and  C_4 
REMARK    3  A    between atoms: C_5  and  C_6 
REMARK    4  A    between atoms: N_7  and  N_8 
REMARK       I    between atoms: N_8  and  C_9 
REMARK    5  A    between atoms: C_9  and  C_10 
ROOT
HETATM    1  N   UNL     1       7.563  27.389  57.438  1.00  0.00    -0.243 N 
HETATM    2  C   UNL     1       8.373  28.512  57.563  1.00  0.00     0.274 C 
HETATM    3  O   UNL     1       9.517  28.613  57.127  1.00  0.00    -0.266 OA
HETATM    4  H   UNL     1       6.566  27.541  57.537  1.00  0.00     0.192 HD
ENDROOT
BRANCH   1   5
HETATM    5  N   UNL     1       7.864  26.214  56.792  1.00  0.00    -0.183 NA
HETATM    6  C   UNL     1       7.266  25.939  55.676  1.00  0.00     0.153 C 
BRANCH   6   7
HETATM    7  C   UNL     1       7.508  24.662  54.977  1.00  0.00     0.016 A 
HETATM    8  C   UNL     1       7.671  24.627  53.587  1.00  0.00     0.080 A 
HETATM    9  C   UNL     1       7.995  23.425  52.953  1.00  0.00     0.037 A 
HETATM   10  C   UNL     1       8.110  22.249  53.697  1.00  0.00     0.003 A 
HETATM   11  C   UNL     1       7.910  22.274  55.077  1.00  0.00     0.001 A 
HETATM   12  C   UNL     1       7.611  23.477  55.719  1.00  0.00     0.016 A 
BRANCH   8  13
HETATM   13  O   UNL     1       7.557  25.726  52.778  1.00  0.00    -0.351 OA
BRANCH  13  14
HETATM   14  C   UNL     1       6.558  25.547  51.761  1.00  0.00     0.171 C 
HETATM   15  C   UNL     1       5.191  25.610  52.415  1.00  0.00     0.034 C 
ENDBRANCH  13  14
ENDBRANCH   8  13
ENDBRANCH   6   7
ENDBRANCH   1   5
BRANCH   2  16
HETATM   16  C   UNL     1       7.717  29.652  58.215  1.00  0.00     0.061 A 
HETATM   17  C   UNL     1       8.154  30.517  59.282  1.00  0.00     0.008 A 
HETATM   18  C   UNL     1       7.111  31.410  59.543  1.00  0.00     0.043 A 
HETATM   19  C   UNL     1       9.334  30.646  60.051  1.00  0.00     0.015 A 
HETATM   20  C   UNL     1       7.171  32.384  60.549  1.00  0.00     0.030 A 
HETATM   21  N   UNL     1       6.105  31.143  58.648  1.00  0.00    -0.364 N 
HETATM   22  C   UNL     1       8.338  32.462  61.311  1.00  0.00     0.002 A 
HETATM   23  C   UNL     1       9.409  31.611  61.062  1.00  0.00     0.001 A 
HETATM   24  H   UNL     1       5.234  31.652  58.592  1.00  0.00     0.165 HD
HETATM   25  C   UNL     1       6.462  30.103  57.839  1.00  0.00     0.106 A 
ENDBRANCH   2  16
TORSDOF 5
ENDMDL
MODEL 6
REMARK VINA RESULT:      -8.3      4.203      8.348
REMARK  5 active torsions:
REMARK  status: ('A' for Active; 'I' for Inactive)
REMARK    1  A    between atoms: C_2  and  O_3 
REMARK    2  A    between atoms: O_3  and  C_4 
REMARK    3  A    between atoms: C_5  and  C_6 
REMARK    4  A    between atoms: N_7  and  N_8 
REMARK       I    between atoms: N_8  and  C_9 
REMARK    5  A    between atoms: C_9  and  C_10 
ROOT
HETATM    1  N   UNL     1       6.354  26.148  52.898  1.00  0.00    -0.243 N 
HETATM    2  C   UNL     1       7.431  25.271  52.842  1.00  0.00     0.274 C 
HETATM    3  O   UNL     1       8.309  25.281  51.983  1.00  0.00    -0.266 OA
HETATM    4  H   UNL     1       5.905  26.252  53.800  1.00  0.00     0.192 HD
ENDROOT
BRANCH   1   5
HETATM    5  N   UNL     1       6.084  27.189  52.043  1.00  0.00    -0.183 NA
HETATM    6  C   UNL     1       5.480  26.945  50.924  1.00  0.00     0.153 C 
BRANCH   6   7
HETATM    7  C   UNL     1       5.223  28.020  49.946  1.00  0.00     0.016 A 
HETATM    8  C   UNL     1       4.877  27.717  48.624  1.00  0.00     0.080 A 
HETATM    9  C   UNL     1       4.544  28.744  47.738  1.00  0.00     0.037 A 
HETATM   10  C   UNL     1       4.602  30.075  48.154  1.00  0.00     0.003 A 
HETATM   11  C   UNL     1       4.986  30.382  49.459  1.00  0.00     0.001 A 
HETATM   12  C   UNL     1       5.294  29.358  50.357  1.00  0.00     0.016 A 
BRANCH   8  13
HETATM   13  O   UNL     1       4.812  26.443  48.125  1.00  0.00    -0.351 OA
BRANCH  13  14
HETATM   14  C   UNL     1       3.595  26.208  47.401  1.00  0.00     0.171 C 
HETATM   15  C   UNL     1       2.959  24.936  47.932  1.00  0.00     0.034 C 
ENDBRANCH  13  14
ENDBRANCH   8  13
ENDBRANCH   6   7
ENDBRANCH   1   5
BRANCH   2  16
HETATM   16  C   UNL     1       7.497  24.335  53.971  1.00  0.00     0.061 A 
HETATM   17  C   UNL     1       7.730  22.913  54.014  1.00  0.00     0.008 A 
HETATM   18  C   UNL     1       7.640  22.519  55.353  1.00  0.00     0.043 A 
HETATM   19  C   UNL     1       8.022  21.913  53.056  1.00  0.00     0.015 A 
HETATM   20  C   UNL     1       7.782  21.190  55.771  1.00  0.00     0.030 A 
HETATM   21  N   UNL     1       7.416  23.650  56.100  1.00  0.00    -0.364 N 
HETATM   22  C   UNL     1       8.035  20.223  54.795  1.00  0.00     0.002 A 
HETATM   23  C   UNL     1       8.161  20.579  53.458  1.00  0.00     0.001 A 
HETATM   24  H   UNL     1       7.329  23.665  57.107  1.00  0.00     0.165 HD
HETATM   25  C   UNL     1       7.343  24.742  55.287  1.00  0.00     0.106 A 
ENDBRANCH   2  16
TORSDOF 5
ENDMDL
MODEL 7
REMARK VINA RESULT:      -8.3      1.970      8.332
REMARK  5 active torsions:
REMARK  status: ('A' for Active; 'I' for Inactive)
REMARK    1  A    between atoms: C_2  and  O_3 
REMARK    2  A    between atoms: O_3  and  C_4 
REMARK    3  A    between atoms: C_5  and  C_6 
REMARK    4  A    between atoms: N_7  and  N_8 
REMARK       I    between atoms: N_8  and  C_9 
REMARK    5  A    between atoms: C_9  and  C_10 
ROOT
HETATM    1  N   UNL     1       7.530  26.358  56.185  1.00  0.00    -0.243 N 
HETATM    2  C   UNL     1       6.824  25.173  56.012  1.00  0.00     0.274 C 
HETATM    3  O   UNL     1       5.840  24.833  56.666  1.00  0.00    -0.266 OA
HETATM    4  H   UNL     1       8.090  26.666  55.398  1.00  0.00     0.192 HD
ENDROOT
BRANCH   1   5
HETATM    5  N   UNL     1       7.255  27.369  57.074  1.00  0.00    -0.183 NA
HETATM    6  C   UNL     1       7.182  28.587  56.639  1.00  0.00     0.153 C 
BRANCH   6   7
HETATM    7  C   UNL     1       6.951  29.714  57.563  1.00  0.00     0.016 A 
HETATM    8  C   UNL     1       7.970  30.166  58.409  1.00  0.00     0.080 A 
HETATM    9  C   UNL     1       7.764  31.294  59.207  1.00  0.00     0.037 A 
HETATM   10  C   UNL     1       6.528  31.942  59.200  1.00  0.00     0.003 A 
HETATM   11  C   UNL     1       5.497  31.469  58.387  1.00  0.00     0.001 A 
HETATM   12  C   UNL     1       5.706  30.358  57.568  1.00  0.00     0.016 A 
BRANCH   8  13
HETATM   13  O   UNL     1       9.206  29.581  58.496  1.00  0.00    -0.351 OA
BRANCH  13  14
HETATM   14  C   UNL     1      10.224  30.375  57.867  1.00  0.00     0.171 C 
HETATM   15  C   UNL     1      10.854  29.555  56.757  1.00  0.00     0.034 C 
ENDBRANCH  13  14
ENDBRANCH   8  13
ENDBRANCH   6   7
ENDBRANCH   1   5
BRANCH   2  16
HETATM   16  C   UNL     1       7.306  24.347  54.899  1.00  0.00     0.061 A 
HETATM   17  C   UNL     1       7.596  22.938  54.816  1.00  0.00     0.008 A 
HETATM   18  C   UNL     1       8.073  22.689  53.526  1.00  0.00     0.043 A 
HETATM   19  C   UNL     1       7.495  21.838  55.700  1.00  0.00     0.015 A 
HETATM   20  C   UNL     1       8.487  21.422  53.094  1.00  0.00     0.030 A 
HETATM   21  N   UNL     1       8.027  23.874  52.833  1.00  0.00    -0.364 N 
HETATM   22  C   UNL     1       8.405  20.365  54.003  1.00  0.00     0.002 A 
HETATM   23  C   UNL     1       7.909  20.567  55.286  1.00  0.00     0.001 A 
HETATM   24  H   UNL     1       8.294  23.985  51.865  1.00  0.00     0.165 HD
HETATM   25  C   UNL     1       7.557  24.869  53.639  1.00  0.00     0.106 A 
ENDBRANCH   2  16
TORSDOF 5
ENDMDL
MODEL 8
REMARK VINA RESULT:      -8.2      1.823      8.237
REMARK  5 active torsions:
REMARK  status: ('A' for Active; 'I' for Inactive)
REMARK    1  A    between atoms: C_2  and  O_3 
REMARK    2  A    between atoms: O_3  and  C_4 
REMARK    3  A    between atoms: C_5  and  C_6 
REMARK    4  A    between atoms: N_7  and  N_8 
REMARK       I    between atoms: N_8  and  C_9 
REMARK    5  A    between atoms: C_9  and  C_10 
ROOT
HETATM    1  N   UNL     1       8.224  26.031  56.677  1.00  0.00    -0.243 N 
HETATM    2  C   UNL     1       7.173  25.120  56.664  1.00  0.00     0.274 C 
HETATM    3  O   UNL     1       6.178  25.178  57.382  1.00  0.00    -0.266 OA
HETATM    4  H   UNL     1       8.799  26.065  55.843  1.00  0.00     0.192 HD
ENDROOT
BRANCH   1   5
HETATM    5  N   UNL     1       8.338  27.159  57.452  1.00  0.00    -0.183 NA
HETATM    6  C   UNL     1       8.398  28.317  56.873  1.00  0.00     0.153 C 
BRANCH   6   7
HETATM    7  C   UNL     1       8.582  29.553  57.659  1.00  0.00     0.016 A 
HETATM    8  C   UNL     1       7.481  30.236  58.185  1.00  0.00     0.080 A 
HETATM    9  C   UNL     1       7.679  31.350  59.005  1.00  0.00     0.037 A 
HETATM   10  C   UNL     1       8.971  31.810  59.263  1.00  0.00     0.003 A 
HETATM   11  C   UNL     1      10.070  31.154  58.707  1.00  0.00     0.001 A 
HETATM   12  C   UNL     1       9.878  30.025  57.907  1.00  0.00     0.016 A 
BRANCH   8  13
HETATM   13  O   UNL     1       6.179  29.868  57.969  1.00  0.00    -0.351 OA
BRANCH  13  14
HETATM   14  C   UNL     1       5.313  31.005  57.828  1.00  0.00     0.171 C 
HETATM   15  C   UNL     1       4.789  31.034  56.405  1.00  0.00     0.034 C 
ENDBRANCH  13  14
ENDBRANCH   8  13
ENDBRANCH   6   7
ENDBRANCH   1   5
BRANCH   2  16
HETATM   16  C   UNL     1       7.298  24.079  55.638  1.00  0.00     0.061 A 
HETATM   17  C   UNL     1       7.803  22.731  55.708  1.00  0.00     0.008 A 
HETATM   18  C   UNL     1       7.734  22.195  54.419  1.00  0.00     0.043 A 
HETATM   19  C   UNL     1       8.304  21.898  56.737  1.00  0.00     0.015 A 
HETATM   20  C   UNL     1       8.174  20.903  54.102  1.00  0.00     0.030 A 
HETATM   21  N   UNL     1       7.166  23.146  53.607  1.00  0.00    -0.364 N 
HETATM   22  C   UNL     1       8.694  20.120  55.135  1.00  0.00     0.002 A 
HETATM   23  C   UNL     1       8.752  20.606  56.436  1.00  0.00     0.001 A 
HETATM   24  H   UNL     1       6.974  23.022  52.623  1.00  0.00     0.165 HD
HETATM   25  C   UNL     1       6.888  24.271  54.327  1.00  0.00     0.106 A 
ENDBRANCH   2  16
TORSDOF 5
ENDMDL
MODEL 9
REMARK VINA RESULT:      -8.1      5.123     10.361
REMARK  5 active torsions:
REMARK  status: ('A' for Active; 'I' for Inactive)
REMARK    1  A    between atoms: C_2  and  O_3 
REMARK    2  A    between atoms: O_3  and  C_4 
REMARK    3  A    between atoms: C_5  and  C_6 
REMARK    4  A    between atoms: N_7  and  N_8 
REMARK       I    between atoms: N_8  and  C_9 
REMARK    5  A    between atoms: C_9  and  C_10 
ROOT
HETATM    1  N   UNL     1       7.923  30.706  60.568  1.00  0.00    -0.243 N 
HETATM    2  C   UNL     1       8.465  31.281  59.423  1.00  0.00     0.274 C 
HETATM    3  O   UNL     1       8.839  32.447  59.325  1.00  0.00    -0.266 OA
HETATM    4  H   UNL     1       7.965  29.696  60.626  1.00  0.00     0.192 HD
ENDROOT
BRANCH   1   5
HETATM    5  N   UNL     1       7.735  31.305  61.790  1.00  0.00    -0.183 NA
HETATM    6  C   UNL     1       6.658  31.996  61.993  1.00  0.00     0.153 C 
BRANCH   6   7
HETATM    7  C   UNL     1       6.439  32.708  63.267  1.00  0.00     0.016 A 
HETATM    8  C   UNL     1       5.143  32.939  63.743  1.00  0.00     0.080 A 
HETATM    9  C   UNL     1       4.956  33.529  64.995  1.00  0.00     0.037 A 
HETATM   10  C   UNL     1       6.058  33.933  65.752  1.00  0.00     0.003 A 
HETATM   11  C   UNL     1       7.350  33.739  65.262  1.00  0.00     0.001 A 
HETATM   12  C   UNL     1       7.542  33.126  64.022  1.00  0.00     0.016 A 
BRANCH   8  13
HETATM   13  O   UNL     1       4.006  32.595  63.061  1.00  0.00    -0.351 OA
BRANCH  13  14
HETATM   14  C   UNL     1       3.376  33.734  62.454  1.00  0.00     0.171 C 
HETATM   15  C   UNL     1       3.083  33.402  61.003  1.00  0.00     0.034 C 
ENDBRANCH  13  14
ENDBRANCH   8  13
ENDBRANCH   6   7
ENDBRANCH   1   5
BRANCH   2  16
HETATM   16  C   UNL     1       8.638  30.342  58.309  1.00  0.00     0.061 A 
HETATM   17  C   UNL     1       7.684  29.541  57.583  1.00  0.00     0.008 A 
HETATM   18  C   UNL     1       8.401  28.789  56.648  1.00  0.00     0.043 A 
HETATM   19  C   UNL     1       6.279  29.381  57.613  1.00  0.00     0.015 A 
HETATM   20  C   UNL     1       7.798  27.868  55.782  1.00  0.00     0.030 A 
HETATM   21  N   UNL     1       9.722  29.149  56.756  1.00  0.00    -0.364 N 
HETATM   22  C   UNL     1       6.412  27.710  55.861  1.00  0.00     0.002 A 
HETATM   23  C   UNL     1       5.661  28.461  56.757  1.00  0.00     0.001 A 
HETATM   24  H   UNL     1      10.468  28.777  56.184  1.00  0.00     0.165 HD
HETATM   25  C   UNL     1       9.874  30.086  57.735  1.00  0.00     0.106 A 
ENDBRANCH   2  16
TORSDOF 5
ENDMDL
MODEL 10
REMARK VINA RESULT:      -8.1      4.485      8.061
REMARK  5 active torsions:
REMARK  status: ('A' for Active; 'I' for Inactive)
REMARK    1  A    between atoms: C_2  and  O_3 
REMARK    2  A    between atoms: O_3  and  C_4 
REMARK    3  A    between atoms: C_5  and  C_6 
REMARK    4  A    between atoms: N_7  and  N_8 
REMARK       I    between atoms: N_8  and  C_9 
REMARK    5  A    between atoms: C_9  and  C_10 
ROOT
HETATM    1  N   UNL     1       5.999  24.495  52.989  1.00  0.00    -0.243 N 
HETATM    2  C   UNL     1       6.289  24.757  54.323  1.00  0.00     0.274 C 
HETATM    3  O   UNL     1       5.872  25.720  54.962  1.00  0.00    -0.266 OA
HETATM    4  H   UNL     1       6.119  23.537  52.683  1.00  0.00     0.192 HD
ENDROOT
BRANCH   1   5
HETATM    5  N   UNL     1       5.186  25.224  52.155  1.00  0.00    -0.183 NA
HETATM    6  C   UNL     1       5.717  25.872  51.167  1.00  0.00     0.153 C 
BRANCH   6   7
HETATM    7  C   UNL     1       4.894  26.719  50.281  1.00  0.00     0.016 A 
HETATM    8  C   UNL     1       4.746  28.087  50.535  1.00  0.00     0.080 A 
HETATM    9  C   UNL     1       4.043  28.891  49.634  1.00  0.00     0.037 A 
HETATM   10  C   UNL     1       3.448  28.324  48.505  1.00  0.00     0.003 A 
HETATM   11  C   UNL     1       3.560  26.953  48.271  1.00  0.00     0.001 A 
HETATM   12  C   UNL     1       4.283  26.150  49.155  1.00  0.00     0.016 A 
BRANCH   8  13
HETATM   13  O   UNL     1       5.278  28.724  51.624  1.00  0.00    -0.351 OA
BRANCH  13  14
HETATM   14  C   UNL     1       4.266  29.328  52.445  1.00  0.00     0.171 C 
HETATM   15  C   UNL     1       3.836  28.321  53.495  1.00  0.00     0.034 C 
ENDBRANCH  13  14
ENDBRANCH   8  13
ENDBRANCH   6   7
ENDBRANCH   1   5
BRANCH   2  16
HETATM   16  C   UNL     1       7.103  23.723  54.971  1.00  0.00     0.061 A 
HETATM   17  C   UNL     1       7.647  22.487  54.468  1.00  0.00     0.008 A 
HETATM   18  C   UNL     1       8.306  21.861  55.531  1.00  0.00     0.043 A 
HETATM   19  C   UNL     1       7.660  21.832  53.214  1.00  0.00     0.015 A 
HETATM   20  C   UNL     1       8.932  20.613  55.415  1.00  0.00     0.030 A 
HETATM   21  N   UNL     1       8.217  22.695  56.618  1.00  0.00    -0.364 N 
HETATM   22  C   UNL     1       8.897  19.979  54.171  1.00  0.00     0.002 A 
HETATM   23  C   UNL     1       8.277  20.582  53.083  1.00  0.00     0.001 A 
HETATM   24  H   UNL     1       8.626  22.505  57.523  1.00  0.00     0.165 HD
HETATM   25  C   UNL     1       7.513  23.817  56.292  1.00  0.00     0.106 A 
ENDBRANCH   2  16
TORSDOF 5
ENDMDL
