MODEL 1
REMARK VINA RESULT:      -7.3      0.000      0.000
REMARK  3 active torsions:
REMARK  status: ('A' for Active; 'I' for Inactive)
REMARK    1  A    between atoms: C_8  and  C_9 
REMARK    2  A    between atoms: C_10  and  O_11 
REMARK    3  A    between atoms: C_24  and  N_25 
ROOT
HETATM    1  C   UNL     1       4.676  36.398  62.061  1.00  0.00     0.073 C 
HETATM    2  C   UNL     1       4.243  35.527  60.941  1.00  0.00     0.062 A 
HETATM    3  N   UNL     1       4.069  36.049  59.715  1.00  0.00    -0.177 NA
HETATM    4  N   UNL     1       3.657  35.008  58.965  1.00  0.00    -0.256 N 
HETATM    5  H   UNL     1       3.457  35.160  57.983  1.00  0.00     0.191 HD
HETATM    6  C   UNL     1       3.552  33.858  59.677  1.00  0.00     0.175 A 
HETATM    7  C   UNL     1       3.950  34.142  60.959  1.00  0.00     0.034 A 
HETATM    8  C   UNL     1       3.906  33.072  61.997  1.00  0.00     0.108 A 
HETATM    9  C   UNL     1       3.499  31.737  61.373  1.00  0.00     0.067 A 
HETATM   10  C   UNL     1       3.500  30.524  62.288  1.00  0.00     0.020 C 
HETATM   11  N   UNL     1       3.501  29.517  63.048  1.00  0.00    -0.096 N 
HETATM   12  C   UNL     1       3.137  31.601  60.068  1.00  0.00     0.139 A 
HETATM   13  O   UNL     1       3.138  32.696  59.182  1.00  0.00    -0.279 OA
ENDROOT
BRANCH   8  14
HETATM   14  C   UNL     1       5.245  33.078  62.744  1.00  0.00     0.000 A 
HETATM   15  C   UNL     1       5.213  33.377  64.135  1.00  0.00     0.076 A 
HETATM   16  C   UNL     1       6.382  33.341  64.892  1.00  0.00     0.038 A 
HETATM   17  C   UNL     1       7.594  33.012  64.296  1.00  0.00     0.015 A 
HETATM   18  C   UNL     1       7.673  32.723  62.933  1.00  0.00    -0.025 A 
HETATM   19  C   UNL     1       6.507  32.760  62.124  1.00  0.00    -0.016 A 
HETATM   20  C   UNL     1       8.925  32.392  62.386  1.00  0.00     0.012 A 
HETATM   21  C   UNL     1       6.702  32.472  60.747  1.00  0.00     0.013 A 
HETATM   22  C   UNL     1       7.952  32.144  60.213  1.00  0.00     0.001 A 
HETATM   23  C   UNL     1       9.065  32.099  61.034  1.00  0.00     0.001 A 
BRANCH  15  24
HETATM   24  O   UNL     1       3.985  33.691  64.663  1.00  0.00    -0.355 OA
HETATM   25  C   UNL     1       3.932  34.656  65.709  1.00  0.00     0.210 C 
ENDBRANCH  15  24
ENDBRANCH   8  14
BRANCH  12  26
HETATM   26  N   UNL     1       2.752  30.428  59.462  1.00  0.00    -0.282 NA
HETATM   27  H   UNL     1       3.258  30.181  58.615  1.00  0.00     0.126 HD
HETATM   28  H   UNL     1       2.682  29.659  60.124  1.00  0.00     0.126 HD
ENDBRANCH  12  26
TORSDOF 3
ENDMDL
MODEL 2
REMARK VINA RESULT:      -7.2      2.995      5.706
REMARK  3 active torsions:
REMARK  status: ('A' for Active; 'I' for Inactive)
REMARK    1  A    between atoms: C_8  and  C_9 
REMARK    2  A    between atoms: C_10  and  O_11 
REMARK    3  A    between atoms: C_24  and  N_25 
ROOT
HETATM    1  C   UNL     1       2.278  33.826  63.778  1.00  0.00     0.073 C 
HETATM    2  C   UNL     1       3.029  34.805  64.601  1.00  0.00     0.062 A 
HETATM    3  N   UNL     1       2.880  34.811  65.937  1.00  0.00    -0.177 NA
HETATM    4  N   UNL     1       3.667  35.821  66.356  1.00  0.00    -0.256 N 
HETATM    5  H   UNL     1       3.720  36.023  67.347  1.00  0.00     0.191 HD
HETATM    6  C   UNL     1       4.292  36.458  65.334  1.00  0.00     0.175 A 
HETATM    7  C   UNL     1       3.928  35.814  64.178  1.00  0.00     0.034 A 
HETATM    8  C   UNL     1       4.431  36.314  62.867  1.00  0.00     0.108 A 
HETATM    9  C   UNL     1       5.412  37.468  63.075  1.00  0.00     0.067 A 
HETATM   10  C   UNL     1       6.087  38.028  61.834  1.00  0.00     0.020 C 
HETATM   11  N   UNL     1       6.647  38.492  60.803  1.00  0.00    -0.096 N 
HETATM   12  C   UNL     1       5.688  38.003  64.296  1.00  0.00     0.139 A 
HETATM   13  O   UNL     1       5.098  37.504  65.473  1.00  0.00    -0.279 OA
ENDROOT
BRANCH   8  14
HETATM   14  C   UNL     1       4.968  35.118  62.074  1.00  0.00     0.000 A 
HETATM   15  C   UNL     1       4.437  34.909  60.770  1.00  0.00     0.076 A 
HETATM   16  C   UNL     1       4.921  33.878  59.967  1.00  0.00     0.038 A 
HETATM   17  C   UNL     1       5.930  33.042  60.430  1.00  0.00     0.015 A 
HETATM   18  C   UNL     1       6.472  33.204  61.707  1.00  0.00    -0.025 A 
HETATM   19  C   UNL     1       5.998  34.234  62.561  1.00  0.00    -0.016 A 
HETATM   20  C   UNL     1       7.494  32.331  62.119  1.00  0.00     0.012 A 
HETATM   21  C   UNL     1       6.602  34.297  63.844  1.00  0.00     0.013 A 
HETATM   22  C   UNL     1       7.618  33.424  64.246  1.00  0.00     0.001 A 
HETATM   23  C   UNL     1       8.069  32.443  63.380  1.00  0.00     0.001 A 
BRANCH  15  24
HETATM   24  O   UNL     1       3.445  35.770  60.371  1.00  0.00    -0.355 OA
HETATM   25  C   UNL     1       3.680  36.575  59.220  1.00  0.00     0.210 C 
ENDBRANCH  15  24
ENDBRANCH   8  14
BRANCH  12  26
HETATM   26  N   UNL     1       6.552  39.047  64.536  1.00  0.00    -0.282 NA
HETATM   27  H   UNL     1       6.210  39.767  65.167  1.00  0.00     0.126 HD
HETATM   28  H   UNL     1       7.488  38.725  64.767  1.00  0.00     0.126 HD
ENDBRANCH  12  26
TORSDOF 3
ENDMDL
MODEL 3
REMARK VINA RESULT:      -6.9      2.726      5.476
REMARK  3 active torsions:
REMARK  status: ('A' for Active; 'I' for Inactive)
REMARK    1  A    between atoms: C_8  and  C_9 
REMARK    2  A    between atoms: C_10  and  O_11 
REMARK    3  A    between atoms: C_24  and  N_25 
ROOT
HETATM    1  C   UNL     1       6.544  31.895  59.739  1.00  0.00     0.073 C 
HETATM    2  C   UNL     1       7.272  32.199  60.996  1.00  0.00     0.062 A 
HETATM    3  N   UNL     1       8.600  32.005  61.065  1.00  0.00    -0.177 NA
HETATM    4  N   UNL     1       8.922  32.348  62.328  1.00  0.00    -0.256 N 
HETATM    5  H   UNL     1       9.889  32.283  62.622  1.00  0.00     0.191 HD
HETATM    6  C   UNL     1       7.845  32.734  63.056  1.00  0.00     0.175 A 
HETATM    7  C   UNL     1       6.756  32.680  62.224  1.00  0.00     0.034 A 
HETATM    8  C   UNL     1       5.404  33.015  62.756  1.00  0.00     0.108 A 
HETATM    9  C   UNL     1       5.504  33.494  64.205  1.00  0.00     0.067 A 
HETATM   10  C   UNL     1       4.216  33.964  64.862  1.00  0.00     0.020 C 
HETATM   11  N   UNL     1       3.148  34.355  65.406  1.00  0.00    -0.096 N 
HETATM   12  C   UNL     1       6.668  33.505  64.911  1.00  0.00     0.139 A 
HETATM   13  O   UNL     1       7.885  33.093  64.335  1.00  0.00    -0.279 OA
ENDROOT
BRANCH   8  14
HETATM   14  C   UNL     1       4.734  33.987  61.778  1.00  0.00     0.000 A 
HETATM   15  C   UNL     1       3.726  33.459  60.924  1.00  0.00     0.076 A 
HETATM   16  C   UNL     1       3.030  34.293  60.052  1.00  0.00     0.038 A 
HETATM   17  C   UNL     1       3.313  35.654  60.007  1.00  0.00     0.015 A 
HETATM   18  C   UNL     1       4.302  36.212  60.819  1.00  0.00    -0.025 A 
HETATM   19  C   UNL     1       5.042  35.394  61.712  1.00  0.00    -0.016 A 
HETATM   20  C   UNL     1       4.541  37.595  60.734  1.00  0.00     0.012 A 
HETATM   21  C   UNL     1       6.038  36.058  62.475  1.00  0.00     0.013 A 
HETATM   22  C   UNL     1       6.269  37.435  62.384  1.00  0.00     0.001 A 
HETATM   23  C   UNL     1       5.516  38.205  61.515  1.00  0.00     0.001 A 
BRANCH  15  24
HETATM   24  O   UNL     1       3.492  32.109  61.019  1.00  0.00    -0.355 OA
HETATM   25  C   UNL     1       3.099  31.412  59.841  1.00  0.00     0.210 C 
ENDBRANCH  15  24
ENDBRANCH   8  14
BRANCH  12  26
HETATM   26  N   UNL     1       6.808  33.913  66.217  1.00  0.00    -0.282 NA
HETATM   27  H   UNL     1       7.579  34.550  66.400  1.00  0.00     0.126 HD
HETATM   28  H   UNL     1       5.928  34.226  66.617  1.00  0.00     0.126 HD
ENDBRANCH  12  26
TORSDOF 3
ENDMDL
MODEL 4
REMARK VINA RESULT:      -6.6      2.537      3.144
REMARK  3 active torsions:
REMARK  status: ('A' for Active; 'I' for Inactive)
REMARK    1  A    between atoms: C_8  and  C_9 
REMARK    2  A    between atoms: C_10  and  O_11 
REMARK    3  A    between atoms: C_24  and  N_25 
ROOT
HETATM    1  C   UNL     1       6.747  38.369  63.702  1.00  0.00     0.073 C 
HETATM    2  C   UNL     1       5.986  38.049  62.470  1.00  0.00     0.062 A 
HETATM    3  N   UNL     1       6.263  38.694  61.324  1.00  0.00    -0.177 NA
HETATM    4  N   UNL     1       5.385  38.188  60.436  1.00  0.00    -0.256 N 
HETATM    5  H   UNL     1       5.402  38.528  59.481  1.00  0.00     0.191 HD
HETATM    6  C   UNL     1       4.559  37.262  60.984  1.00  0.00     0.175 A 
HETATM    7  C   UNL     1       4.931  37.119  62.297  1.00  0.00     0.034 A 
HETATM    8  C   UNL     1       4.173  36.188  63.180  1.00  0.00     0.108 A 
HETATM    9  C   UNL     1       3.115  35.432  62.376  1.00  0.00     0.067 A 
HETATM   10  C   UNL     1       2.318  34.371  63.119  1.00  0.00     0.020 C 
HETATM   11  N   UNL     1       1.657  33.491  63.735  1.00  0.00    -0.096 N 
HETATM   12  C   UNL     1       2.861  35.673  61.061  1.00  0.00     0.139 A 
HETATM   13  O   UNL     1       3.587  36.634  60.332  1.00  0.00    -0.279 OA
ENDROOT
BRANCH   8  14
HETATM   14  C   UNL     1       5.184  35.317  63.935  1.00  0.00     0.000 A 
HETATM   15  C   UNL     1       5.181  35.399  65.355  1.00  0.00     0.076 A 
HETATM   16  C   UNL     1       6.029  34.592  66.112  1.00  0.00     0.038 A 
HETATM   17  C   UNL     1       6.889  33.698  65.485  1.00  0.00     0.015 A 
HETATM   18  C   UNL     1       6.933  33.593  64.094  1.00  0.00    -0.025 A 
HETATM   19  C   UNL     1       6.094  34.405  63.287  1.00  0.00    -0.016 A 
HETATM   20  C   UNL     1       7.820  32.667  63.517  1.00  0.00     0.012 A 
HETATM   21  C   UNL     1       6.235  34.236  61.885  1.00  0.00     0.013 A 
HETATM   22  C   UNL     1       7.120  33.311  61.319  1.00  0.00     0.001 A 
HETATM   23  C   UNL     1       7.910  32.522  62.137  1.00  0.00     0.001 A 
BRANCH  15  24
HETATM   24  O   UNL     1       4.306  36.300  65.912  1.00  0.00    -0.355 OA
HETATM   25  C   UNL     1       3.322  35.807  66.815  1.00  0.00     0.210 C 
ENDBRANCH  15  24
ENDBRANCH   8  14
BRANCH  12  26
HETATM   26  N   UNL     1       1.914  35.031  60.298  1.00  0.00    -0.282 NA
HETATM   27  H   UNL     1       1.303  34.390  60.798  1.00  0.00     0.126 HD
HETATM   28  H   UNL     1       1.409  35.673  59.693  1.00  0.00     0.126 HD
ENDBRANCH  12  26
TORSDOF 3
ENDMDL
MODEL 5
REMARK VINA RESULT:      -6.4      2.604      5.773
REMARK  3 active torsions:
REMARK  status: ('A' for Active; 'I' for Inactive)
REMARK    1  A    between atoms: C_8  and  C_9 
REMARK    2  A    between atoms: C_10  and  O_11 
REMARK    3  A    between atoms: C_24  and  N_25 
ROOT
HETATM    1  C   UNL     1       6.338  32.327  59.271  1.00  0.00     0.073 C 
HETATM    2  C   UNL     1       5.898  32.544  60.671  1.00  0.00     0.062 A 
HETATM    3  N   UNL     1       6.732  32.264  61.687  1.00  0.00    -0.177 NA
HETATM    4  N   UNL     1       6.015  32.545  62.793  1.00  0.00    -0.256 N 
HETATM    5  H   UNL     1       6.443  32.409  63.702  1.00  0.00     0.191 HD
HETATM    6  C   UNL     1       4.761  32.975  62.510  1.00  0.00     0.175 A 
HETATM    7  C   UNL     1       4.649  33.017  61.143  1.00  0.00     0.034 A 
HETATM    8  C   UNL     1       3.355  33.420  60.522  1.00  0.00     0.108 A 
HETATM    9  C   UNL     1       2.355  33.844  61.597  1.00  0.00     0.067 A 
HETATM   10  C   UNL     1       1.014  34.374  61.116  1.00  0.00     0.020 C 
HETATM   11  N   UNL     1      -0.098  34.814  60.716  1.00  0.00    -0.096 N 
HETATM   12  C   UNL     1       2.610  33.758  62.932  1.00  0.00     0.139 A 
HETATM   13  O   UNL     1       3.844  33.289  63.420  1.00  0.00    -0.279 OA
ENDROOT
BRANCH   8  14
HETATM   14  C   UNL     1       3.651  34.463  59.439  1.00  0.00     0.000 A 
HETATM   15  C   UNL     1       3.442  34.075  58.086  1.00  0.00     0.076 A 
HETATM   16  C   UNL     1       3.631  34.988  57.051  1.00  0.00     0.038 A 
HETATM   17  C   UNL     1       4.026  36.292  57.329  1.00  0.00     0.015 A 
HETATM   18  C   UNL     1       4.254  36.712  58.640  1.00  0.00    -0.025 A 
HETATM   19  C   UNL     1       4.084  35.809  59.722  1.00  0.00    -0.016 A 
HETATM   20  C   UNL     1       4.648  38.044  58.861  1.00  0.00     0.012 A 
HETATM   21  C   UNL     1       4.363  36.333  61.012  1.00  0.00     0.013 A 
HETATM   22  C   UNL     1       4.755  37.659  61.222  1.00  0.00     0.001 A 
HETATM   23  C   UNL     1       4.893  38.518  60.145  1.00  0.00     0.001 A 
BRANCH  15  24
HETATM   24  O   UNL     1       3.049  32.775  57.879  1.00  0.00    -0.355 OA
HETATM   25  C   UNL     1       3.408  32.154  56.649  1.00  0.00     0.210 C 
ENDBRANCH  15  24
ENDBRANCH   8  14
BRANCH  12  26
HETATM   26  N   UNL     1       1.741  34.114  63.937  1.00  0.00    -0.282 NA
HETATM   27  H   UNL     1       2.097  34.014  64.884  1.00  0.00     0.126 HD
HETATM   28  H   UNL     1       1.308  35.018  63.767  1.00  0.00     0.126 HD
ENDBRANCH  12  26
TORSDOF 3
ENDMDL
MODEL 6
REMARK VINA RESULT:      -6.0      2.226      5.223
REMARK  3 active torsions:
REMARK  status: ('A' for Active; 'I' for Inactive)
REMARK    1  A    between atoms: C_8  and  C_9 
REMARK    2  A    between atoms: C_10  and  O_11 
REMARK    3  A    between atoms: C_24  and  N_25 
ROOT
HETATM    1  C   UNL     1       7.309  33.546  63.152  1.00  0.00     0.073 C 
HETATM    2  C   UNL     1       6.029  33.074  62.569  1.00  0.00     0.062 A 
HETATM    3  N   UNL     1       5.730  31.764  62.581  1.00  0.00    -0.177 NA
HETATM    4  N   UNL     1       4.536  31.688  61.961  1.00  0.00    -0.256 N 
HETATM    5  H   UNL     1       4.099  30.781  61.847  1.00  0.00     0.191 HD
HETATM    6  C   UNL     1       4.083  32.898  61.547  1.00  0.00     0.175 A 
HETATM    7  C   UNL     1       5.007  33.831  61.946  1.00  0.00     0.034 A 
HETATM    8  C   UNL     1       4.802  35.266  61.597  1.00  0.00     0.108 A 
HETATM    9  C   UNL     1       3.453  35.461  60.905  1.00  0.00     0.067 A 
HETATM   10  C   UNL     1       3.054  36.888  60.570  1.00  0.00     0.020 C 
HETATM   11  N   UNL     1       2.723  38.073  60.292  1.00  0.00    -0.096 N 
HETATM   12  C   UNL     1       2.625  34.431  60.578  1.00  0.00     0.139 A 
HETATM   13  O   UNL     1       2.948  33.096  60.885  1.00  0.00    -0.279 OA
ENDROOT
BRANCH   8  14
HETATM   14  C   UNL     1       5.028  36.101  62.863  1.00  0.00     0.000 A 
HETATM   15  C   UNL     1       5.829  37.270  62.737  1.00  0.00     0.076 A 
HETATM   16  C   UNL     1       6.028  38.112  63.830  1.00  0.00     0.038 A 
HETATM   17  C   UNL     1       5.445  37.817  65.057  1.00  0.00     0.015 A 
HETATM   18  C   UNL     1       4.661  36.674  65.228  1.00  0.00    -0.025 A 
HETATM   19  C   UNL     1       4.445  35.785  64.143  1.00  0.00    -0.016 A 
HETATM   20  C   UNL     1       4.094  36.430  66.491  1.00  0.00     0.012 A 
HETATM   21  C   UNL     1       3.652  34.643  64.431  1.00  0.00     0.013 A 
HETATM   22  C   UNL     1       3.091  34.409  65.691  1.00  0.00     0.001 A 
HETATM   23  C   UNL     1       3.308  35.307  66.721  1.00  0.00     0.001 A 
BRANCH  15  24
HETATM   24  O   UNL     1       6.373  37.506  61.498  1.00  0.00    -0.355 OA
HETATM   25  C   UNL     1       6.837  38.821  61.210  1.00  0.00     0.210 C 
ENDBRANCH  15  24
ENDBRANCH   8  14
BRANCH  12  26
HETATM   26  N   UNL     1       1.409  34.552  59.946  1.00  0.00    -0.282 NA
HETATM   27  H   UNL     1       0.663  34.965  60.498  1.00  0.00     0.126 HD
HETATM   28  H   UNL     1       1.497  34.965  59.021  1.00  0.00     0.126 HD
ENDBRANCH  12  26
TORSDOF 3
ENDMDL
MODEL 7
REMARK VINA RESULT:      -6.0     24.326     26.378
REMARK  3 active torsions:
REMARK  status: ('A' for Active; 'I' for Inactive)
REMARK    1  A    between atoms: C_8  and  C_9 
REMARK    2  A    between atoms: C_10  and  O_11 
REMARK    3  A    between atoms: C_24  and  N_25 
ROOT
HETATM    1  C   UNL     1      10.830  11.581  53.467  1.00  0.00     0.073 C 
HETATM    2  C   UNL     1      11.878  11.887  52.462  1.00  0.00     0.062 A 
HETATM    3  N   UNL     1      11.955  13.117  51.928  1.00  0.00    -0.177 NA
HETATM    4  N   UNL     1      12.978  13.037  51.054  1.00  0.00    -0.256 N 
HETATM    5  H   UNL     1      13.230  13.859  50.518  1.00  0.00     0.191 HD
HETATM    6  C   UNL     1      13.534  11.801  51.009  1.00  0.00     0.175 A 
HETATM    7  C   UNL     1      12.869  11.028  51.928  1.00  0.00     0.034 A 
HETATM    8  C   UNL     1      13.234   9.591  52.083  1.00  0.00     0.108 A 
HETATM    9  C   UNL     1      14.437   9.247  51.204  1.00  0.00     0.067 A 
HETATM   10  C   UNL     1      14.991   7.836  51.322  1.00  0.00     0.020 C 
HETATM   11  N   UNL     1      15.450   6.666  51.420  1.00  0.00    -0.096 N 
HETATM   12  C   UNL     1      15.007  10.128  50.338  1.00  0.00     0.139 A 
HETATM   13  O   UNL     1      14.535  11.449  50.210  1.00  0.00    -0.279 OA
ENDROOT
BRANCH   8  14
HETATM   14  C   UNL     1      13.397   9.300  53.579  1.00  0.00     0.000 A 
HETATM   15  C   UNL     1      12.454   8.418  54.177  1.00  0.00     0.076 A 
HETATM   16  C   UNL     1      12.575   8.058  55.518  1.00  0.00     0.038 A 
HETATM   17  C   UNL     1      13.620   8.557  56.287  1.00  0.00     0.015 A 
HETATM   18  C   UNL     1      14.561   9.434  55.744  1.00  0.00    -0.025 A 
HETATM   19  C   UNL     1      14.466   9.835  54.386  1.00  0.00    -0.016 A 
HETATM   20  C   UNL     1      15.598   9.903  56.569  1.00  0.00     0.012 A 
HETATM   21  C   UNL     1      15.460  10.746  53.941  1.00  0.00     0.013 A 
HETATM   22  C   UNL     1      16.489  11.207  54.769  1.00  0.00     0.001 A 
HETATM   23  C   UNL     1      16.561  10.781  56.084  1.00  0.00     0.001 A 
BRANCH  15  24
HETATM   24  O   UNL     1      11.449   7.957  53.363  1.00  0.00    -0.355 OA
HETATM   25  C   UNL     1      10.186   7.671  53.955  1.00  0.00     0.210 C 
ENDBRANCH  15  24
ENDBRANCH   8  14
BRANCH  12  26
HETATM   26  N   UNL     1      16.080   9.865  49.518  1.00  0.00    -0.282 NA
HETATM   27  H   UNL     1      15.866   9.763  48.530  1.00  0.00     0.126 HD
HETATM   28  H   UNL     1      16.860  10.492  49.695  1.00  0.00     0.126 HD
ENDBRANCH  12  26
TORSDOF 3
ENDMDL
MODEL 8
REMARK VINA RESULT:      -6.0      3.219      6.001
REMARK  3 active torsions:
REMARK  status: ('A' for Active; 'I' for Inactive)
REMARK    1  A    between atoms: C_8  and  C_9 
REMARK    2  A    between atoms: C_10  and  O_11 
REMARK    3  A    between atoms: C_24  and  N_25 
ROOT
HETATM    1  C   UNL     1       0.629  34.505  61.455  1.00  0.00     0.073 C 
HETATM    2  C   UNL     1       1.692  34.638  62.481  1.00  0.00     0.062 A 
HETATM    3  N   UNL     1       1.652  33.881  63.591  1.00  0.00    -0.177 NA
HETATM    4  N   UNL     1       2.729  34.271  64.300  1.00  0.00    -0.256 N 
HETATM    5  H   UNL     1       2.911  33.832  65.195  1.00  0.00     0.191 HD
HETATM    6  C   UNL     1       3.434  35.253  63.685  1.00  0.00     0.175 A 
HETATM    7  C   UNL     1       2.813  35.503  62.487  1.00  0.00     0.034 A 
HETATM    8  C   UNL     1       3.342  36.573  61.594  1.00  0.00     0.108 A 
HETATM    9  C   UNL     1       4.630  37.162  62.168  1.00  0.00     0.067 A 
HETATM   10  C   UNL     1       5.345  38.204  61.323  1.00  0.00     0.020 C 
HETATM   11  N   UNL     1       5.938  39.068  60.621  1.00  0.00    -0.096 N 
HETATM   12  C   UNL     1       5.141  36.805  63.379  1.00  0.00     0.139 A 
HETATM   13  O   UNL     1       4.520  35.833  64.186  1.00  0.00    -0.279 OA
ENDROOT
BRANCH   8  14
HETATM   14  C   UNL     1       3.445  36.001  60.175  1.00  0.00     0.000 A 
HETATM   15  C   UNL     1       2.770  36.705  59.139  1.00  0.00     0.076 A 
HETATM   16  C   UNL     1       2.869  36.280  57.815  1.00  0.00     0.038 A 
HETATM   17  C   UNL     1       3.630  35.162  57.492  1.00  0.00     0.015 A 
HETATM   18  C   UNL     1       4.300  34.436  58.479  1.00  0.00    -0.025 A 
HETATM   19  C   UNL     1       4.214  34.829  59.840  1.00  0.00    -0.016 A 
HETATM   20  C   UNL     1       5.059  33.317  58.092  1.00  0.00     0.012 A 
HETATM   21  C   UNL     1       4.914  34.008  60.764  1.00  0.00     0.013 A 
HETATM   22  C   UNL     1       5.666  32.897  60.370  1.00  0.00     0.001 A 
HETATM   23  C   UNL     1       5.743  32.553  59.031  1.00  0.00     0.001 A 
BRANCH  15  24
HETATM   24  O   UNL     1       2.038  37.802  59.523  1.00  0.00    -0.355 OA
HETATM   25  C   UNL     1       2.393  39.068  58.978  1.00  0.00     0.210 C 
ENDBRANCH  15  24
ENDBRANCH   8  14
BRANCH  12  26
HETATM   26  N   UNL     1       6.287  37.313  63.945  1.00  0.00    -0.282 NA
HETATM   27  H   UNL     1       6.981  36.626  64.228  1.00  0.00     0.126 HD
HETATM   28  H   UNL     1       6.679  38.076  63.399  1.00  0.00     0.126 HD
ENDBRANCH  12  26
TORSDOF 3
ENDMDL
MODEL 9
REMARK VINA RESULT:      -6.0      2.830      5.551
REMARK  3 active torsions:
REMARK  status: ('A' for Active; 'I' for Inactive)
REMARK    1  A    between atoms: C_8  and  C_9 
REMARK    2  A    between atoms: C_10  and  O_11 
REMARK    3  A    between atoms: C_24  and  N_25 
ROOT
HETATM    1  C   UNL     1       4.872  37.675  64.666  1.00  0.00     0.073 C 
HETATM    2  C   UNL     1       4.652  36.232  64.931  1.00  0.00     0.062 A 
HETATM    3  N   UNL     1       4.201  35.832  66.132  1.00  0.00    -0.177 NA
HETATM    4  N   UNL     1       4.143  34.489  66.036  1.00  0.00    -0.256 N 
HETATM    5  H   UNL     1       3.826  33.954  66.836  1.00  0.00     0.191 HD
HETATM    6  C   UNL     1       4.554  34.032  64.828  1.00  0.00     0.175 A 
HETATM    7  C   UNL     1       4.867  35.130  64.067  1.00  0.00     0.034 A 
HETATM    8  C   UNL     1       5.392  34.943  62.685  1.00  0.00     0.108 A 
HETATM    9  C   UNL     1       5.383  33.462  62.304  1.00  0.00     0.067 A 
HETATM   10  C   UNL     1       5.803  33.116  60.886  1.00  0.00     0.020 C 
HETATM   11  N   UNL     1       6.151  32.829  59.708  1.00  0.00    -0.096 N 
HETATM   12  C   UNL     1       5.033  32.471  63.169  1.00  0.00     0.139 A 
HETATM   13  O   UNL     1       4.622  32.749  64.487  1.00  0.00    -0.279 OA
ENDROOT
BRANCH   8  14
HETATM   14  C   UNL     1       4.614  35.876  61.749  1.00  0.00     0.000 A 
HETATM   15  C   UNL     1       5.267  37.067  61.326  1.00  0.00     0.076 A 
HETATM   16  C   UNL     1       4.646  37.932  60.427  1.00  0.00     0.038 A 
HETATM   17  C   UNL     1       3.380  37.641  59.934  1.00  0.00     0.015 A 
HETATM   18  C   UNL     1       2.698  36.490  60.331  1.00  0.00    -0.025 A 
HETATM   19  C   UNL     1       3.290  35.589  61.254  1.00  0.00    -0.016 A 
HETATM   20  C   UNL     1       1.421  36.245  59.795  1.00  0.00     0.012 A 
HETATM   21  C   UNL     1       2.503  34.461  61.608  1.00  0.00     0.013 A 
HETATM   22  C   UNL     1       1.233  34.226  61.069  1.00  0.00     0.001 A 
HETATM   23  C   UNL     1       0.694  35.117  60.158  1.00  0.00     0.001 A 
BRANCH  15  24
HETATM   24  O   UNL     1       6.517  37.295  61.847  1.00  0.00    -0.355 OA
HETATM   25  C   UNL     1       7.037  38.619  61.787  1.00  0.00     0.210 C 
ENDBRANCH  15  24
ENDBRANCH   8  14
BRANCH  12  26
HETATM   26  N   UNL     1       5.020  31.126  62.881  1.00  0.00    -0.282 NA
HETATM   27  H   UNL     1       5.787  30.790  62.305  1.00  0.00     0.126 HD
HETATM   28  H   UNL     1       4.864  30.558  63.709  1.00  0.00     0.126 HD
ENDBRANCH  12  26
TORSDOF 3
ENDMDL
MODEL 10
REMARK VINA RESULT:      -5.9     12.069     14.325
REMARK  3 active torsions:
REMARK  status: ('A' for Active; 'I' for Inactive)
REMARK    1  A    between atoms: C_8  and  C_9 
REMARK    2  A    between atoms: C_10  and  O_11 
REMARK    3  A    between atoms: C_24  and  N_25 
ROOT
HETATM    1  C   UNL     1       0.111  31.576  48.992  1.00  0.00     0.073 C 
HETATM    2  C   UNL     1       0.206  30.494  47.982  1.00  0.00     0.062 A 
HETATM    3  N   UNL     1      -0.621  30.491  46.922  1.00  0.00    -0.177 NA
HETATM    4  N   UNL     1      -0.286  29.378  46.241  1.00  0.00    -0.256 N 
HETATM    5  H   UNL     1      -0.784  29.158  45.386  1.00  0.00     0.191 HD
HETATM    6  C   UNL     1       0.708  28.675  46.839  1.00  0.00     0.175 A 
HETATM    7  C   UNL     1       1.078  29.378  47.959  1.00  0.00     0.034 A 
HETATM    8  C   UNL     1       2.136  28.830  48.856  1.00  0.00     0.108 A 
HETATM    9  C   UNL     1       2.729  27.551  48.264  1.00  0.00     0.067 A 
HETATM   10  C   UNL     1       3.889  26.921  49.017  1.00  0.00     0.020 C 
HETATM   11  N   UNL     1       4.852  26.399  49.643  1.00  0.00    -0.096 N 
HETATM   12  C   UNL     1       2.263  26.968  47.126  1.00  0.00     0.139 A 
HETATM   13  O   UNL     1       1.202  27.527  46.389  1.00  0.00    -0.279 OA
ENDROOT
BRANCH   8  14
HETATM   14  C   UNL     1       3.136  29.953  49.154  1.00  0.00     0.000 A 
HETATM   15  C   UNL     1       3.409  30.236  50.521  1.00  0.00     0.076 A 
HETATM   16  C   UNL     1       4.353  31.201  50.869  1.00  0.00     0.038 A 
HETATM   17  C   UNL     1       5.039  31.898  49.881  1.00  0.00     0.015 A 
HETATM   18  C   UNL     1       4.794  31.661  48.527  1.00  0.00    -0.025 A 
HETATM   19  C   UNL     1       3.832  30.695  48.132  1.00  0.00    -0.016 A 
HETATM   20  C   UNL     1       5.522  32.393  47.573  1.00  0.00     0.012 A 
HETATM   21  C   UNL     1       3.645  30.548  46.732  1.00  0.00     0.013 A 
HETATM   22  C   UNL     1       4.374  31.282  45.790  1.00  0.00     0.001 A 
HETATM   23  C   UNL     1       5.318  32.202  46.212  1.00  0.00     0.001 A 
BRANCH  15  24
HETATM   24  O   UNL     1       2.700  29.510  51.447  1.00  0.00    -0.355 OA
HETATM   25  C   UNL     1       3.430  28.752  52.405  1.00  0.00     0.210 C 
ENDBRANCH  15  24
ENDBRANCH   8  14
BRANCH  12  26
HETATM   26  N   UNL     1       2.753  25.813  46.560  1.00  0.00    -0.282 NA
HETATM   27  H   UNL     1       2.116  25.021  46.550  1.00  0.00     0.126 HD
HETATM   28  H   UNL     1       3.192  25.984  45.659  1.00  0.00     0.126 HD
ENDBRANCH  12  26
TORSDOF 3
ENDMDL
