MODEL 1
REMARK VINA RESULT:      -9.4      0.000      0.000
REMARK  3 active torsions:
REMARK  status: ('A' for Active; 'I' for Inactive)
REMARK    1  A    between atoms: C_9  and  N_10 
REMARK       I    between atoms: N_10  and  C_11 
REMARK    2  A    between atoms: C_11  and  C_12 
REMARK    3  A    between atoms: C_15  and  C_16 
REMARK       I    between atoms: C_16  and  N_17 
ROOT
HETATM    1  N   UNL     1       7.512  26.499  55.630  1.00  0.00    -0.322 N 
HETATM    2  C   UNL     1       6.383  27.038  56.224  1.00  0.00     0.263 C 
HETATM    3  O   UNL     1       5.259  26.549  56.158  1.00  0.00    -0.267 OA
HETATM    4  H   UNL     1       8.366  27.026  55.772  1.00  0.00     0.169 HD
ENDROOT
BRANCH   1   5
HETATM    5  C   UNL     1       7.626  25.318  54.871  1.00  0.00     0.035 A 
HETATM    6  C   UNL     1       7.675  25.283  53.480  1.00  0.00     0.030 A 
HETATM    7  C   UNL     1       7.779  24.062  52.803  1.00  0.00     0.014 A 
HETATM    8  C   UNL     1       7.835  22.851  53.506  1.00  0.00    -0.026 A 
HETATM    9  C   UNL     1       7.934  21.619  52.840  1.00  0.00     0.012 A 
HETATM   10  C   UNL     1       7.787  22.874  54.917  1.00  0.00    -0.024 A 
HETATM   11  C   UNL     1       7.987  20.423  53.556  1.00  0.00     0.001 A 
HETATM   12  C   UNL     1       7.942  20.444  54.947  1.00  0.00     0.001 A 
HETATM   13  C   UNL     1       7.844  21.660  55.624  1.00  0.00     0.012 A 
HETATM   14  C   UNL     1       7.684  24.110  55.581  1.00  0.00     0.042 A 
ENDBRANCH   1   5
BRANCH   2  15
HETATM   15  C   UNL     1       6.618  28.276  56.971  1.00  0.00     0.073 A 
HETATM   16  S   UNL     1       5.606  29.648  56.834  1.00  0.00    -0.096 SA
HETATM   17  C   UNL     1       6.547  30.538  57.945  1.00  0.00     0.067 A 
HETATM   18  C   UNL     1       7.629  29.829  58.438  1.00  0.00     0.039 A 
HETATM   19  C   UNL     1       7.652  28.513  57.861  1.00  0.00     0.042 A 
BRANCH  18  20
HETATM   20  C   UNL     1       8.556  30.421  59.400  1.00  0.00     0.249 C 
HETATM   21  N   UNL     1       8.131  30.483  60.694  1.00  0.00    -0.366 N 
HETATM   22  H   UNL     1       7.232  30.160  61.010  1.00  0.00     0.159 HD
HETATM   23  H   UNL     1       8.764  30.894  61.367  1.00  0.00     0.159 HD
HETATM   24  O   UNL     1       9.665  30.846  59.091  1.00  0.00    -0.268 OA
ENDBRANCH  18  20
ENDBRANCH   2  15
TORSDOF 3
ENDMDL
MODEL 2
REMARK VINA RESULT:      -9.1      4.520      6.909
REMARK  3 active torsions:
REMARK  status: ('A' for Active; 'I' for Inactive)
REMARK    1  A    between atoms: C_9  and  N_10 
REMARK       I    between atoms: N_10  and  C_11 
REMARK    2  A    between atoms: C_11  and  C_12 
REMARK    3  A    between atoms: C_15  and  C_16 
REMARK       I    between atoms: C_16  and  N_17 
ROOT
HETATM    1  N   UNL     1       6.000  25.017  52.602  1.00  0.00    -0.322 N 
HETATM    2  C   UNL     1       6.230  26.360  52.359  1.00  0.00     0.263 C 
HETATM    3  O   UNL     1       6.983  27.071  53.018  1.00  0.00    -0.267 OA
HETATM    4  H   UNL     1       5.345  24.571  51.970  1.00  0.00     0.169 HD
ENDROOT
BRANCH   1   5
HETATM    5  C   UNL     1       6.565  24.196  53.598  1.00  0.00     0.035 A 
HETATM    6  C   UNL     1       6.590  24.516  54.953  1.00  0.00     0.030 A 
HETATM    7  C   UNL     1       7.182  23.645  55.877  1.00  0.00     0.014 A 
HETATM    8  C   UNL     1       7.760  22.438  55.462  1.00  0.00    -0.026 A 
HETATM    9  C   UNL     1       8.361  21.559  56.377  1.00  0.00     0.012 A 
HETATM   10  C   UNL     1       7.738  22.103  54.091  1.00  0.00    -0.024 A 
HETATM   11  C   UNL     1       8.933  20.362  55.946  1.00  0.00     0.001 A 
HETATM   12  C   UNL     1       8.911  20.029  54.594  1.00  0.00     0.001 A 
HETATM   13  C   UNL     1       8.317  20.892  53.672  1.00  0.00     0.012 A 
HETATM   14  C   UNL     1       7.139  22.988  53.176  1.00  0.00     0.042 A 
ENDBRANCH   1   5
BRANCH   2  15
HETATM   15  C   UNL     1       5.494  26.910  51.217  1.00  0.00     0.073 A 
HETATM   16  S   UNL     1       5.346  28.589  50.930  1.00  0.00    -0.096 SA
HETATM   17  C   UNL     1       4.408  28.337  49.527  1.00  0.00     0.067 A 
HETATM   18  C   UNL     1       4.190  26.998  49.248  1.00  0.00     0.039 A 
HETATM   19  C   UNL     1       4.833  26.183  50.241  1.00  0.00     0.042 A 
BRANCH  18  20
HETATM   20  C   UNL     1       3.407  26.578  48.089  1.00  0.00     0.249 C 
HETATM   21  N   UNL     1       2.067  26.424  48.284  1.00  0.00    -0.366 N 
HETATM   22  H   UNL     1       1.602  26.572  49.165  1.00  0.00     0.159 HD
HETATM   23  H   UNL     1       1.516  26.130  47.488  1.00  0.00     0.159 HD
HETATM   24  O   UNL     1       3.900  26.367  46.985  1.00  0.00    -0.268 OA
ENDBRANCH  18  20
ENDBRANCH   2  15
TORSDOF 3
ENDMDL
MODEL 3
REMARK VINA RESULT:      -8.9      2.001      2.233
REMARK  3 active torsions:
REMARK  status: ('A' for Active; 'I' for Inactive)
REMARK    1  A    between atoms: C_9  and  N_10 
REMARK       I    between atoms: N_10  and  C_11 
REMARK    2  A    between atoms: C_11  and  C_12 
REMARK    3  A    between atoms: C_15  and  C_16 
REMARK       I    between atoms: C_16  and  N_17 
ROOT
HETATM    1  N   UNL     1       7.084  26.483  55.305  1.00  0.00    -0.322 N 
HETATM    2  C   UNL     1       5.961  27.283  55.183  1.00  0.00     0.263 C 
HETATM    3  O   UNL     1       5.019  27.054  54.429  1.00  0.00    -0.267 OA
HETATM    4  H   UNL     1       7.776  26.812  55.968  1.00  0.00     0.169 HD
ENDROOT
BRANCH   1   5
HETATM    5  C   UNL     1       7.378  25.276  54.642  1.00  0.00     0.035 A 
HETATM    6  C   UNL     1       7.648  25.178  53.278  1.00  0.00     0.030 A 
HETATM    7  C   UNL     1       7.922  23.935  52.696  1.00  0.00     0.014 A 
HETATM    8  C   UNL     1       7.930  22.764  53.467  1.00  0.00    -0.026 A 
HETATM    9  C   UNL     1       8.199  21.510  52.895  1.00  0.00     0.012 A 
HETATM   10  C   UNL     1       7.660  22.851  54.850  1.00  0.00    -0.024 A 
HETATM   11  C   UNL     1       8.202  20.355  53.677  1.00  0.00     0.001 A 
HETATM   12  C   UNL     1       7.938  20.439  55.041  1.00  0.00     0.001 A 
HETATM   13  C   UNL     1       7.669  21.679  55.625  1.00  0.00     0.012 A 
HETATM   14  C   UNL     1       7.388  24.109  55.419  1.00  0.00     0.042 A 
ENDBRANCH   1   5
BRANCH   2  15
HETATM   15  C   UNL     1       5.957  28.467  56.045  1.00  0.00     0.073 A 
HETATM   16  S   UNL     1       7.373  29.355  56.409  1.00  0.00    -0.096 SA
HETATM   17  C   UNL     1       6.515  30.454  57.392  1.00  0.00     0.067 A 
HETATM   18  C   UNL     1       5.159  30.180  57.465  1.00  0.00     0.039 A 
HETATM   19  C   UNL     1       4.853  29.022  56.672  1.00  0.00     0.042 A 
BRANCH  18  20
HETATM   20  C   UNL     1       4.255  31.007  58.260  1.00  0.00     0.249 C 
HETATM   21  N   UNL     1       3.295  30.349  58.970  1.00  0.00    -0.366 N 
HETATM   22  H   UNL     1       3.175  29.349  58.967  1.00  0.00     0.159 HD
HETATM   23  H   UNL     1       2.662  30.912  59.521  1.00  0.00     0.159 HD
HETATM   24  O   UNL     1       4.330  32.231  58.308  1.00  0.00    -0.268 OA
ENDBRANCH  18  20
ENDBRANCH   2  15
TORSDOF 3
ENDMDL
MODEL 4
REMARK VINA RESULT:      -8.7      4.829      6.197
REMARK  3 active torsions:
REMARK  status: ('A' for Active; 'I' for Inactive)
REMARK    1  A    between atoms: C_9  and  N_10 
REMARK       I    between atoms: N_10  and  C_11 
REMARK    2  A    between atoms: C_11  and  C_12 
REMARK    3  A    between atoms: C_15  and  C_16 
REMARK       I    between atoms: C_16  and  N_17 
ROOT
HETATM    1  N   UNL     1       6.660  25.339  52.307  1.00  0.00    -0.322 N 
HETATM    2  C   UNL     1       5.382  25.434  51.785  1.00  0.00     0.263 C 
HETATM    3  O   UNL     1       4.439  24.719  52.112  1.00  0.00    -0.267 OA
HETATM    4  H   UNL     1       7.330  25.999  51.929  1.00  0.00     0.169 HD
ENDROOT
BRANCH   1   5
HETATM    5  C   UNL     1       7.141  24.460  53.297  1.00  0.00     0.035 A 
HETATM    6  C   UNL     1       7.322  24.810  54.633  1.00  0.00     0.030 A 
HETATM    7  C   UNL     1       7.814  23.875  55.552  1.00  0.00     0.014 A 
HETATM    8  C   UNL     1       8.135  22.571  55.151  1.00  0.00    -0.026 A 
HETATM    9  C   UNL     1       8.634  21.624  56.061  1.00  0.00     0.012 A 
HETATM   10  C   UNL     1       7.954  22.204  53.800  1.00  0.00    -0.024 A 
HETATM   11  C   UNL     1       8.949  20.331  55.644  1.00  0.00     0.001 A 
HETATM   12  C   UNL     1       8.770  19.968  54.313  1.00  0.00     0.001 A 
HETATM   13  C   UNL     1       8.275  20.897  53.396  1.00  0.00     0.012 A 
HETATM   14  C   UNL     1       7.458  23.156  52.891  1.00  0.00     0.042 A 
ENDBRANCH   1   5
BRANCH   2  15
HETATM   15  C   UNL     1       5.209  26.485  50.779  1.00  0.00     0.073 A 
HETATM   16  S   UNL     1       4.461  26.207  49.266  1.00  0.00    -0.096 SA
HETATM   17  C   UNL     1       4.682  27.828  48.781  1.00  0.00     0.067 A 
HETATM   18  C   UNL     1       5.315  28.604  49.738  1.00  0.00     0.039 A 
HETATM   19  C   UNL     1       5.611  27.805  50.895  1.00  0.00     0.042 A 
BRANCH  18  20
HETATM   20  C   UNL     1       5.596  30.019  49.509  1.00  0.00     0.249 C 
HETATM   21  N   UNL     1       4.948  30.607  48.463  1.00  0.00    -0.366 N 
HETATM   22  H   UNL     1       4.310  30.126  47.851  1.00  0.00     0.159 HD
HETATM   23  H   UNL     1       5.138  31.585  48.294  1.00  0.00     0.159 HD
HETATM   24  O   UNL     1       6.369  30.672  50.204  1.00  0.00    -0.268 OA
ENDBRANCH  18  20
ENDBRANCH   2  15
TORSDOF 3
ENDMDL
MODEL 5
REMARK VINA RESULT:      -8.6      1.638      2.278
REMARK  3 active torsions:
REMARK  status: ('A' for Active; 'I' for Inactive)
REMARK    1  A    between atoms: C_9  and  N_10 
REMARK       I    between atoms: N_10  and  C_11 
REMARK    2  A    between atoms: C_11  and  C_12 
REMARK    3  A    between atoms: C_15  and  C_16 
REMARK       I    between atoms: C_16  and  N_17 
ROOT
HETATM    1  N   UNL     1       7.105  25.989  55.964  1.00  0.00    -0.322 N 
HETATM    2  C   UNL     1       5.944  26.489  56.530  1.00  0.00     0.263 C 
HETATM    3  O   UNL     1       5.055  25.800  57.024  1.00  0.00    -0.267 OA
HETATM    4  H   UNL     1       7.738  26.688  55.594  1.00  0.00     0.169 HD
ENDROOT
BRANCH   1   5
HETATM    5  C   UNL     1       7.519  24.648  55.850  1.00  0.00     0.035 A 
HETATM    6  C   UNL     1       7.979  23.878  56.916  1.00  0.00     0.030 A 
HETATM    7  C   UNL     1       8.380  22.552  56.713  1.00  0.00     0.014 A 
HETATM    8  C   UNL     1       8.330  21.971  55.438  1.00  0.00    -0.026 A 
HETATM    9  C   UNL     1       8.734  20.644  55.220  1.00  0.00     0.012 A 
HETATM   10  C   UNL     1       7.864  22.741  54.351  1.00  0.00    -0.024 A 
HETATM   11  C   UNL     1       8.678  20.082  53.945  1.00  0.00     0.001 A 
HETATM   12  C   UNL     1       8.217  20.839  52.872  1.00  0.00     0.001 A 
HETATM   13  C   UNL     1       7.812  22.159  53.073  1.00  0.00     0.012 A 
HETATM   14  C   UNL     1       7.463  24.071  54.573  1.00  0.00     0.042 A 
ENDBRANCH   1   5
BRANCH   2  15
HETATM   15  C   UNL     1       5.833  27.949  56.510  1.00  0.00     0.073 A 
HETATM   16  S   UNL     1       5.277  28.819  55.147  1.00  0.00    -0.096 SA
HETATM   17  C   UNL     1       5.469  30.318  55.938  1.00  0.00     0.067 A 
HETATM   18  C   UNL     1       5.949  30.197  57.231  1.00  0.00     0.039 A 
HETATM   19  C   UNL     1       6.152  28.810  57.547  1.00  0.00     0.042 A 
BRANCH  18  20
HETATM   20  C   UNL     1       6.183  31.369  58.072  1.00  0.00     0.249 C 
HETATM   21  N   UNL     1       6.675  31.132  59.321  1.00  0.00    -0.366 N 
HETATM   22  H   UNL     1       6.872  30.215  59.688  1.00  0.00     0.159 HD
HETATM   23  H   UNL     1       6.838  31.936  59.912  1.00  0.00     0.159 HD
HETATM   24  O   UNL     1       5.959  32.517  57.702  1.00  0.00    -0.268 OA
ENDBRANCH  18  20
ENDBRANCH   2  15
TORSDOF 3
ENDMDL
MODEL 6
REMARK VINA RESULT:      -8.4      2.243      3.270
REMARK  3 active torsions:
REMARK  status: ('A' for Active; 'I' for Inactive)
REMARK    1  A    between atoms: C_9  and  N_10 
REMARK       I    between atoms: N_10  and  C_11 
REMARK    2  A    between atoms: C_11  and  C_12 
REMARK    3  A    between atoms: C_15  and  C_16 
REMARK       I    between atoms: C_16  and  N_17 
ROOT
HETATM    1  N   UNL     1       7.604  27.474  57.403  1.00  0.00    -0.322 N 
HETATM    2  C   UNL     1       8.449  28.567  57.496  1.00  0.00     0.263 C 
HETATM    3  O   UNL     1       9.608  28.591  57.093  1.00  0.00    -0.267 OA
HETATM    4  H   UNL     1       6.677  27.613  57.788  1.00  0.00     0.169 HD
ENDROOT
BRANCH   1   5
HETATM    5  C   UNL     1       7.863  26.212  56.835  1.00  0.00     0.035 A 
HETATM    6  C   UNL     1       8.468  25.157  57.514  1.00  0.00     0.030 A 
HETATM    7  C   UNL     1       8.697  23.935  56.870  1.00  0.00     0.014 A 
HETATM    8  C   UNL     1       8.325  23.745  55.532  1.00  0.00    -0.026 A 
HETATM    9  C   UNL     1       8.553  22.527  54.872  1.00  0.00     0.012 A 
HETATM   10  C   UNL     1       7.709  24.806  54.834  1.00  0.00    -0.024 A 
HETATM   11  C   UNL     1       8.177  22.355  53.540  1.00  0.00     0.001 A 
HETATM   12  C   UNL     1       7.568  23.400  52.851  1.00  0.00     0.001 A 
HETATM   13  C   UNL     1       7.334  24.617  53.493  1.00  0.00     0.012 A 
HETATM   14  C   UNL     1       7.485  26.026  55.497  1.00  0.00     0.042 A 
ENDBRANCH   1   5
BRANCH   2  15
HETATM   15  C   UNL     1       7.853  29.748  58.127  1.00  0.00     0.073 A 
HETATM   16  S   UNL     1       8.461  30.435  59.571  1.00  0.00    -0.096 SA
HETATM   17  C   UNL     1       7.263  31.650  59.579  1.00  0.00     0.067 A 
HETATM   18  C   UNL     1       6.391  31.566  58.506  1.00  0.00     0.039 A 
HETATM   19  C   UNL     1       6.753  30.454  57.671  1.00  0.00     0.042 A 
BRANCH  18  20
HETATM   20  C   UNL     1       5.295  32.516  58.338  1.00  0.00     0.249 C 
HETATM   21  N   UNL     1       4.116  32.198  58.945  1.00  0.00    -0.366 N 
HETATM   22  H   UNL     1       3.964  31.360  59.481  1.00  0.00     0.159 HD
HETATM   23  H   UNL     1       3.350  32.848  58.832  1.00  0.00     0.159 HD
HETATM   24  O   UNL     1       5.398  33.554  57.692  1.00  0.00    -0.268 OA
ENDBRANCH  18  20
ENDBRANCH   2  15
TORSDOF 3
ENDMDL
MODEL 7
REMARK VINA RESULT:      -8.3     11.034     14.661
REMARK  3 active torsions:
REMARK  status: ('A' for Active; 'I' for Inactive)
REMARK    1  A    between atoms: C_9  and  N_10 
REMARK       I    between atoms: N_10  and  C_11 
REMARK    2  A    between atoms: C_11  and  C_12 
REMARK    3  A    between atoms: C_15  and  C_16 
REMARK       I    between atoms: C_16  and  N_17 
ROOT
HETATM    1  N   UNL     1       6.386  34.755  67.768  1.00  0.00    -0.322 N 
HETATM    2  C   UNL     1       5.941  34.359  69.018  1.00  0.00     0.263 C 
HETATM    3  O   UNL     1       5.163  33.431  69.221  1.00  0.00    -0.267 OA
HETATM    4  H   UNL     1       7.022  35.543  67.768  1.00  0.00     0.169 HD
ENDROOT
BRANCH   1   5
HETATM    5  C   UNL     1       6.078  34.199  66.511  1.00  0.00     0.035 A 
HETATM    6  C   UNL     1       4.784  34.045  66.019  1.00  0.00     0.030 A 
HETATM    7  C   UNL     1       4.567  33.473  64.760  1.00  0.00     0.014 A 
HETATM    8  C   UNL     1       5.641  33.043  63.968  1.00  0.00    -0.026 A 
HETATM    9  C   UNL     1       5.436  32.463  62.705  1.00  0.00     0.012 A 
HETATM   10  C   UNL     1       6.956  33.197  64.455  1.00  0.00    -0.024 A 
HETATM   11  C   UNL     1       6.517  32.041  61.931  1.00  0.00     0.001 A 
HETATM   12  C   UNL     1       7.815  32.193  62.409  1.00  0.00     0.001 A 
HETATM   13  C   UNL     1       8.034  32.767  63.662  1.00  0.00     0.012 A 
HETATM   14  C   UNL     1       7.157  33.774  65.722  1.00  0.00     0.042 A 
ENDBRANCH   1   5
BRANCH   2  15
HETATM   15  C   UNL     1       6.479  35.141  70.134  1.00  0.00     0.073 A 
HETATM   16  S   UNL     1       6.052  34.846  71.764  1.00  0.00    -0.096 SA
HETATM   17  C   UNL     1       7.047  36.113  72.325  1.00  0.00     0.067 A 
HETATM   18  C   UNL     1       7.715  36.777  71.310  1.00  0.00     0.039 A 
HETATM   19  C   UNL     1       7.373  36.194  70.041  1.00  0.00     0.042 A 
BRANCH  18  20
HETATM   20  C   UNL     1       8.613  37.894  71.589  1.00  0.00     0.249 C 
HETATM   21  N   UNL     1       8.515  38.974  70.763  1.00  0.00    -0.366 N 
HETATM   22  H   UNL     1       7.879  39.036  69.985  1.00  0.00     0.159 HD
HETATM   23  H   UNL     1       9.134  39.752  70.946  1.00  0.00     0.159 HD
HETATM   24  O   UNL     1       9.423  37.892  72.511  1.00  0.00    -0.268 OA
ENDBRANCH  18  20
ENDBRANCH   2  15
TORSDOF 3
ENDMDL
MODEL 8
REMARK VINA RESULT:      -8.3      2.852      3.788
REMARK  3 active torsions:
REMARK  status: ('A' for Active; 'I' for Inactive)
REMARK    1  A    between atoms: C_9  and  N_10 
REMARK       I    between atoms: N_10  and  C_11 
REMARK    2  A    between atoms: C_11  and  C_12 
REMARK    3  A    between atoms: C_15  and  C_16 
REMARK       I    between atoms: C_16  and  N_17 
ROOT
HETATM    1  N   UNL     1       6.635  25.888  55.622  1.00  0.00    -0.322 N 
HETATM    2  C   UNL     1       5.537  26.353  56.326  1.00  0.00     0.263 C 
HETATM    3  O   UNL     1       4.845  25.668  57.074  1.00  0.00    -0.267 OA
HETATM    4  H   UNL     1       7.098  26.578  55.043  1.00  0.00     0.169 HD
ENDROOT
BRANCH   1   5
HETATM    5  C   UNL     1       7.193  24.595  55.621  1.00  0.00     0.035 A 
HETATM    6  C   UNL     1       7.757  23.985  56.739  1.00  0.00     0.030 A 
HETATM    7  C   UNL     1       8.298  22.697  56.647  1.00  0.00     0.014 A 
HETATM    8  C   UNL     1       8.287  21.994  55.434  1.00  0.00    -0.026 A 
HETATM    9  C   UNL     1       8.832  20.704  55.328  1.00  0.00     0.012 A 
HETATM   10  C   UNL     1       7.717  22.602  54.295  1.00  0.00    -0.024 A 
HETATM   11  C   UNL     1       8.813  20.021  54.112  1.00  0.00     0.001 A 
HETATM   12  C   UNL     1       8.249  20.617  52.988  1.00  0.00     0.001 A 
HETATM   13  C   UNL     1       7.704  21.899  53.078  1.00  0.00     0.012 A 
HETATM   14  C   UNL     1       7.176  23.896  54.405  1.00  0.00     0.042 A 
ENDBRANCH   1   5
BRANCH   2  15
HETATM   15  C   UNL     1       5.237  27.772  56.122  1.00  0.00     0.073 A 
HETATM   16  S   UNL     1       5.603  28.974  57.283  1.00  0.00    -0.096 SA
HETATM   17  C   UNL     1       4.957  30.214  56.305  1.00  0.00     0.067 A 
HETATM   18  C   UNL     1       4.458  29.755  55.097  1.00  0.00     0.039 A 
HETATM   19  C   UNL     1       4.632  28.331  55.008  1.00  0.00     0.042 A 
BRANCH  18  20
HETATM   20  C   UNL     1       3.860  30.664  54.123  1.00  0.00     0.249 C 
HETATM   21  N   UNL     1       4.524  30.810  52.941  1.00  0.00    -0.366 N 
HETATM   22  H   UNL     1       5.387  30.343  52.715  1.00  0.00     0.159 HD
HETATM   23  H   UNL     1       4.120  31.439  52.261  1.00  0.00     0.159 HD
HETATM   24  O   UNL     1       2.817  31.277  54.327  1.00  0.00    -0.268 OA
ENDBRANCH  18  20
ENDBRANCH   2  15
TORSDOF 3
ENDMDL
MODEL 9
REMARK VINA RESULT:      -8.2      4.486     10.523
REMARK  3 active torsions:
REMARK  status: ('A' for Active; 'I' for Inactive)
REMARK    1  A    between atoms: C_9  and  N_10 
REMARK       I    between atoms: N_10  and  C_11 
REMARK    2  A    between atoms: C_11  and  C_12 
REMARK    3  A    between atoms: C_15  and  C_16 
REMARK       I    between atoms: C_16  and  N_17 
ROOT
HETATM    1  N   UNL     1       7.221  30.885  60.506  1.00  0.00    -0.322 N 
HETATM    2  C   UNL     1       7.138  31.356  59.206  1.00  0.00     0.263 C 
HETATM    3  O   UNL     1       7.070  32.542  58.895  1.00  0.00    -0.267 OA
HETATM    4  H   UNL     1       7.265  29.877  60.596  1.00  0.00     0.169 HD
ENDROOT
BRANCH   1   5
HETATM    5  C   UNL     1       7.266  31.623  61.704  1.00  0.00     0.035 A 
HETATM    6  C   UNL     1       8.443  32.014  62.339  1.00  0.00     0.030 A 
HETATM    7  C   UNL     1       8.397  32.739  63.536  1.00  0.00     0.014 A 
HETATM    8  C   UNL     1       7.172  33.087  64.122  1.00  0.00    -0.026 A 
HETATM    9  C   UNL     1       7.113  33.809  65.324  1.00  0.00     0.012 A 
HETATM   10  C   UNL     1       5.973  32.698  63.487  1.00  0.00    -0.024 A 
HETATM   11  C   UNL     1       5.884  34.145  65.894  1.00  0.00     0.001 A 
HETATM   12  C   UNL     1       4.701  33.764  65.269  1.00  0.00     0.001 A 
HETATM   13  C   UNL     1       4.744  33.045  64.073  1.00  0.00     0.012 A 
HETATM   14  C   UNL     1       6.037  31.970  62.285  1.00  0.00     0.042 A 
ENDBRANCH   1   5
BRANCH   2  15
HETATM   15  C   UNL     1       7.140  30.313  58.177  1.00  0.00     0.073 A 
HETATM   16  S   UNL     1       8.578  29.668  57.512  1.00  0.00    -0.096 SA
HETATM   17  C   UNL     1       7.712  28.620  56.481  1.00  0.00     0.067 A 
HETATM   18  C   UNL     1       6.339  28.731  56.614  1.00  0.00     0.039 A 
HETATM   19  C   UNL     1       6.025  29.720  57.609  1.00  0.00     0.042 A 
BRANCH  18  20
HETATM   20  C   UNL     1       5.425  27.918  55.815  1.00  0.00     0.249 C 
HETATM   21  N   UNL     1       4.158  27.774  56.298  1.00  0.00    -0.366 N 
HETATM   22  H   UNL     1       3.831  28.181  57.159  1.00  0.00     0.159 HD
HETATM   23  H   UNL     1       3.519  27.211  55.754  1.00  0.00     0.159 HD
HETATM   24  O   UNL     1       5.750  27.380  54.761  1.00  0.00    -0.268 OA
ENDBRANCH  18  20
ENDBRANCH   2  15
TORSDOF 3
ENDMDL
MODEL 10
REMARK VINA RESULT:      -7.7     10.140     16.136
REMARK  3 active torsions:
REMARK  status: ('A' for Active; 'I' for Inactive)
REMARK    1  A    between atoms: C_9  and  N_10 
REMARK       I    between atoms: N_10  and  C_11 
REMARK    2  A    between atoms: C_11  and  C_12 
REMARK    3  A    between atoms: C_15  and  C_16 
REMARK       I    between atoms: C_16  and  N_17 
ROOT
HETATM    1  N   UNL     1       6.863  34.248  67.398  1.00  0.00    -0.322 N 
HETATM    2  C   UNL     1       5.848  34.309  66.459  1.00  0.00     0.263 C 
HETATM    3  O   UNL     1       4.682  34.604  66.708  1.00  0.00    -0.267 OA
HETATM    4  H   UNL     1       7.771  33.985  67.034  1.00  0.00     0.169 HD
ENDROOT
BRANCH   1   5
HETATM    5  C   UNL     1       6.798  34.516  68.779  1.00  0.00     0.035 A 
HETATM    6  C   UNL     1       6.135  33.710  69.702  1.00  0.00     0.030 A 
HETATM    7  C   UNL     1       6.111  34.056  71.058  1.00  0.00     0.014 A 
HETATM    8  C   UNL     1       6.750  35.216  71.518  1.00  0.00    -0.026 A 
HETATM    9  C   UNL     1       6.729  35.577  72.875  1.00  0.00     0.012 A 
HETATM   10  C   UNL     1       7.426  36.039  70.593  1.00  0.00    -0.024 A 
HETATM   11  C   UNL     1       7.369  36.735  73.315  1.00  0.00     0.001 A 
HETATM   12  C   UNL     1       8.038  37.547  72.404  1.00  0.00     0.001 A 
HETATM   13  C   UNL     1       8.068  37.203  71.052  1.00  0.00     0.012 A 
HETATM   14  C   UNL     1       7.441  35.677  69.234  1.00  0.00     0.042 A 
ENDBRANCH   1   5
BRANCH   2  15
HETATM   15  C   UNL     1       6.262  33.994  65.090  1.00  0.00     0.073 A 
HETATM   16  S   UNL     1       5.733  34.888  63.731  1.00  0.00    -0.096 SA
HETATM   17  C   UNL     1       6.618  33.905  62.653  1.00  0.00     0.067 A 
HETATM   18  C   UNL     1       7.323  32.895  63.286  1.00  0.00     0.039 A 
HETATM   19  C   UNL     1       7.105  32.965  64.705  1.00  0.00     0.042 A 
BRANCH  18  20
HETATM   20  C   UNL     1       8.140  31.946  62.533  1.00  0.00     0.249 C 
HETATM   21  N   UNL     1       7.582  30.728  62.283  1.00  0.00    -0.366 N 
HETATM   22  H   UNL     1       6.663  30.452  62.590  1.00  0.00     0.159 HD
HETATM   23  H   UNL     1       8.140  30.063  61.765  1.00  0.00     0.159 HD
HETATM   24  O   UNL     1       9.271  32.202  62.133  1.00  0.00    -0.268 OA
ENDBRANCH  18  20
ENDBRANCH   2  15
TORSDOF 3
ENDMDL
