MODEL 1
REMARK VINA RESULT:      -9.4      0.000      0.000
REMARK  4 active torsions:
REMARK  status: ('A' for Active; 'I' for Inactive)
REMARK    1  A    between atoms: C_6  and  N_7 
REMARK       I    between atoms: N_7  and  C_8 
REMARK    2  A    between atoms: C_8  and  C_9 
REMARK    3  A    between atoms: C_10  and  C_11 
REMARK    4  A    between atoms: C_14  and  O_15 
ROOT
HETATM    1  C   UNL     1       6.473  27.758  54.545  1.00  0.00     0.125 C 
HETATM    2  C   UNL     1       5.095  28.131  53.933  1.00  0.00     0.160 C 
HETATM    3  N   UNL     1       4.597  29.416  54.405  1.00  0.00    -0.231 N 
HETATM    4  C   UNL     1       5.256  30.236  55.275  1.00  0.00     0.200 A 
HETATM    5  N   UNL     1       6.454  29.885  55.782  1.00  0.00    -0.256 NA
HETATM    6  C   UNL     1       6.705  28.445  55.913  1.00  0.00     0.074 C 
HETATM    7  C   UNL     1       8.146  28.262  56.401  1.00  0.00     0.027 C 
HETATM    8  N   UNL     1       3.370  29.893  54.118  1.00  0.00    -0.162 NA
HETATM    9  C   UNL     1       3.392  31.051  54.787  1.00  0.00     0.258 A 
HETATM   10  N   UNL     1       4.529  31.298  55.509  1.00  0.00    -0.210 NA
HETATM   11  H   UNL     1       6.728  30.439  56.594  1.00  0.00     0.131 HD
ENDROOT
BRANCH   1  12
HETATM   12  C   UNL     1       6.522  26.246  54.715  1.00  0.00     0.230 C 
HETATM   13  N   UNL     1       7.621  25.652  54.118  1.00  0.00    -0.326 N 
HETATM   14  H   UNL     1       8.045  26.154  53.345  1.00  0.00     0.169 HD
HETATM   15  O   UNL     1       5.613  25.649  55.284  1.00  0.00    -0.273 OA
BRANCH  13  16
HETATM   16  C   UNL     1       7.941  24.276  54.188  1.00  0.00     0.040 A 
HETATM   17  C   UNL     1       8.460  23.627  55.322  1.00  0.00    -0.035 A 
HETATM   18  C   UNL     1       8.678  22.234  55.269  1.00  0.00     0.015 A 
HETATM   19  C   UNL     1       8.856  24.325  56.594  1.00  0.00     0.050 C 
HETATM   20  C   UNL     1       8.460  21.501  54.098  1.00  0.00    -0.061 A 
HETATM   21  C   UNL     1       8.673  20.017  54.075  1.00  0.00     0.048 C 
HETATM   22  C   UNL     1       8.002  22.168  52.962  1.00  0.00     0.009 A 
HETATM   23  C   UNL     1       7.762  23.544  53.003  1.00  0.00     0.030 A 
ENDBRANCH  13  16
ENDBRANCH   1  12
BRANCH   2  24
HETATM   24  C   UNL     1       5.158  28.131  52.405  1.00  0.00    -0.032 A 
HETATM   25  C   UNL     1       4.899  26.957  51.686  1.00  0.00     0.012 A 
HETATM   26  C   UNL     1       4.985  26.950  50.291  1.00  0.00     0.037 A 
HETATM   27  C   UNL     1       5.323  28.109  49.587  1.00  0.00     0.068 A 
HETATM   28  C   UNL     1       5.569  29.285  50.293  1.00  0.00     0.037 A 
HETATM   29  C   UNL     1       5.483  29.297  51.690  1.00  0.00     0.012 A 
BRANCH  27  30
HETATM   30  O   UNL     1       5.375  27.963  48.228  1.00  0.00    -0.356 OA
HETATM   31  C   UNL     1       4.581  26.927  47.663  1.00  0.00     0.210 C 
ENDBRANCH  27  30
ENDBRANCH   2  24
TORSDOF 4
ENDMDL
MODEL 2
REMARK VINA RESULT:      -9.2      1.403      1.689
REMARK  4 active torsions:
REMARK  status: ('A' for Active; 'I' for Inactive)
REMARK    1  A    between atoms: C_6  and  N_7 
REMARK       I    between atoms: N_7  and  C_8 
REMARK    2  A    between atoms: C_8  and  C_9 
REMARK    3  A    between atoms: C_10  and  C_11 
REMARK    4  A    between atoms: C_14  and  O_15 
ROOT
HETATM    1  C   UNL     1       6.367  27.591  55.706  1.00  0.00     0.125 C 
HETATM    2  C   UNL     1       4.904  28.026  55.417  1.00  0.00     0.160 C 
HETATM    3  N   UNL     1       4.478  29.152  56.239  1.00  0.00    -0.231 N 
HETATM    4  C   UNL     1       5.263  29.788  57.158  1.00  0.00     0.200 A 
HETATM    5  N   UNL     1       6.531  29.388  57.378  1.00  0.00    -0.256 NA
HETATM    6  C   UNL     1       6.813  27.968  57.139  1.00  0.00     0.074 C 
HETATM    7  C   UNL     1       8.315  27.747  57.341  1.00  0.00     0.027 C 
HETATM    8  N   UNL     1       3.216  29.624  56.263  1.00  0.00    -0.162 NA
HETATM    9  C   UNL     1       3.337  30.605  57.165  1.00  0.00     0.258 A 
HETATM   10  N   UNL     1       4.575  30.737  57.736  1.00  0.00    -0.210 NA
HETATM   11  H   UNL     1       6.928  29.761  58.240  1.00  0.00     0.131 HD
ENDROOT
BRANCH   1  12
HETATM   12  C   UNL     1       6.457  26.083  55.520  1.00  0.00     0.230 C 
HETATM   13  N   UNL     1       7.505  25.681  54.711  1.00  0.00    -0.326 N 
HETATM   14  H   UNL     1       7.847  26.360  54.039  1.00  0.00     0.169 HD
HETATM   15  O   UNL     1       5.614  25.338  56.013  1.00  0.00    -0.273 OA
BRANCH  13  16
HETATM   16  C   UNL     1       7.853  24.337  54.436  1.00  0.00     0.040 A 
HETATM   17  C   UNL     1       8.489  23.469  55.341  1.00  0.00    -0.035 A 
HETATM   18  C   UNL     1       8.724  22.134  54.952  1.00  0.00     0.015 A 
HETATM   19  C   UNL     1       8.993  23.876  56.698  1.00  0.00     0.050 C 
HETATM   20  C   UNL     1       8.407  21.675  53.669  1.00  0.00    -0.061 A 
HETATM   21  C   UNL     1       8.642  20.244  53.289  1.00  0.00     0.048 C 
HETATM   22  C   UNL     1       7.832  22.564  52.761  1.00  0.00     0.009 A 
HETATM   23  C   UNL     1       7.574  23.885  53.136  1.00  0.00     0.030 A 
ENDBRANCH  13  16
ENDBRANCH   1  12
BRANCH   2  24
HETATM   24  C   UNL     1       4.717  28.367  53.938  1.00  0.00    -0.032 A 
HETATM   25  C   UNL     1       5.827  28.648  53.131  1.00  0.00     0.012 A 
HETATM   26  C   UNL     1       5.654  28.988  51.786  1.00  0.00     0.037 A 
HETATM   27  C   UNL     1       4.378  29.047  51.219  1.00  0.00     0.068 A 
HETATM   28  C   UNL     1       3.269  28.756  52.011  1.00  0.00     0.037 A 
HETATM   29  C   UNL     1       3.437  28.414  53.357  1.00  0.00     0.012 A 
BRANCH  27  30
HETATM   30  O   UNL     1       4.352  29.394  49.897  1.00  0.00    -0.356 OA
HETATM   31  C   UNL     1       5.171  28.635  49.016  1.00  0.00     0.210 C 
ENDBRANCH  27  30
ENDBRANCH   2  24
TORSDOF 4
ENDMDL
MODEL 3
REMARK VINA RESULT:      -8.8      3.437      5.528
REMARK  4 active torsions:
REMARK  status: ('A' for Active; 'I' for Inactive)
REMARK    1  A    between atoms: C_6  and  N_7 
REMARK       I    between atoms: N_7  and  C_8 
REMARK    2  A    between atoms: C_8  and  C_9 
REMARK    3  A    between atoms: C_10  and  C_11 
REMARK    4  A    between atoms: C_14  and  O_15 
ROOT
HETATM    1  C   UNL     1       8.222  29.453  57.360  1.00  0.00     0.125 C 
HETATM    2  C   UNL     1       7.226  30.028  58.405  1.00  0.00     0.160 C 
HETATM    3  N   UNL     1       7.778  31.151  59.152  1.00  0.00    -0.231 N 
HETATM    4  C   UNL     1       9.024  31.676  58.964  1.00  0.00     0.200 A 
HETATM    5  N   UNL     1       9.861  31.157  58.043  1.00  0.00    -0.256 NA
HETATM    6  C   UNL     1       9.695  29.728  57.750  1.00  0.00     0.074 C 
HETATM    7  C   UNL     1      10.658  29.367  56.615  1.00  0.00     0.027 C 
HETATM    8  N   UNL     1       7.156  31.731  60.196  1.00  0.00    -0.162 NA
HETATM    9  C   UNL     1       8.058  32.659  60.536  1.00  0.00     0.258 A 
HETATM   10  N   UNL     1       9.216  32.657  59.806  1.00  0.00    -0.210 NA
HETATM   11  H   UNL     1      10.829  31.456  58.162  1.00  0.00     0.131 HD
ENDROOT
BRANCH   1  12
HETATM   12  C   UNL     1       7.990  27.952  57.261  1.00  0.00     0.230 C 
HETATM   13  N   UNL     1       7.810  27.499  55.966  1.00  0.00    -0.326 N 
HETATM   14  H   UNL     1       7.469  28.175  55.291  1.00  0.00     0.169 HD
HETATM   15  O   UNL     1       7.914  27.260  58.273  1.00  0.00    -0.273 OA
BRANCH  13  16
HETATM   16  C   UNL     1       7.648  26.144  55.592  1.00  0.00     0.040 A 
HETATM   17  C   UNL     1       6.713  25.674  54.653  1.00  0.00    -0.035 A 
HETATM   18  C   UNL     1       6.701  24.300  54.333  1.00  0.00     0.015 A 
HETATM   19  C   UNL     1       5.671  26.531  53.989  1.00  0.00     0.050 C 
HETATM   20  C   UNL     1       7.544  23.388  54.977  1.00  0.00    -0.061 A 
HETATM   21  C   UNL     1       7.531  21.937  54.601  1.00  0.00     0.048 C 
HETATM   22  C   UNL     1       8.424  23.860  55.951  1.00  0.00     0.009 A 
HETATM   23  C   UNL     1       8.463  25.220  56.267  1.00  0.00     0.030 A 
ENDBRANCH  13  16
ENDBRANCH   1  12
BRANCH   2  24
HETATM   24  C   UNL     1       5.915  30.446  57.737  1.00  0.00    -0.032 A 
HETATM   25  C   UNL     1       5.671  31.793  57.439  1.00  0.00     0.012 A 
HETATM   26  C   UNL     1       4.461  32.178  56.855  1.00  0.00     0.037 A 
HETATM   27  C   UNL     1       3.478  31.233  56.550  1.00  0.00     0.068 A 
HETATM   28  C   UNL     1       3.718  29.889  56.830  1.00  0.00     0.037 A 
HETATM   29  C   UNL     1       4.928  29.498  57.414  1.00  0.00     0.012 A 
BRANCH  27  30
HETATM   30  O   UNL     1       2.343  31.745  55.985  1.00  0.00    -0.356 OA
HETATM   31  C   UNL     1       2.454  32.242  54.657  1.00  0.00     0.210 C 
ENDBRANCH  27  30
ENDBRANCH   2  24
TORSDOF 4
ENDMDL
MODEL 4
REMARK VINA RESULT:      -8.7      2.002      6.340
REMARK  4 active torsions:
REMARK  status: ('A' for Active; 'I' for Inactive)
REMARK    1  A    between atoms: C_6  and  N_7 
REMARK       I    between atoms: N_7  and  C_8 
REMARK    2  A    between atoms: C_8  and  C_9 
REMARK    3  A    between atoms: C_10  and  C_11 
REMARK    4  A    between atoms: C_14  and  O_15 
ROOT
HETATM    1  C   UNL     1       5.252  28.314  55.227  1.00  0.00     0.125 C 
HETATM    2  C   UNL     1       6.763  27.957  55.146  1.00  0.00     0.160 C 
HETATM    3  N   UNL     1       7.540  28.551  56.226  1.00  0.00    -0.231 N 
HETATM    4  C   UNL     1       7.024  29.325  57.225  1.00  0.00     0.200 A 
HETATM    5  N   UNL     1       5.707  29.609  57.269  1.00  0.00    -0.256 NA
HETATM    6  C   UNL     1       5.010  29.646  55.978  1.00  0.00     0.074 C 
HETATM    7  C   UNL     1       3.521  29.876  56.255  1.00  0.00     0.027 C 
HETATM    8  N   UNL     1       8.885  28.492  56.298  1.00  0.00    -0.162 NA
HETATM    9  C   UNL     1       9.102  29.188  57.420  1.00  0.00     0.258 A 
HETATM   10  N   UNL     1       7.988  29.715  58.017  1.00  0.00    -0.210 NA
HETATM   11  H   UNL     1       5.481  30.382  57.895  1.00  0.00     0.131 HD
ENDROOT
BRANCH   1  12
HETATM   12  C   UNL     1       4.716  28.420  53.806  1.00  0.00     0.230 C 
HETATM   13  N   UNL     1       5.675  28.769  52.871  1.00  0.00    -0.326 N 
HETATM   14  H   UNL     1       6.482  29.278  53.216  1.00  0.00     0.169 HD
HETATM   15  O   UNL     1       3.520  28.263  53.574  1.00  0.00    -0.273 OA
BRANCH  13  16
HETATM   16  C   UNL     1       5.456  28.865  51.477  1.00  0.00     0.040 A 
HETATM   17  C   UNL     1       5.314  27.769  50.607  1.00  0.00    -0.035 A 
HETATM   18  C   UNL     1       5.041  28.013  49.245  1.00  0.00     0.015 A 
HETATM   19  C   UNL     1       5.488  26.332  51.015  1.00  0.00     0.050 C 
HETATM   20  C   UNL     1       4.978  29.311  48.729  1.00  0.00    -0.061 A 
HETATM   21  C   UNL     1       4.659  29.545  47.282  1.00  0.00     0.048 C 
HETATM   22  C   UNL     1       5.180  30.388  49.592  1.00  0.00     0.009 A 
HETATM   23  C   UNL     1       5.433  30.166  50.948  1.00  0.00     0.030 A 
ENDBRANCH  13  16
ENDBRANCH   1  12
BRANCH   2  24
HETATM   24  C   UNL     1       6.965  26.441  55.137  1.00  0.00    -0.032 A 
HETATM   25  C   UNL     1       7.513  25.807  54.014  1.00  0.00     0.012 A 
HETATM   26  C   UNL     1       7.672  24.419  53.994  1.00  0.00     0.037 A 
HETATM   27  C   UNL     1       7.296  23.638  55.091  1.00  0.00     0.068 A 
HETATM   28  C   UNL     1       6.764  24.261  56.217  1.00  0.00     0.037 A 
HETATM   29  C   UNL     1       6.604  25.651  56.242  1.00  0.00     0.012 A 
BRANCH  27  30
HETATM   30  O   UNL     1       7.502  22.295  54.938  1.00  0.00    -0.356 OA
HETATM   31  C   UNL     1       7.901  21.848  53.648  1.00  0.00     0.210 C 
ENDBRANCH  27  30
ENDBRANCH   2  24
TORSDOF 4
ENDMDL
MODEL 5
REMARK VINA RESULT:      -8.6      2.321      4.740
REMARK  4 active torsions:
REMARK  status: ('A' for Active; 'I' for Inactive)
REMARK    1  A    between atoms: C_6  and  N_7 
REMARK       I    between atoms: N_7  and  C_8 
REMARK    2  A    between atoms: C_8  and  C_9 
REMARK    3  A    between atoms: C_10  and  C_11 
REMARK    4  A    between atoms: C_14  and  O_15 
ROOT
HETATM    1  C   UNL     1       5.557  26.376  52.592  1.00  0.00     0.125 C 
HETATM    2  C   UNL     1       6.036  27.852  52.662  1.00  0.00     0.160 C 
HETATM    3  N   UNL     1       5.511  28.667  51.574  1.00  0.00    -0.231 N 
HETATM    4  C   UNL     1       4.672  28.216  50.596  1.00  0.00     0.200 A 
HETATM    5  N   UNL     1       4.270  26.930  50.569  1.00  0.00    -0.256 NA
HETATM    6  C   UNL     1       5.197  25.950  51.148  1.00  0.00     0.074 C 
HETATM    7  C   UNL     1       4.511  24.580  51.116  1.00  0.00     0.027 C 
HETATM    8  N   UNL     1       5.887  29.941  51.347  1.00  0.00    -0.162 NA
HETATM    9  C   UNL     1       5.164  30.220  50.256  1.00  0.00     0.258 A 
HETATM   10  N   UNL     1       4.408  29.190  49.765  1.00  0.00    -0.210 NA
HETATM   11  H   UNL     1       3.861  26.653  49.677  1.00  0.00     0.131 HD
ENDROOT
BRANCH   1  12
HETATM   12  C   UNL     1       6.674  25.490  53.125  1.00  0.00     0.230 C 
HETATM   13  N   UNL     1       6.247  24.538  54.035  1.00  0.00    -0.326 N 
HETATM   14  H   UNL     1       5.392  24.744  54.540  1.00  0.00     0.169 HD
HETATM   15  O   UNL     1       7.841  25.684  52.794  1.00  0.00    -0.273 OA
BRANCH  13  16
HETATM   16  C   UNL     1       7.069  23.548  54.623  1.00  0.00     0.040 A 
HETATM   17  C   UNL     1       7.529  23.569  55.952  1.00  0.00    -0.035 A 
HETATM   18  C   UNL     1       8.295  22.483  56.424  1.00  0.00     0.015 A 
HETATM   19  C   UNL     1       7.306  24.707  56.911  1.00  0.00     0.050 C 
HETATM   20  C   UNL     1       8.666  21.427  55.586  1.00  0.00    -0.061 A 
HETATM   21  C   UNL     1       9.459  20.270  56.119  1.00  0.00     0.048 C 
HETATM   22  C   UNL     1       8.254  21.449  54.254  1.00  0.00     0.009 A 
HETATM   23  C   UNL     1       7.478  22.507  53.774  1.00  0.00     0.030 A 
ENDBRANCH  13  16
ENDBRANCH   1  12
BRANCH   2  24
HETATM   24  C   UNL     1       5.667  28.483  54.005  1.00  0.00    -0.032 A 
HETATM   25  C   UNL     1       6.651  28.703  54.978  1.00  0.00     0.012 A 
HETATM   26  C   UNL     1       6.308  29.254  56.216  1.00  0.00     0.037 A 
HETATM   27  C   UNL     1       4.986  29.601  56.505  1.00  0.00     0.068 A 
HETATM   28  C   UNL     1       4.003  29.399  55.539  1.00  0.00     0.037 A 
HETATM   29  C   UNL     1       4.341  28.849  54.298  1.00  0.00     0.012 A 
BRANCH  27  30
HETATM   30  O   UNL     1       4.789  30.126  57.753  1.00  0.00    -0.356 OA
HETATM   31  C   UNL     1       3.581  30.846  57.964  1.00  0.00     0.210 C 
ENDBRANCH  27  30
ENDBRANCH   2  24
TORSDOF 4
ENDMDL
MODEL 6
REMARK VINA RESULT:      -8.3      2.523      7.505
REMARK  4 active torsions:
REMARK  status: ('A' for Active; 'I' for Inactive)
REMARK    1  A    between atoms: C_6  and  N_7 
REMARK       I    between atoms: N_7  and  C_8 
REMARK    2  A    between atoms: C_8  and  C_9 
REMARK    3  A    between atoms: C_10  and  C_11 
REMARK    4  A    between atoms: C_14  and  O_15 
ROOT
HETATM    1  C   UNL     1       6.900  25.599  53.826  1.00  0.00     0.125 C 
HETATM    2  C   UNL     1       6.629  25.309  55.328  1.00  0.00     0.160 C 
HETATM    3  N   UNL     1       7.452  24.226  55.851  1.00  0.00    -0.231 N 
HETATM    4  C   UNL     1       8.383  23.535  55.129  1.00  0.00     0.200 A 
HETATM    5  N   UNL     1       8.598  23.818  53.829  1.00  0.00    -0.256 NA
HETATM    6  C   UNL     1       7.452  24.357  53.086  1.00  0.00     0.074 C 
HETATM    7  C   UNL     1       7.932  24.707  51.674  1.00  0.00     0.027 C 
HETATM    8  N   UNL     1       7.308  23.707  57.086  1.00  0.00    -0.162 NA
HETATM    9  C   UNL     1       8.249  22.756  57.065  1.00  0.00     0.258 A 
HETATM   10  N   UNL     1       8.929  22.619  55.885  1.00  0.00    -0.210 NA
HETATM   11  H   UNL     1       9.118  23.092  53.337  1.00  0.00     0.131 HD
ENDROOT
BRANCH   1  12
HETATM   12  C   UNL     1       5.591  26.038  53.186  1.00  0.00     0.230 C 
HETATM   13  N   UNL     1       5.681  27.234  52.494  1.00  0.00    -0.326 N 
HETATM   14  H   UNL     1       6.418  27.870  52.778  1.00  0.00     0.169 HD
HETATM   15  O   UNL     1       4.562  25.389  53.351  1.00  0.00    -0.273 OA
BRANCH  13  16
HETATM   16  C   UNL     1       4.632  27.826  51.751  1.00  0.00     0.040 A 
HETATM   17  C   UNL     1       3.683  28.724  52.272  1.00  0.00    -0.035 A 
HETATM   18  C   UNL     1       2.726  29.283  51.400  1.00  0.00     0.015 A 
HETATM   19  C   UNL     1       3.578  29.101  53.724  1.00  0.00     0.050 C 
HETATM   20  C   UNL     1       2.652  28.912  50.054  1.00  0.00    -0.061 A 
HETATM   21  C   UNL     1       1.642  29.541  49.141  1.00  0.00     0.048 C 
HETATM   22  C   UNL     1       3.562  27.975  49.564  1.00  0.00     0.009 A 
HETATM   23  C   UNL     1       4.530  27.425  50.409  1.00  0.00     0.030 A 
ENDBRANCH  13  16
ENDBRANCH   1  12
BRANCH   2  24
HETATM   24  C   UNL     1       6.834  26.567  56.173  1.00  0.00    -0.032 A 
HETATM   25  C   UNL     1       5.734  27.333  56.581  1.00  0.00     0.012 A 
HETATM   26  C   UNL     1       5.923  28.498  57.329  1.00  0.00     0.037 A 
HETATM   27  C   UNL     1       7.206  28.919  57.689  1.00  0.00     0.068 A 
HETATM   28  C   UNL     1       8.305  28.157  57.299  1.00  0.00     0.037 A 
HETATM   29  C   UNL     1       8.121  26.989  56.552  1.00  0.00     0.012 A 
BRANCH  27  30
HETATM   30  O   UNL     1       7.249  30.076  58.417  1.00  0.00    -0.356 OA
HETATM   31  C   UNL     1       8.346  30.235  59.308  1.00  0.00     0.210 C 
ENDBRANCH  27  30
ENDBRANCH   2  24
TORSDOF 4
ENDMDL
MODEL 7
REMARK VINA RESULT:      -8.3      2.953      7.023
REMARK  4 active torsions:
REMARK  status: ('A' for Active; 'I' for Inactive)
REMARK    1  A    between atoms: C_6  and  N_7 
REMARK       I    between atoms: N_7  and  C_8 
REMARK    2  A    between atoms: C_8  and  C_9 
REMARK    3  A    between atoms: C_10  and  C_11 
REMARK    4  A    between atoms: C_14  and  O_15 
ROOT
HETATM    1  C   UNL     1       5.110  28.644  51.386  1.00  0.00     0.125 C 
HETATM    2  C   UNL     1       4.550  27.227  51.078  1.00  0.00     0.160 C 
HETATM    3  N   UNL     1       4.513  26.933  49.651  1.00  0.00    -0.231 N 
HETATM    4  C   UNL     1       4.936  27.782  48.669  1.00  0.00     0.200 A 
HETATM    5  N   UNL     1       5.423  29.002  48.972  1.00  0.00    -0.256 NA
HETATM    6  C   UNL     1       4.907  29.618  50.200  1.00  0.00     0.074 C 
HETATM    7  C   UNL     1       5.659  30.935  50.416  1.00  0.00     0.027 C 
HETATM    8  N   UNL     1       3.951  25.825  49.131  1.00  0.00    -0.162 NA
HETATM    9  C   UNL     1       4.148  26.038  47.825  1.00  0.00     0.258 A 
HETATM   10  N   UNL     1       4.748  27.225  47.501  1.00  0.00    -0.210 NA
HETATM   11  H   UNL     1       5.469  29.629  48.169  1.00  0.00     0.131 HD
ENDROOT
BRANCH   1  12
HETATM   12  C   UNL     1       4.392  29.178  52.618  1.00  0.00     0.230 C 
HETATM   13  N   UNL     1       5.230  29.414  53.694  1.00  0.00    -0.326 N 
HETATM   14  H   UNL     1       6.095  28.884  53.722  1.00  0.00     0.169 HD
HETATM   15  O   UNL     1       3.172  29.310  52.625  1.00  0.00    -0.273 OA
BRANCH  13  16
HETATM   16  C   UNL     1       4.830  29.977  54.929  1.00  0.00     0.040 A 
HETATM   17  C   UNL     1       4.656  29.255  56.123  1.00  0.00    -0.035 A 
HETATM   18  C   UNL     1       4.310  29.956  57.297  1.00  0.00     0.015 A 
HETATM   19  C   UNL     1       4.761  27.759  56.235  1.00  0.00     0.050 C 
HETATM   20  C   UNL     1       4.068  31.333  57.287  1.00  0.00    -0.061 A 
HETATM   21  C   UNL     1       3.728  32.060  58.554  1.00  0.00     0.048 C 
HETATM   22  C   UNL     1       4.186  32.027  56.082  1.00  0.00     0.009 A 
HETATM   23  C   UNL     1       4.546  31.352  54.913  1.00  0.00     0.030 A 
ENDBRANCH  13  16
ENDBRANCH   1  12
BRANCH   2  24
HETATM   24  C   UNL     1       5.356  26.151  51.807  1.00  0.00    -0.032 A 
HETATM   25  C   UNL     1       4.828  25.515  52.937  1.00  0.00     0.012 A 
HETATM   26  C   UNL     1       5.576  24.552  53.620  1.00  0.00     0.037 A 
HETATM   27  C   UNL     1       6.858  24.201  53.187  1.00  0.00     0.068 A 
HETATM   28  C   UNL     1       7.386  24.819  52.056  1.00  0.00     0.037 A 
HETATM   29  C   UNL     1       6.640  25.782  51.369  1.00  0.00     0.012 A 
BRANCH  27  30
HETATM   30  O   UNL     1       7.481  23.249  53.947  1.00  0.00    -0.356 OA
HETATM   31  C   UNL     1       8.022  22.129  53.258  1.00  0.00     0.210 C 
ENDBRANCH  27  30
ENDBRANCH   2  24
TORSDOF 4
ENDMDL
MODEL 8
REMARK VINA RESULT:      -8.2      2.131      7.998
REMARK  4 active torsions:
REMARK  status: ('A' for Active; 'I' for Inactive)
REMARK    1  A    between atoms: C_6  and  N_7 
REMARK       I    between atoms: N_7  and  C_8 
REMARK    2  A    between atoms: C_8  and  C_9 
REMARK    3  A    between atoms: C_10  and  C_11 
REMARK    4  A    between atoms: C_14  and  O_15 
ROOT
HETATM    1  C   UNL     1       5.773  27.552  52.971  1.00  0.00     0.125 C 
HETATM    2  C   UNL     1       6.110  26.665  54.201  1.00  0.00     0.160 C 
HETATM    3  N   UNL     1       6.687  25.380  53.828  1.00  0.00    -0.231 N 
HETATM    4  C   UNL     1       6.934  24.978  52.547  1.00  0.00     0.200 A 
HETATM    5  N   UNL     1       6.636  25.776  51.502  1.00  0.00    -0.256 NA
HETATM    6  C   UNL     1       5.518  26.708  51.699  1.00  0.00     0.074 C 
HETATM    7  C   UNL     1       5.415  27.586  50.448  1.00  0.00     0.027 C 
HETATM    8  N   UNL     1       6.941  24.391  54.708  1.00  0.00    -0.162 NA
HETATM    9  C   UNL     1       7.421  23.449  53.888  1.00  0.00     0.258 A 
HETATM   10  N   UNL     1       7.433  23.769  52.557  1.00  0.00    -0.210 NA
HETATM   11  H   UNL     1       6.628  25.286  50.608  1.00  0.00     0.131 HD
ENDROOT
BRANCH   1  12
HETATM   12  C   UNL     1       4.531  28.367  53.302  1.00  0.00     0.230 C 
HETATM   13  N   UNL     1       4.803  29.668  53.689  1.00  0.00    -0.326 N 
HETATM   14  H   UNL     1       5.722  29.842  54.082  1.00  0.00     0.169 HD
HETATM   15  O   UNL     1       3.416  27.853  53.274  1.00  0.00    -0.273 OA
BRANCH  13  16
HETATM   16  C   UNL     1       3.829  30.652  53.981  1.00  0.00     0.040 A 
HETATM   17  C   UNL     1       3.283  30.892  55.255  1.00  0.00    -0.035 A 
HETATM   18  C   UNL     1       2.361  31.947  55.412  1.00  0.00     0.015 A 
HETATM   19  C   UNL     1       3.574  30.060  56.474  1.00  0.00     0.050 C 
HETATM   20  C   UNL     1       1.924  32.710  54.324  1.00  0.00    -0.061 A 
HETATM   21  C   UNL     1       0.963  33.844  54.522  1.00  0.00     0.048 C 
HETATM   22  C   UNL     1       2.429  32.422  53.056  1.00  0.00     0.009 A 
HETATM   23  C   UNL     1       3.358  31.393  52.885  1.00  0.00     0.030 A 
ENDBRANCH  13  16
ENDBRANCH   1  12
BRANCH   2  24
HETATM   24  C   UNL     1       7.051  27.395  55.159  1.00  0.00    -0.032 A 
HETATM   25  C   UNL     1       7.998  28.303  54.667  1.00  0.00     0.012 A 
HETATM   26  C   UNL     1       8.877  28.949  55.540  1.00  0.00     0.037 A 
HETATM   27  C   UNL     1       8.827  28.710  56.916  1.00  0.00     0.068 A 
HETATM   28  C   UNL     1       7.880  27.819  57.416  1.00  0.00     0.037 A 
HETATM   29  C   UNL     1       6.997  27.171  56.546  1.00  0.00     0.012 A 
BRANCH  27  30
HETATM   30  O   UNL     1       9.746  29.404  57.654  1.00  0.00    -0.356 OA
HETATM   31  C   UNL     1      10.985  29.701  57.023  1.00  0.00     0.210 C 
ENDBRANCH  27  30
ENDBRANCH   2  24
TORSDOF 4
ENDMDL
MODEL 9
REMARK VINA RESULT:      -8.2      2.972      8.351
REMARK  4 active torsions:
REMARK  status: ('A' for Active; 'I' for Inactive)
REMARK    1  A    between atoms: C_6  and  N_7 
REMARK       I    between atoms: N_7  and  C_8 
REMARK    2  A    between atoms: C_8  and  C_9 
REMARK    3  A    between atoms: C_10  and  C_11 
REMARK    4  A    between atoms: C_14  and  O_15 
ROOT
HETATM    1  C   UNL     1       6.588  27.672  55.198  1.00  0.00     0.125 C 
HETATM    2  C   UNL     1       7.058  27.403  56.654  1.00  0.00     0.160 C 
HETATM    3  N   UNL     1       7.758  26.132  56.794  1.00  0.00    -0.231 N 
HETATM    4  C   UNL     1       8.006  25.261  55.772  1.00  0.00     0.200 A 
HETATM    5  N   UNL     1       7.590  25.530  54.519  1.00  0.00    -0.256 NA
HETATM    6  C   UNL     1       6.386  26.361  54.401  1.00  0.00     0.074 C 
HETATM    7  C   UNL     1       6.148  26.634  52.912  1.00  0.00     0.027 C 
HETATM    8  N   UNL     1       8.145  25.619  57.978  1.00  0.00    -0.162 NA
HETATM    9  C   UNL     1       8.697  24.468  57.580  1.00  0.00     0.258 A 
HETATM   10  N   UNL     1       8.631  24.211  56.237  1.00  0.00    -0.210 NA
HETATM   11  H   UNL     1       7.605  24.716  53.904  1.00  0.00     0.131 HD
ENDROOT
BRANCH   1  12
HETATM   12  C   UNL     1       5.277  28.443  55.259  1.00  0.00     0.230 C 
HETATM   13  N   UNL     1       5.407  29.791  54.973  1.00  0.00    -0.326 N 
HETATM   14  H   UNL     1       6.320  30.204  55.133  1.00  0.00     0.169 HD
HETATM   15  O   UNL     1       4.237  27.887  55.599  1.00  0.00    -0.273 OA
BRANCH  13  16
HETATM   16  C   UNL     1       4.338  30.714  54.892  1.00  0.00     0.040 A 
HETATM   17  C   UNL     1       3.747  31.360  55.992  1.00  0.00    -0.035 A 
HETATM   18  C   UNL     1       2.724  32.303  55.758  1.00  0.00     0.015 A 
HETATM   19  C   UNL     1       4.092  31.080  57.429  1.00  0.00     0.050 C 
HETATM   20  C   UNL     1       2.237  32.555  54.471  1.00  0.00    -0.061 A 
HETATM   21  C   UNL     1       1.168  33.582  54.246  1.00  0.00     0.048 C 
HETATM   22  C   UNL     1       2.792  31.863  53.395  1.00  0.00     0.009 A 
HETATM   23  C   UNL     1       3.819  30.939  53.606  1.00  0.00     0.030 A 
ENDBRANCH  13  16
ENDBRANCH   1  12
BRANCH   2  24
HETATM   24  C   UNL     1       7.946  28.540  57.161  1.00  0.00    -0.032 A 
HETATM   25  C   UNL     1       7.481  29.413  58.152  1.00  0.00     0.012 A 
HETATM   26  C   UNL     1       8.282  30.470  58.595  1.00  0.00     0.037 A 
HETATM   27  C   UNL     1       9.559  30.672  58.065  1.00  0.00     0.068 A 
HETATM   28  C   UNL     1      10.035  29.801  57.088  1.00  0.00     0.037 A 
HETATM   29  C   UNL     1       9.238  28.741  56.643  1.00  0.00     0.012 A 
BRANCH  27  30
HETATM   30  O   UNL     1      10.234  31.743  58.583  1.00  0.00    -0.356 OA
HETATM   31  C   UNL     1       9.793  32.231  59.845  1.00  0.00     0.210 C 
ENDBRANCH  27  30
ENDBRANCH   2  24
TORSDOF 4
ENDMDL
MODEL 10
REMARK VINA RESULT:      -8.0      2.105      2.794
REMARK  4 active torsions:
REMARK  status: ('A' for Active; 'I' for Inactive)
REMARK    1  A    between atoms: C_6  and  N_7 
REMARK       I    between atoms: N_7  and  C_8 
REMARK    2  A    between atoms: C_8  and  C_9 
REMARK    3  A    between atoms: C_10  and  C_11 
REMARK    4  A    between atoms: C_14  and  O_15 
ROOT
HETATM    1  C   UNL     1       6.804  28.875  55.184  1.00  0.00     0.125 C 
HETATM    2  C   UNL     1       5.262  28.809  55.367  1.00  0.00     0.160 C 
HETATM    3  N   UNL     1       4.792  29.623  56.481  1.00  0.00    -0.231 N 
HETATM    4  C   UNL     1       5.592  30.386  57.283  1.00  0.00     0.200 A 
HETATM    5  N   UNL     1       6.926  30.425  57.091  1.00  0.00    -0.256 NA
HETATM    6  C   UNL     1       7.531  29.223  56.506  1.00  0.00     0.074 C 
HETATM    7  C   UNL     1       9.018  29.511  56.275  1.00  0.00     0.027 C 
HETATM    8  N   UNL     1       3.517  29.627  56.917  1.00  0.00    -0.162 NA
HETATM    9  C   UNL     1       3.609  30.485  57.939  1.00  0.00     0.258 A 
HETATM   10  N   UNL     1       4.863  30.971  58.196  1.00  0.00    -0.210 NA
HETATM   11  H   UNL     1       7.436  30.814  57.884  1.00  0.00     0.131 HD
ENDROOT
BRANCH   1  12
HETATM   12  C   UNL     1       7.278  27.519  54.679  1.00  0.00     0.230 C 
HETATM   13  N   UNL     1       7.023  26.477  55.554  1.00  0.00    -0.326 N 
HETATM   14  H   UNL     1       6.926  26.719  56.534  1.00  0.00     0.169 HD
HETATM   15  O   UNL     1       7.883  27.422  53.616  1.00  0.00    -0.273 OA
BRANCH  13  16
HETATM   16  C   UNL     1       7.296  25.113  55.296  1.00  0.00     0.040 A 
HETATM   17  C   UNL     1       6.663  24.337  54.309  1.00  0.00    -0.035 A 
HETATM   18  C   UNL     1       7.077  23.002  54.124  1.00  0.00     0.015 A 
HETATM   19  C   UNL     1       5.520  24.815  53.455  1.00  0.00     0.050 C 
HETATM   20  C   UNL     1       8.046  22.412  54.941  1.00  0.00    -0.061 A 
HETATM   21  C   UNL     1       8.489  20.999  54.707  1.00  0.00     0.048 C 
HETATM   22  C   UNL     1       8.623  23.176  55.956  1.00  0.00     0.009 A 
HETATM   23  C   UNL     1       8.239  24.506  56.142  1.00  0.00     0.030 A 
ENDBRANCH  13  16
ENDBRANCH   1  12
BRANCH   2  24
HETATM   24  C   UNL     1       4.542  29.225  54.084  1.00  0.00    -0.032 A 
HETATM   25  C   UNL     1       4.375  30.580  53.773  1.00  0.00     0.012 A 
HETATM   26  C   UNL     1       3.692  30.960  52.614  1.00  0.00     0.037 A 
HETATM   27  C   UNL     1       3.170  30.000  51.743  1.00  0.00     0.068 A 
HETATM   28  C   UNL     1       3.343  28.650  52.037  1.00  0.00     0.037 A 
HETATM   29  C   UNL     1       4.027  28.265  53.195  1.00  0.00     0.012 A 
BRANCH  27  30
HETATM   30  O   UNL     1       2.522  30.508  50.650  1.00  0.00    -0.356 OA
HETATM   31  C   UNL     1       2.424  29.662  49.511  1.00  0.00     0.210 C 
ENDBRANCH  27  30
ENDBRANCH   2  24
TORSDOF 4
ENDMDL
