MODEL 1
REMARK VINA RESULT:      -9.6      0.000      0.000
REMARK  7 active torsions:
REMARK  status: ('A' for Active; 'I' for Inactive)
REMARK    1  A    between atoms: C_2  and  C_3 
REMARK    2  A    between atoms: C_3  and  N_4 
REMARK       I    between atoms: N_4  and  C_5 
REMARK    3  A    between atoms: C_5  and  C_6 
REMARK    4  A    between atoms: C_8  and  N_9 
REMARK       I    between atoms: N_9  and  C_10 
REMARK    5  A    between atoms: C_10  and  C_11 
REMARK    6  A    between atoms: C_13  and  O_14 
REMARK    7  A    between atoms: O_14  and  C_15 
ROOT
HETATM    1  N   UNL     1       8.358  27.994  56.544  1.00  0.00    -0.323 N 
HETATM    2  C   UNL     1       7.962  26.771  57.058  1.00  0.00     0.256 C 
HETATM    3  O   UNL     1       8.073  26.427  58.233  1.00  0.00    -0.267 OA
HETATM    4  H   UNL     1       8.412  28.100  55.541  1.00  0.00     0.169 HD
ENDROOT
BRANCH   1   5
HETATM    5  C   UNL     1       8.801  29.110  57.295  1.00  0.00     0.035 A 
HETATM    6  C   UNL     1       8.031  29.717  58.290  1.00  0.00     0.046 A 
HETATM    7  C   UNL     1       8.528  30.806  59.021  1.00  0.00     0.034 A 
HETATM    8  C   UNL     1       9.787  31.329  58.715  1.00  0.00     0.017 A 
HETATM    9  C   UNL     1      10.552  30.748  57.703  1.00  0.00     0.003 A 
HETATM   10  C   UNL     1      10.063  29.642  57.001  1.00  0.00     0.029 A 
BRANCH   7  11
HETATM   11  C   UNL     1       7.726  31.439  60.108  1.00  0.00     0.251 C 
HETATM   12  N   UNL     1       7.843  30.866  61.359  1.00  0.00    -0.357 N 
HETATM   13  H   UNL     1       8.611  30.228  61.527  1.00  0.00     0.162 HD
HETATM   14  O   UNL     1       7.037  32.424  59.874  1.00  0.00    -0.268 OA
BRANCH  12  15
HETATM   15  C   UNL     1       7.174  31.425  62.514  1.00  0.00     0.122 C 
BRANCH  15  16
HETATM   16  C   UNL     1       8.073  32.390  63.279  1.00  0.00     0.015 C 
HETATM   17  C   UNL     1       7.326  33.154  64.363  1.00  0.00     0.006 C 
ENDBRANCH  15  16
ENDBRANCH  12  15
ENDBRANCH   7  11
ENDBRANCH   1   5
BRANCH   2  18
HETATM   18  C   UNL     1       7.372  25.781  56.105  1.00  0.00     0.037 A 
HETATM   19  C   UNL     1       7.559  24.403  56.201  1.00  0.00     0.075 A 
HETATM   20  C   UNL     1       7.018  23.608  55.205  1.00  0.00     0.165 A 
HETATM   21  N   UNL     1       6.317  24.076  54.154  1.00  0.00    -0.237 NA
HETATM   22  C   UNL     1       6.140  25.408  54.087  1.00  0.00     0.120 A 
HETATM   23  C   UNL     1       6.641  26.290  55.024  1.00  0.00     0.036 A 
BRANCH  20  24
HETATM   24  O   UNL     1       7.215  22.244  55.316  1.00  0.00    -0.329 OA
BRANCH  24  25
HETATM   25  C   UNL     1       8.508  21.761  54.879  1.00  0.00     0.130 C 
HETATM   26  C   UNL     1       8.893  21.952  53.390  1.00  0.00     0.032 C 
HETATM   27  C   UNL     1       8.388  20.526  53.122  1.00  0.00     0.005 C 
HETATM   28  C   UNL     1       8.574  20.235  54.620  1.00  0.00     0.032 C 
ENDBRANCH  24  25
ENDBRANCH  20  24
ENDBRANCH   2  18
TORSDOF 7
ENDMDL
MODEL 2
REMARK VINA RESULT:      -9.2      1.653      9.461
REMARK  7 active torsions:
REMARK  status: ('A' for Active; 'I' for Inactive)
REMARK    1  A    between atoms: C_2  and  C_3 
REMARK    2  A    between atoms: C_3  and  N_4 
REMARK       I    between atoms: N_4  and  C_5 
REMARK    3  A    between atoms: C_5  and  C_6 
REMARK    4  A    between atoms: C_8  and  N_9 
REMARK       I    between atoms: N_9  and  C_10 
REMARK    5  A    between atoms: C_10  and  C_11 
REMARK    6  A    between atoms: C_13  and  O_14 
REMARK    7  A    between atoms: O_14  and  C_15 
ROOT
HETATM    1  N   UNL     1       7.720  27.874  55.751  1.00  0.00    -0.323 N 
HETATM    2  C   UNL     1       8.183  27.876  57.057  1.00  0.00     0.256 C 
HETATM    3  O   UNL     1       8.011  26.972  57.871  1.00  0.00    -0.267 OA
HETATM    4  H   UNL     1       7.736  28.740  55.233  1.00  0.00     0.169 HD
ENDROOT
BRANCH   1   5
HETATM    5  C   UNL     1       7.119  26.779  55.082  1.00  0.00     0.035 A 
HETATM    6  C   UNL     1       7.782  25.575  54.837  1.00  0.00     0.046 A 
HETATM    7  C   UNL     1       7.132  24.514  54.191  1.00  0.00     0.034 A 
HETATM    8  C   UNL     1       5.822  24.679  53.735  1.00  0.00     0.017 A 
HETATM    9  C   UNL     1       5.161  25.889  53.949  1.00  0.00     0.003 A 
HETATM   10  C   UNL     1       5.805  26.931  54.623  1.00  0.00     0.029 A 
BRANCH   7  11
HETATM   11  C   UNL     1       7.822  23.213  53.955  1.00  0.00     0.251 C 
HETATM   12  N   UNL     1       8.748  22.837  54.908  1.00  0.00    -0.357 N 
HETATM   13  H   UNL     1       8.744  23.316  55.800  1.00  0.00     0.162 HD
HETATM   14  O   UNL     1       7.538  22.530  52.978  1.00  0.00    -0.268 OA
BRANCH  12  15
HETATM   15  C   UNL     1       9.437  21.566  54.836  1.00  0.00     0.122 C 
BRANCH  15  16
HETATM   16  C   UNL     1       9.085  20.663  56.014  1.00  0.00     0.015 C 
HETATM   17  C   UNL     1       7.585  20.459  56.170  1.00  0.00     0.006 C 
ENDBRANCH  15  16
ENDBRANCH  12  15
ENDBRANCH   7  11
ENDBRANCH   1   5
BRANCH   2  18
HETATM   18  C   UNL     1       8.935  29.084  57.519  1.00  0.00     0.037 A 
HETATM   19  C   UNL     1       8.458  29.975  58.479  1.00  0.00     0.075 A 
HETATM   20  C   UNL     1       9.225  31.094  58.756  1.00  0.00     0.165 A 
HETATM   21  N   UNL     1      10.403  31.375  58.167  1.00  0.00    -0.237 NA
HETATM   22  C   UNL     1      10.849  30.495  57.252  1.00  0.00     0.120 A 
HETATM   23  C   UNL     1      10.161  29.352  56.897  1.00  0.00     0.036 A 
BRANCH  20  24
HETATM   24  O   UNL     1       8.735  31.968  59.710  1.00  0.00    -0.329 OA
BRANCH  24  25
HETATM   25  C   UNL     1       9.406  31.931  60.993  1.00  0.00     0.130 C 
HETATM   26  C   UNL     1       9.563  30.559  61.695  1.00  0.00     0.032 C 
HETATM   27  C   UNL     1       8.286  30.869  62.491  1.00  0.00     0.005 C 
HETATM   28  C   UNL     1       8.525  32.359  62.194  1.00  0.00     0.032 C 
ENDBRANCH  24  25
ENDBRANCH  20  24
ENDBRANCH   2  18
TORSDOF 7
ENDMDL
MODEL 3
REMARK VINA RESULT:      -8.6      1.378      9.806
REMARK  7 active torsions:
REMARK  status: ('A' for Active; 'I' for Inactive)
REMARK    1  A    between atoms: C_2  and  C_3 
REMARK    2  A    between atoms: C_3  and  N_4 
REMARK       I    between atoms: N_4  and  C_5 
REMARK    3  A    between atoms: C_5  and  C_6 
REMARK    4  A    between atoms: C_8  and  N_9 
REMARK       I    between atoms: N_9  and  C_10 
REMARK    5  A    between atoms: C_10  and  C_11 
REMARK    6  A    between atoms: C_13  and  O_14 
REMARK    7  A    between atoms: O_14  and  C_15 
ROOT
HETATM    1  N   UNL     1       7.788  28.000  57.488  1.00  0.00    -0.323 N 
HETATM    2  C   UNL     1       8.934  28.777  57.445  1.00  0.00     0.256 C 
HETATM    3  O   UNL     1       9.940  28.519  56.788  1.00  0.00    -0.267 OA
HETATM    4  H   UNL     1       7.105  28.189  58.207  1.00  0.00     0.169 HD
ENDROOT
BRANCH   1   5
HETATM    5  C   UNL     1       7.512  26.876  56.671  1.00  0.00     0.035 A 
HETATM    6  C   UNL     1       7.994  25.594  56.944  1.00  0.00     0.046 A 
HETATM    7  C   UNL     1       7.670  24.511  56.115  1.00  0.00     0.034 A 
HETATM    8  C   UNL     1       6.902  24.724  54.967  1.00  0.00     0.017 A 
HETATM    9  C   UNL     1       6.440  26.006  54.669  1.00  0.00     0.003 A 
HETATM   10  C   UNL     1       6.740  27.075  55.519  1.00  0.00     0.029 A 
BRANCH   7  11
HETATM   11  C   UNL     1       8.152  23.133  56.418  1.00  0.00     0.251 C 
HETATM   12  N   UNL     1       8.268  22.281  55.337  1.00  0.00    -0.357 N 
HETATM   13  H   UNL     1       8.253  22.678  54.406  1.00  0.00     0.162 HD
HETATM   14  O   UNL     1       8.447  22.819  57.564  1.00  0.00    -0.268 OA
BRANCH  12  15
HETATM   15  C   UNL     1       8.791  20.939  55.482  1.00  0.00     0.122 C 
BRANCH  15  16
HETATM   16  C   UNL     1       8.780  20.179  54.160  1.00  0.00     0.015 C 
HETATM   17  C   UNL     1       7.854  20.809  53.129  1.00  0.00     0.006 C 
ENDBRANCH  15  16
ENDBRANCH  12  15
ENDBRANCH   7  11
ENDBRANCH   1   5
BRANCH   2  18
HETATM   18  C   UNL     1       8.957  30.018  58.280  1.00  0.00     0.037 A 
HETATM   19  C   UNL     1       7.915  30.411  59.117  1.00  0.00     0.075 A 
HETATM   20  C   UNL     1       8.038  31.624  59.773  1.00  0.00     0.165 A 
HETATM   21  N   UNL     1       9.100  32.445  59.663  1.00  0.00    -0.237 NA
HETATM   22  C   UNL     1      10.099  32.040  58.858  1.00  0.00     0.120 A 
HETATM   23  C   UNL     1      10.075  30.853  58.154  1.00  0.00     0.036 A 
BRANCH  20  24
HETATM   24  O   UNL     1       6.993  31.998  60.598  1.00  0.00    -0.329 OA
BRANCH  24  25
HETATM   25  C   UNL     1       7.007  31.419  61.926  1.00  0.00     0.130 C 
HETATM   26  C   UNL     1       6.466  32.273  63.100  1.00  0.00     0.032 C 
HETATM   27  C   UNL     1       7.910  32.709  63.391  1.00  0.00     0.005 C 
HETATM   28  C   UNL     1       8.385  31.458  62.634  1.00  0.00     0.032 C 
ENDBRANCH  24  25
ENDBRANCH  20  24
ENDBRANCH   2  18
TORSDOF 7
ENDMDL
MODEL 4
REMARK VINA RESULT:      -8.6      1.696      2.097
REMARK  7 active torsions:
REMARK  status: ('A' for Active; 'I' for Inactive)
REMARK    1  A    between atoms: C_2  and  C_3 
REMARK    2  A    between atoms: C_3  and  N_4 
REMARK       I    between atoms: N_4  and  C_5 
REMARK    3  A    between atoms: C_5  and  C_6 
REMARK    4  A    between atoms: C_8  and  N_9 
REMARK       I    between atoms: N_9  and  C_10 
REMARK    5  A    between atoms: C_10  and  C_11 
REMARK    6  A    between atoms: C_13  and  O_14 
REMARK    7  A    between atoms: O_14  and  C_15 
ROOT
HETATM    1  N   UNL     1       7.920  27.973  56.225  1.00  0.00    -0.323 N 
HETATM    2  C   UNL     1       7.780  27.816  54.856  1.00  0.00     0.256 C 
HETATM    3  O   UNL     1       8.208  28.594  54.007  1.00  0.00    -0.267 OA
HETATM    4  H   UNL     1       7.363  27.393  56.836  1.00  0.00     0.169 HD
ENDROOT
BRANCH   1   5
HETATM    5  C   UNL     1       8.710  28.953  56.875  1.00  0.00     0.035 A 
HETATM    6  C   UNL     1       8.192  29.862  57.801  1.00  0.00     0.046 A 
HETATM    7  C   UNL     1       9.023  30.797  58.434  1.00  0.00     0.034 A 
HETATM    8  C   UNL     1      10.377  30.860  58.096  1.00  0.00     0.017 A 
HETATM    9  C   UNL     1      10.898  29.976  57.151  1.00  0.00     0.003 A 
HETATM   10  C   UNL     1      10.069  29.025  56.548  1.00  0.00     0.029 A 
BRANCH   7  11
HETATM   11  C   UNL     1       8.485  31.749  59.448  1.00  0.00     0.251 C 
HETATM   12  N   UNL     1       7.299  31.382  60.053  1.00  0.00    -0.357 N 
HETATM   13  H   UNL     1       6.989  30.422  59.965  1.00  0.00     0.162 HD
HETATM   14  O   UNL     1       9.099  32.772  59.723  1.00  0.00    -0.268 OA
BRANCH  12  15
HETATM   15  C   UNL     1       6.706  32.181  61.104  1.00  0.00     0.122 C 
BRANCH  15  16
HETATM   16  C   UNL     1       5.413  32.850  60.647  1.00  0.00     0.015 C 
HETATM   17  C   UNL     1       4.827  32.204  59.400  1.00  0.00     0.006 C 
ENDBRANCH  15  16
ENDBRANCH  12  15
ENDBRANCH   7  11
ENDBRANCH   1   5
BRANCH   2  18
HETATM   18  C   UNL     1       7.030  26.615  54.373  1.00  0.00     0.037 A 
HETATM   19  C   UNL     1       7.385  25.303  54.678  1.00  0.00     0.075 A 
HETATM   20  C   UNL     1       6.648  24.284  54.099  1.00  0.00     0.165 A 
HETATM   21  N   UNL     1       5.606  24.477  53.267  1.00  0.00    -0.237 NA
HETATM   22  C   UNL     1       5.274  25.752  52.995  1.00  0.00     0.120 A 
HETATM   23  C   UNL     1       5.946  26.840  53.515  1.00  0.00     0.036 A 
BRANCH  20  24
HETATM   24  O   UNL     1       7.015  22.989  54.413  1.00  0.00    -0.329 OA
BRANCH  24  25
HETATM   25  C   UNL     1       8.126  22.452  53.652  1.00  0.00     0.130 C 
HETATM   26  C   UNL     1       7.973  21.039  53.036  1.00  0.00     0.032 C 
HETATM   27  C   UNL     1       8.684  20.471  54.274  1.00  0.00     0.005 C 
HETATM   28  C   UNL     1       9.276  21.870  54.512  1.00  0.00     0.032 C 
ENDBRANCH  24  25
ENDBRANCH  20  24
ENDBRANCH   2  18
TORSDOF 7
ENDMDL
MODEL 5
REMARK VINA RESULT:      -8.6      1.762      2.237
REMARK  7 active torsions:
REMARK  status: ('A' for Active; 'I' for Inactive)
REMARK    1  A    between atoms: C_2  and  C_3 
REMARK    2  A    between atoms: C_3  and  N_4 
REMARK       I    between atoms: N_4  and  C_5 
REMARK    3  A    between atoms: C_5  and  C_6 
REMARK    4  A    between atoms: C_8  and  N_9 
REMARK       I    between atoms: N_9  and  C_10 
REMARK    5  A    between atoms: C_10  and  C_11 
REMARK    6  A    between atoms: C_13  and  O_14 
REMARK    7  A    between atoms: O_14  and  C_15 
ROOT
HETATM    1  N   UNL     1       7.215  28.461  55.854  1.00  0.00    -0.323 N 
HETATM    2  C   UNL     1       6.553  27.246  55.816  1.00  0.00     0.256 C 
HETATM    3  O   UNL     1       5.600  26.936  56.528  1.00  0.00    -0.267 OA
HETATM    4  H   UNL     1       8.103  28.541  55.379  1.00  0.00     0.169 HD
ENDROOT
BRANCH   1   5
HETATM    5  C   UNL     1       6.818  29.605  56.589  1.00  0.00     0.035 A 
HETATM    6  C   UNL     1       7.510  30.073  57.709  1.00  0.00     0.046 A 
HETATM    7  C   UNL     1       7.087  31.225  58.386  1.00  0.00     0.034 A 
HETATM    8  C   UNL     1       5.926  31.884  57.973  1.00  0.00     0.017 A 
HETATM    9  C   UNL     1       5.211  31.407  56.874  1.00  0.00     0.003 A 
HETATM   10  C   UNL     1       5.658  30.276  56.184  1.00  0.00     0.029 A 
BRANCH   7  11
HETATM   11  C   UNL     1       7.839  31.751  59.562  1.00  0.00     0.251 C 
HETATM   12  N   UNL     1       7.404  31.321  60.800  1.00  0.00    -0.357 N 
HETATM   13  H   UNL     1       6.783  30.522  60.842  1.00  0.00     0.162 HD
HETATM   14  O   UNL     1       8.798  32.496  59.400  1.00  0.00    -0.268 OA
BRANCH  12  15
HETATM   15  C   UNL     1       8.089  31.699  62.017  1.00  0.00     0.122 C 
BRANCH  15  16
HETATM   16  C   UNL     1       7.437  32.907  62.684  1.00  0.00     0.015 C 
HETATM   17  C   UNL     1       7.669  32.943  64.188  1.00  0.00     0.006 C 
ENDBRANCH  15  16
ENDBRANCH  12  15
ENDBRANCH   7  11
ENDBRANCH   1   5
BRANCH   2  18
HETATM   18  C   UNL     1       7.048  26.220  54.847  1.00  0.00     0.037 A 
HETATM   19  C   UNL     1       7.587  24.991  55.224  1.00  0.00     0.075 A 
HETATM   20  C   UNL     1       8.079  24.169  54.225  1.00  0.00     0.165 A 
HETATM   21  N   UNL     1       8.063  24.473  52.913  1.00  0.00    -0.237 NA
HETATM   22  C   UNL     1       7.528  25.659  52.571  1.00  0.00     0.120 A 
HETATM   23  C   UNL     1       7.016  26.555  53.487  1.00  0.00     0.036 A 
BRANCH  20  24
HETATM   24  O   UNL     1       8.611  22.955  54.618  1.00  0.00    -0.329 OA
BRANCH  24  25
HETATM   25  C   UNL     1       7.676  21.850  54.673  1.00  0.00     0.130 C 
HETATM   26  C   UNL     1       7.797  20.849  55.850  1.00  0.00     0.032 C 
HETATM   27  C   UNL     1       8.643  19.948  54.938  1.00  0.00     0.005 C 
HETATM   28  C   UNL     1       8.016  20.667  53.732  1.00  0.00     0.032 C 
ENDBRANCH  24  25
ENDBRANCH  20  24
ENDBRANCH   2  18
TORSDOF 7
ENDMDL
MODEL 6
REMARK VINA RESULT:      -8.2      2.047      9.491
REMARK  7 active torsions:
REMARK  status: ('A' for Active; 'I' for Inactive)
REMARK    1  A    between atoms: C_2  and  C_3 
REMARK    2  A    between atoms: C_3  and  N_4 
REMARK       I    between atoms: N_4  and  C_5 
REMARK    3  A    between atoms: C_5  and  C_6 
REMARK    4  A    between atoms: C_8  and  N_9 
REMARK       I    between atoms: N_9  and  C_10 
REMARK    5  A    between atoms: C_10  and  C_11 
REMARK    6  A    between atoms: C_13  and  O_14 
REMARK    7  A    between atoms: O_14  and  C_15 
ROOT
HETATM    1  N   UNL     1       7.131  28.335  56.094  1.00  0.00    -0.323 N 
HETATM    2  C   UNL     1       5.910  28.810  56.542  1.00  0.00     0.256 C 
HETATM    3  O   UNL     1       4.815  28.331  56.255  1.00  0.00    -0.267 OA
HETATM    4  H   UNL     1       7.948  28.914  56.219  1.00  0.00     0.169 HD
ENDROOT
BRANCH   1   5
HETATM    5  C   UNL     1       7.345  27.135  55.371  1.00  0.00     0.035 A 
HETATM    6  C   UNL     1       7.578  25.903  55.987  1.00  0.00     0.046 A 
HETATM    7  C   UNL     1       7.759  24.741  55.224  1.00  0.00     0.034 A 
HETATM    8  C   UNL     1       7.764  24.822  53.829  1.00  0.00     0.017 A 
HETATM    9  C   UNL     1       7.562  26.053  53.205  1.00  0.00     0.003 A 
HETATM   10  C   UNL     1       7.349  27.202  53.973  1.00  0.00     0.029 A 
BRANCH   7  11
HETATM   11  C   UNL     1       7.976  23.415  55.873  1.00  0.00     0.251 C 
HETATM   12  N   UNL     1       8.126  22.341  55.019  1.00  0.00    -0.357 N 
HETATM   13  H   UNL     1       8.316  22.524  54.041  1.00  0.00     0.162 HD
HETATM   14  O   UNL     1       8.039  23.327  57.093  1.00  0.00    -0.268 OA
BRANCH  12  15
HETATM   15  C   UNL     1       8.412  21.012  55.516  1.00  0.00     0.122 C 
BRANCH  15  16
HETATM   16  C   UNL     1       8.647  20.019  54.382  1.00  0.00     0.015 C 
HETATM   17  C   UNL     1       8.127  20.525  53.043  1.00  0.00     0.006 C 
ENDBRANCH  15  16
ENDBRANCH  12  15
ENDBRANCH   7  11
ENDBRANCH   1   5
BRANCH   2  18
HETATM   18  C   UNL     1       5.921  30.014  57.430  1.00  0.00     0.037 A 
HETATM   19  C   UNL     1       7.074  30.542  58.007  1.00  0.00     0.075 A 
HETATM   20  C   UNL     1       6.929  31.614  58.871  1.00  0.00     0.165 A 
HETATM   21  N   UNL     1       5.750  32.186  59.184  1.00  0.00    -0.237 NA
HETATM   22  C   UNL     1       4.652  31.667  58.606  1.00  0.00     0.120 A 
HETATM   23  C   UNL     1       4.684  30.596  57.736  1.00  0.00     0.036 A 
BRANCH  20  24
HETATM   24  O   UNL     1       8.084  32.124  59.436  1.00  0.00    -0.329 OA
BRANCH  24  25
HETATM   25  C   UNL     1       8.703  31.295  60.449  1.00  0.00     0.130 C 
HETATM   26  C   UNL     1       7.910  31.021  61.752  1.00  0.00     0.032 C 
HETATM   27  C   UNL     1       8.662  32.193  62.403  1.00  0.00     0.005 C 
HETATM   28  C   UNL     1       9.749  32.024  61.330  1.00  0.00     0.032 C 
ENDBRANCH  24  25
ENDBRANCH  20  24
ENDBRANCH   2  18
TORSDOF 7
ENDMDL
MODEL 7
REMARK VINA RESULT:      -8.2      3.576     10.221
REMARK  7 active torsions:
REMARK  status: ('A' for Active; 'I' for Inactive)
REMARK    1  A    between atoms: C_2  and  C_3 
REMARK    2  A    between atoms: C_3  and  N_4 
REMARK       I    between atoms: N_4  and  C_5 
REMARK    3  A    between atoms: C_5  and  C_6 
REMARK    4  A    between atoms: C_8  and  N_9 
REMARK       I    between atoms: N_9  and  C_10 
REMARK    5  A    between atoms: C_10  and  C_11 
REMARK    6  A    between atoms: C_13  and  O_14 
REMARK    7  A    between atoms: O_14  and  C_15 
ROOT
HETATM    1  N   UNL     1       7.816  27.964  54.635  1.00  0.00    -0.323 N 
HETATM    2  C   UNL     1       7.446  27.965  55.969  1.00  0.00     0.256 C 
HETATM    3  O   UNL     1       6.510  27.327  56.446  1.00  0.00    -0.267 OA
HETATM    4  H   UNL     1       8.461  28.671  54.314  1.00  0.00     0.169 HD
ENDROOT
BRANCH   1   5
HETATM    5  C   UNL     1       7.298  27.115  53.627  1.00  0.00     0.035 A 
HETATM    6  C   UNL     1       6.412  27.552  52.639  1.00  0.00     0.046 A 
HETATM    7  C   UNL     1       5.948  26.675  51.649  1.00  0.00     0.034 A 
HETATM    8  C   UNL     1       6.328  25.331  51.681  1.00  0.00     0.017 A 
HETATM    9  C   UNL     1       7.189  24.877  52.681  1.00  0.00     0.003 A 
HETATM   10  C   UNL     1       7.674  25.766  53.646  1.00  0.00     0.029 A 
BRANCH   7  11
HETATM   11  C   UNL     1       5.028  27.141  50.571  1.00  0.00     0.251 C 
HETATM   12  N   UNL     1       5.294  26.666  49.302  1.00  0.00    -0.357 N 
HETATM   13  H   UNL     1       5.918  25.875  49.204  1.00  0.00     0.162 HD
HETATM   14  O   UNL     1       4.087  27.878  50.837  1.00  0.00    -0.268 OA
BRANCH  12  15
HETATM   15  C   UNL     1       4.438  26.984  48.179  1.00  0.00     0.122 C 
BRANCH  15  16
HETATM   16  C   UNL     1       3.496  25.834  47.839  1.00  0.00     0.015 C 
HETATM   17  C   UNL     1       2.289  26.285  47.029  1.00  0.00     0.006 C 
ENDBRANCH  15  16
ENDBRANCH  12  15
ENDBRANCH   7  11
ENDBRANCH   1   5
BRANCH   2  18
HETATM   18  C   UNL     1       8.234  28.829  56.903  1.00  0.00     0.037 A 
HETATM   19  C   UNL     1       7.756  29.283  58.131  1.00  0.00     0.075 A 
HETATM   20  C   UNL     1       8.563  30.141  58.859  1.00  0.00     0.165 A 
HETATM   21  N   UNL     1       9.782  30.558  58.465  1.00  0.00    -0.237 NA
HETATM   22  C   UNL     1      10.227  30.098  57.281  1.00  0.00     0.120 A 
HETATM   23  C   UNL     1       9.501  29.245  56.475  1.00  0.00     0.036 A 
BRANCH  20  24
HETATM   24  O   UNL     1       8.072  30.582  60.074  1.00  0.00    -0.329 OA
BRANCH  24  25
HETATM   25  C   UNL     1       8.588  31.856  60.531  1.00  0.00     0.130 C 
HETATM   26  C   UNL     1       9.539  31.861  61.755  1.00  0.00     0.032 C 
HETATM   27  C   UNL     1       8.320  32.156  62.644  1.00  0.00     0.005 C 
HETATM   28  C   UNL     1       7.600  32.682  61.392  1.00  0.00     0.032 C 
ENDBRANCH  24  25
ENDBRANCH  20  24
ENDBRANCH   2  18
TORSDOF 7
ENDMDL
MODEL 8
REMARK VINA RESULT:      -7.7      2.767      3.493
REMARK  7 active torsions:
REMARK  status: ('A' for Active; 'I' for Inactive)
REMARK    1  A    between atoms: C_2  and  C_3 
REMARK    2  A    between atoms: C_3  and  N_4 
REMARK       I    between atoms: N_4  and  C_5 
REMARK    3  A    between atoms: C_5  and  C_6 
REMARK    4  A    between atoms: C_8  and  N_9 
REMARK       I    between atoms: N_9  and  C_10 
REMARK    5  A    between atoms: C_10  and  C_11 
REMARK    6  A    between atoms: C_13  and  O_14 
REMARK    7  A    between atoms: O_14  and  C_15 
ROOT
HETATM    1  N   UNL     1       6.334  27.826  56.374  1.00  0.00    -0.323 N 
HETATM    2  C   UNL     1       6.043  26.485  56.557  1.00  0.00     0.256 C 
HETATM    3  O   UNL     1       4.958  26.039  56.922  1.00  0.00    -0.267 OA
HETATM    4  H   UNL     1       7.301  28.100  56.273  1.00  0.00     0.169 HD
ENDROOT
BRANCH   1   5
HETATM    5  C   UNL     1       5.404  28.894  56.412  1.00  0.00     0.035 A 
HETATM    6  C   UNL     1       5.200  29.691  57.541  1.00  0.00     0.046 A 
HETATM    7  C   UNL     1       4.283  30.751  57.517  1.00  0.00     0.034 A 
HETATM    8  C   UNL     1       3.521  30.981  56.369  1.00  0.00     0.017 A 
HETATM    9  C   UNL     1       3.696  30.173  55.246  1.00  0.00     0.003 A 
HETATM   10  C   UNL     1       4.636  29.137  55.267  1.00  0.00     0.029 A 
BRANCH   7  11
HETATM   11  C   UNL     1       4.082  31.628  58.707  1.00  0.00     0.251 C 
HETATM   12  N   UNL     1       5.142  31.701  59.589  1.00  0.00    -0.357 N 
HETATM   13  H   UNL     1       6.048  31.368  59.284  1.00  0.00     0.162 HD
HETATM   14  O   UNL     1       3.038  32.253  58.846  1.00  0.00    -0.268 OA
BRANCH  12  15
HETATM   15  C   UNL     1       5.105  32.569  60.746  1.00  0.00     0.122 C 
BRANCH  15  16
HETATM   16  C   UNL     1       6.504  32.874  61.273  1.00  0.00     0.015 C 
HETATM   17  C   UNL     1       7.110  31.705  62.038  1.00  0.00     0.006 C 
ENDBRANCH  15  16
ENDBRANCH  12  15
ENDBRANCH   7  11
ENDBRANCH   1   5
BRANCH   2  18
HETATM   18  C   UNL     1       7.143  25.501  56.313  1.00  0.00     0.037 A 
HETATM   19  C   UNL     1       7.269  24.750  55.147  1.00  0.00     0.075 A 
HETATM   20  C   UNL     1       8.292  23.818  55.087  1.00  0.00     0.165 A 
HETATM   21  N   UNL     1       9.178  23.596  56.076  1.00  0.00    -0.237 NA
HETATM   22  C   UNL     1       9.045  24.341  57.189  1.00  0.00     0.120 A 
HETATM   23  C   UNL     1       8.057  25.291  57.354  1.00  0.00     0.036 A 
BRANCH  20  24
HETATM   24  O   UNL     1       8.400  23.081  53.922  1.00  0.00    -0.329 OA
BRANCH  24  25
HETATM   25  C   UNL     1       7.602  21.874  53.869  1.00  0.00     0.130 C 
HETATM   26  C   UNL     1       7.751  20.850  55.023  1.00  0.00     0.032 C 
HETATM   27  C   UNL     1       8.766  20.089  54.157  1.00  0.00     0.005 C 
HETATM   28  C   UNL     1       8.152  20.775  52.926  1.00  0.00     0.032 C 
ENDBRANCH  24  25
ENDBRANCH  20  24
ENDBRANCH   2  18
TORSDOF 7
ENDMDL
MODEL 9
REMARK VINA RESULT:      -7.7      6.303     10.421
REMARK  7 active torsions:
REMARK  status: ('A' for Active; 'I' for Inactive)
REMARK    1  A    between atoms: C_2  and  C_3 
REMARK    2  A    between atoms: C_3  and  N_4 
REMARK       I    between atoms: N_4  and  C_5 
REMARK    3  A    between atoms: C_5  and  C_6 
REMARK    4  A    between atoms: C_8  and  N_9 
REMARK       I    between atoms: N_9  and  C_10 
REMARK    5  A    between atoms: C_10  and  C_11 
REMARK    6  A    between atoms: C_13  and  O_14 
REMARK    7  A    between atoms: O_14  and  C_15 
ROOT
HETATM    1  N   UNL     1       4.484  25.822  51.232  1.00  0.00    -0.323 N 
HETATM    2  C   UNL     1       4.819  26.854  50.371  1.00  0.00     0.256 C 
HETATM    3  O   UNL     1       5.688  27.697  50.581  1.00  0.00    -0.267 OA
HETATM    4  H   UNL     1       3.629  25.312  51.062  1.00  0.00     0.169 HD
ENDROOT
BRANCH   1   5
HETATM    5  C   UNL     1       5.181  25.460  52.411  1.00  0.00     0.035 A 
HETATM    6  C   UNL     1       6.043  24.364  52.484  1.00  0.00     0.046 A 
HETATM    7  C   UNL     1       6.727  24.064  53.671  1.00  0.00     0.034 A 
HETATM    8  C   UNL     1       6.502  24.836  54.813  1.00  0.00     0.017 A 
HETATM    9  C   UNL     1       5.620  25.916  54.759  1.00  0.00     0.003 A 
HETATM   10  C   UNL     1       4.967  26.228  53.562  1.00  0.00     0.029 A 
BRANCH   7  11
HETATM   11  C   UNL     1       7.674  22.915  53.749  1.00  0.00     0.251 C 
HETATM   12  N   UNL     1       8.506  22.890  54.851  1.00  0.00    -0.357 N 
HETATM   13  H   UNL     1       8.282  23.487  55.638  1.00  0.00     0.162 HD
HETATM   14  O   UNL     1       7.668  22.048  52.884  1.00  0.00    -0.268 OA
BRANCH  12  15
HETATM   15  C   UNL     1       9.423  21.795  55.084  1.00  0.00     0.122 C 
BRANCH  15  16
HETATM   16  C   UNL     1       8.982  20.925  56.257  1.00  0.00     0.015 C 
HETATM   17  C   UNL     1       7.634  20.259  56.019  1.00  0.00     0.006 C 
ENDBRANCH  15  16
ENDBRANCH  12  15
ENDBRANCH   7  11
ENDBRANCH   1   5
BRANCH   2  18
HETATM   18  C   UNL     1       4.050  26.964  49.094  1.00  0.00     0.037 A 
HETATM   19  C   UNL     1       3.754  28.173  48.467  1.00  0.00     0.075 A 
HETATM   20  C   UNL     1       2.966  28.133  47.329  1.00  0.00     0.165 A 
HETATM   21  N   UNL     1       2.473  27.005  46.783  1.00  0.00    -0.237 NA
HETATM   22  C   UNL     1       2.780  25.849  47.399  1.00  0.00     0.120 A 
HETATM   23  C   UNL     1       3.553  25.777  48.541  1.00  0.00     0.036 A 
BRANCH  20  24
HETATM   24  O   UNL     1       2.682  29.343  46.722  1.00  0.00    -0.329 OA
BRANCH  24  25
HETATM   25  C   UNL     1       3.637  30.404  46.964  1.00  0.00     0.130 C 
HETATM   26  C   UNL     1       3.099  31.772  47.454  1.00  0.00     0.032 C 
HETATM   27  C   UNL     1       3.104  32.247  45.992  1.00  0.00     0.005 C 
HETATM   28  C   UNL     1       4.125  31.138  45.690  1.00  0.00     0.032 C 
ENDBRANCH  24  25
ENDBRANCH  20  24
ENDBRANCH   2  18
TORSDOF 7
ENDMDL
MODEL 10
REMARK VINA RESULT:      -7.5      2.570      3.246
REMARK  7 active torsions:
REMARK  status: ('A' for Active; 'I' for Inactive)
REMARK    1  A    between atoms: C_2  and  C_3 
REMARK    2  A    between atoms: C_3  and  N_4 
REMARK       I    between atoms: N_4  and  C_5 
REMARK    3  A    between atoms: C_5  and  C_6 
REMARK    4  A    between atoms: C_8  and  N_9 
REMARK       I    between atoms: N_9  and  C_10 
REMARK    5  A    between atoms: C_10  and  C_11 
REMARK    6  A    between atoms: C_13  and  O_14 
REMARK    7  A    between atoms: O_14  and  C_15 
ROOT
HETATM    1  N   UNL     1       5.326  30.043  55.969  1.00  0.00    -0.323 N 
HETATM    2  C   UNL     1       6.442  29.238  55.810  1.00  0.00     0.256 C 
HETATM    3  O   UNL     1       7.569  29.500  56.223  1.00  0.00    -0.267 OA
HETATM    4  H   UNL     1       4.503  29.838  55.422  1.00  0.00     0.169 HD
ENDROOT
BRANCH   1   5
HETATM    5  C   UNL     1       5.249  31.213  56.764  1.00  0.00     0.035 A 
HETATM    6  C   UNL     1       5.492  31.220  58.139  1.00  0.00     0.046 A 
HETATM    7  C   UNL     1       5.425  32.411  58.876  1.00  0.00     0.034 A 
HETATM    8  C   UNL     1       5.055  33.599  58.239  1.00  0.00     0.017 A 
HETATM    9  C   UNL     1       4.781  33.596  56.871  1.00  0.00     0.003 A 
HETATM   10  C   UNL     1       4.882  32.410  56.138  1.00  0.00     0.029 A 
BRANCH   7  11
HETATM   11  C   UNL     1       5.716  32.434  60.339  1.00  0.00     0.251 C 
HETATM   12  N   UNL     1       6.737  31.608  60.765  1.00  0.00    -0.357 N 
HETATM   13  H   UNL     1       7.369  31.226  60.073  1.00  0.00     0.162 HD
HETATM   14  O   UNL     1       5.086  33.176  61.083  1.00  0.00    -0.268 OA
BRANCH  12  15
HETATM   15  C   UNL     1       7.167  31.587  62.147  1.00  0.00     0.122 C 
BRANCH  15  16
HETATM   16  C   UNL     1       8.622  32.021  62.296  1.00  0.00     0.015 C 
HETATM   17  C   UNL     1       9.391  31.954  60.984  1.00  0.00     0.006 C 
ENDBRANCH  15  16
ENDBRANCH  12  15
ENDBRANCH   7  11
ENDBRANCH   1   5
BRANCH   2  18
HETATM   18  C   UNL     1       6.267  27.957  55.058  1.00  0.00     0.037 A 
HETATM   19  C   UNL     1       7.193  26.916  55.071  1.00  0.00     0.075 A 
HETATM   20  C   UNL     1       6.939  25.818  54.265  1.00  0.00     0.165 A 
HETATM   21  N   UNL     1       5.854  25.686  53.478  1.00  0.00    -0.237 NA
HETATM   22  C   UNL     1       4.968  26.698  53.490  1.00  0.00     0.120 A 
HETATM   23  C   UNL     1       5.128  27.839  54.251  1.00  0.00     0.036 A 
BRANCH  20  24
HETATM   24  O   UNL     1       7.870  24.796  54.290  1.00  0.00    -0.329 OA
BRANCH  24  25
HETATM   25  C   UNL     1       7.335  23.460  54.120  1.00  0.00     0.130 C 
HETATM   26  C   UNL     1       7.922  22.323  54.993  1.00  0.00     0.032 C 
HETATM   27  C   UNL     1       8.867  21.978  53.832  1.00  0.00     0.005 C 
HETATM   28  C   UNL     1       7.887  22.695  52.890  1.00  0.00     0.032 C 
ENDBRANCH  24  25
ENDBRANCH  20  24
ENDBRANCH   2  18
TORSDOF 7
ENDMDL
