MODEL 1
REMARK VINA RESULT:     -10.1      0.000      0.000
REMARK  10 active torsions:
REMARK  status: ('A' for Active; 'I' for Inactive)
REMARK    1  A    between atoms: C_2  and  C_3 
REMARK    2  A    between atoms: C_3  and  O_4 
REMARK    3  A    between atoms: O_4  and  C_5 
REMARK    4  A    between atoms: C_7  and  C_8 
REMARK       I    between atoms: C_8  and  N_9 
REMARK    5  A    between atoms: N_9  and  C_10 
REMARK    6  A    between atoms: C_10  and  N_11 
REMARK    7  A    between atoms: N_11  and  C_12 
REMARK    8  A    between atoms: C_15  and  N_16 
REMARK    9  A    between atoms: N_19  and  C_21 
REMARK   10  A    between atoms: C_21  and  C_22 
ROOT
HETATM    1  C   UNL     1       4.375  30.118  57.394  1.00  0.00     0.034 C 
HETATM    2  C   UNL     1       3.625  29.706  56.309  1.00  0.00     0.032 C 
HETATM    3  C   UNL     1       4.223  29.123  55.181  1.00  0.00     0.031 C 
HETATM    4  C   UNL     1       5.593  28.845  55.109  1.00  0.00     0.030 C 
HETATM    5  C   UNL     1       6.352  29.347  56.176  1.00  0.00     0.031 C 
HETATM    6  C   UNL     1       5.759  29.971  57.292  1.00  0.00     0.032 C 
ENDROOT
BRANCH   1   7
HETATM    7  N   UNL     1       3.877  30.643  58.607  1.00  0.00    -0.333 N 
HETATM    8  H   UNL     1       3.070  30.149  58.974  1.00  0.00     0.168 HD
BRANCH   7   9
HETATM    9  C   UNL     1       4.059  31.805  59.282  1.00  0.00     0.179 C 
HETATM   10  S   UNL     1       3.830  33.233  58.434  1.00  0.00    -0.040 SA
BRANCH   9  11
HETATM   11  N   UNL     1       4.553  31.888  60.538  1.00  0.00    -0.299 N 
HETATM   12  C   UNL     1       5.866  32.191  60.843  1.00  0.00     0.257 C 
HETATM   13  O   UNL     1       6.765  32.281  60.014  1.00  0.00    -0.267 OA
HETATM   14  H   UNL     1       4.209  31.131  61.116  1.00  0.00     0.171 HD
BRANCH  12  15
HETATM   15  C   UNL     1       6.146  32.486  62.287  1.00  0.00     0.035 A 
HETATM   16  C   UNL     1       5.130  32.781  63.207  1.00  0.00     0.053 A 
HETATM   17  C   UNL     1       5.467  33.160  64.509  1.00  0.00     0.069 A 
HETATM   18  C   UNL     1       6.801  33.307  64.883  1.00  0.00     0.037 A 
HETATM   19  C   UNL     1       7.813  33.008  63.977  1.00  0.00     0.004 A 
HETATM   20  C   UNL     1       7.488  32.593  62.684  1.00  0.00     0.017 A 
BRANCH  17  21
HETATM   21  O   UNL     1       4.515  33.498  65.431  1.00  0.00    -0.351 OA
BRANCH  21  22
HETATM   22  C   UNL     1       3.568  34.457  64.942  1.00  0.00     0.175 C 
BRANCH  22  23
HETATM   23  C   UNL     1       3.926  35.893  65.336  1.00  0.00     0.022 C 
HETATM   24  C   UNL     1       4.316  36.021  66.800  1.00  0.00     0.007 C 
ENDBRANCH  22  23
ENDBRANCH  21  22
ENDBRANCH  17  21
ENDBRANCH  12  15
ENDBRANCH   9  11
ENDBRANCH   7   9
ENDBRANCH   1   7
BRANCH   4  25
HETATM   25  N   UNL     1       6.158  28.138  54.032  1.00  0.00    -0.378 N 
HETATM   26  C   UNL     1       5.355  27.051  53.419  1.00  0.00     0.150 C 
HETATM   27  C   UNL     1       5.385  25.794  54.321  1.00  0.00     0.255 C 
HETATM   28  N   UNL     1       6.836  25.345  54.553  1.00  0.00    -0.064 N 
HETATM   29  H   UNL     1       7.203  25.056  53.639  1.00  0.00     0.280 HD
HETATM   30  C   UNL     1       7.720  26.500  55.050  1.00  0.00     0.255 C 
HETATM   31  C   UNL     1       7.581  27.739  54.136  1.00  0.00     0.150 C 
BRANCH  28  32
HETATM   32  C   UNL     1       6.941  24.157  55.482  1.00  0.00     0.273 C 
BRANCH  32  33
HETATM   33  C   UNL     1       7.384  22.877  54.824  1.00  0.00    -0.033 A 
HETATM   34  C   UNL     1       7.605  22.802  53.439  1.00  0.00     0.009 A 
HETATM   35  C   UNL     1       8.025  21.606  52.853  1.00  0.00     0.001 A 
HETATM   36  C   UNL     1       8.249  20.480  53.643  1.00  0.00     0.000 A 
HETATM   37  C   UNL     1       8.056  20.548  55.020  1.00  0.00     0.001 A 
HETATM   38  C   UNL     1       7.626  21.738  55.608  1.00  0.00     0.009 A 
ENDBRANCH  32  33
ENDBRANCH  28  32
ENDBRANCH   4  25
TORSDOF 10
ENDMDL
MODEL 2
REMARK VINA RESULT:     -10.0      2.100      2.494
REMARK  10 active torsions:
REMARK  status: ('A' for Active; 'I' for Inactive)
REMARK    1  A    between atoms: C_2  and  C_3 
REMARK    2  A    between atoms: C_3  and  O_4 
REMARK    3  A    between atoms: O_4  and  C_5 
REMARK    4  A    between atoms: C_7  and  C_8 
REMARK       I    between atoms: C_8  and  N_9 
REMARK    5  A    between atoms: N_9  and  C_10 
REMARK    6  A    between atoms: C_10  and  N_11 
REMARK    7  A    between atoms: N_11  and  C_12 
REMARK    8  A    between atoms: C_15  and  N_16 
REMARK    9  A    between atoms: N_19  and  C_21 
REMARK   10  A    between atoms: C_21  and  C_22 
ROOT
HETATM    1  C   UNL     1       7.439  28.866  57.857  1.00  0.00     0.034 C 
HETATM    2  C   UNL     1       6.737  29.586  56.909  1.00  0.00     0.032 C 
HETATM    3  C   UNL     1       6.172  28.966  55.784  1.00  0.00     0.031 C 
HETATM    4  C   UNL     1       6.207  27.580  55.586  1.00  0.00     0.030 C 
HETATM    5  C   UNL     1       6.995  26.874  56.506  1.00  0.00     0.031 C 
HETATM    6  C   UNL     1       7.600  27.500  57.615  1.00  0.00     0.032 C 
ENDROOT
BRANCH   1   7
HETATM    7  N   UNL     1       7.981  29.368  59.060  1.00  0.00    -0.333 N 
HETATM    8  H   UNL     1       8.072  28.675  59.797  1.00  0.00     0.168 HD
BRANCH   7   9
HETATM    9  C   UNL     1       8.181  30.611  59.563  1.00  0.00     0.179 C 
HETATM   10  S   UNL     1       9.449  31.505  58.929  1.00  0.00    -0.040 SA
BRANCH   9  11
HETATM   11  N   UNL     1       7.527  31.115  60.635  1.00  0.00    -0.299 N 
HETATM   12  C   UNL     1       8.012  31.091  61.929  1.00  0.00     0.257 C 
HETATM   13  O   UNL     1       9.022  30.488  62.277  1.00  0.00    -0.267 OA
HETATM   14  H   UNL     1       6.544  30.873  60.609  1.00  0.00     0.171 HD
BRANCH  12  15
HETATM   15  C   UNL     1       7.257  31.924  62.920  1.00  0.00     0.035 A 
HETATM   16  C   UNL     1       5.861  32.051  62.892  1.00  0.00     0.053 A 
HETATM   17  C   UNL     1       5.230  32.935  63.771  1.00  0.00     0.069 A 
HETATM   18  C   UNL     1       5.977  33.735  64.632  1.00  0.00     0.037 A 
HETATM   19  C   UNL     1       7.362  33.609  64.670  1.00  0.00     0.004 A 
HETATM   20  C   UNL     1       8.001  32.702  63.822  1.00  0.00     0.017 A 
BRANCH  17  21
HETATM   21  O   UNL     1       3.875  33.125  63.755  1.00  0.00    -0.351 OA
BRANCH  21  22
HETATM   22  C   UNL     1       3.476  34.404  64.266  1.00  0.00     0.175 C 
BRANCH  22  23
HETATM   23  C   UNL     1       3.060  35.377  63.160  1.00  0.00     0.022 C 
HETATM   24  C   UNL     1       3.810  36.698  63.226  1.00  0.00     0.007 C 
ENDBRANCH  22  23
ENDBRANCH  21  22
ENDBRANCH  17  21
ENDBRANCH  12  15
ENDBRANCH   9  11
ENDBRANCH   7   9
ENDBRANCH   1   7
BRANCH   4  25
HETATM   25  N   UNL     1       5.521  26.957  54.528  1.00  0.00    -0.378 N 
HETATM   26  C   UNL     1       5.150  25.529  54.687  1.00  0.00     0.150 C 
HETATM   27  C   UNL     1       6.392  24.630  54.474  1.00  0.00     0.255 C 
HETATM   28  N   UNL     1       7.001  24.891  53.087  1.00  0.00    -0.064 N 
HETATM   29  H   UNL     1       6.303  24.590  52.399  1.00  0.00     0.280 HD
HETATM   30  C   UNL     1       7.256  26.388  52.846  1.00  0.00     0.255 C 
HETATM   31  C   UNL     1       5.990  27.222  53.148  1.00  0.00     0.150 C 
BRANCH  28  32
HETATM   32  C   UNL     1       8.259  24.090  52.840  1.00  0.00     0.273 C 
BRANCH  32  33
HETATM   33  C   UNL     1       8.320  22.770  53.560  1.00  0.00    -0.033 A 
HETATM   34  C   UNL     1       7.814  21.594  52.982  1.00  0.00     0.009 A 
HETATM   35  C   UNL     1       7.890  20.380  53.666  1.00  0.00     0.001 A 
HETATM   36  C   UNL     1       8.491  20.320  54.922  1.00  0.00     0.000 A 
HETATM   37  C   UNL     1       9.018  21.474  55.496  1.00  0.00     0.001 A 
HETATM   38  C   UNL     1       8.933  22.691  54.820  1.00  0.00     0.009 A 
ENDBRANCH  32  33
ENDBRANCH  28  32
ENDBRANCH   4  25
TORSDOF 10
ENDMDL
MODEL 3
REMARK VINA RESULT:      -9.8      1.770      2.163
REMARK  10 active torsions:
REMARK  status: ('A' for Active; 'I' for Inactive)
REMARK    1  A    between atoms: C_2  and  C_3 
REMARK    2  A    between atoms: C_3  and  O_4 
REMARK    3  A    between atoms: O_4  and  C_5 
REMARK    4  A    between atoms: C_7  and  C_8 
REMARK       I    between atoms: C_8  and  N_9 
REMARK    5  A    between atoms: N_9  and  C_10 
REMARK    6  A    between atoms: C_10  and  N_11 
REMARK    7  A    between atoms: N_11  and  C_12 
REMARK    8  A    between atoms: C_15  and  N_16 
REMARK    9  A    between atoms: N_19  and  C_21 
REMARK   10  A    between atoms: C_21  and  C_22 
ROOT
HETATM    1  C   UNL     1       5.656  29.254  56.814  1.00  0.00     0.034 C 
HETATM    2  C   UNL     1       5.364  27.911  56.958  1.00  0.00     0.032 C 
HETATM    3  C   UNL     1       5.015  27.112  55.858  1.00  0.00     0.031 C 
HETATM    4  C   UNL     1       5.019  27.591  54.543  1.00  0.00     0.030 C 
HETATM    5  C   UNL     1       5.230  28.972  54.420  1.00  0.00     0.031 C 
HETATM    6  C   UNL     1       5.539  29.787  55.528  1.00  0.00     0.032 C 
ENDROOT
BRANCH   1   7
HETATM    7  N   UNL     1       6.092  30.132  57.829  1.00  0.00    -0.333 N 
HETATM    8  H   UNL     1       5.509  30.954  57.948  1.00  0.00     0.168 HD
BRANCH   7   9
HETATM    9  C   UNL     1       7.245  30.275  58.527  1.00  0.00     0.179 C 
HETATM   10  S   UNL     1       8.627  29.573  57.887  1.00  0.00    -0.040 SA
BRANCH   9  11
HETATM   11  N   UNL     1       7.326  30.812  59.767  1.00  0.00    -0.299 N 
HETATM   12  C   UNL     1       6.617  31.921  60.186  1.00  0.00     0.257 C 
HETATM   13  O   UNL     1       5.942  32.629  59.447  1.00  0.00    -0.267 OA
HETATM   14  H   UNL     1       8.287  30.851  60.085  1.00  0.00     0.171 HD
BRANCH  12  15
HETATM   15  C   UNL     1       6.654  32.195  61.660  1.00  0.00     0.035 A 
HETATM   16  C   UNL     1       5.496  32.449  62.410  1.00  0.00     0.053 A 
HETATM   17  C   UNL     1       5.611  32.813  63.754  1.00  0.00     0.069 A 
HETATM   18  C   UNL     1       6.863  32.984  64.339  1.00  0.00     0.037 A 
HETATM   19  C   UNL     1       8.015  32.727  63.602  1.00  0.00     0.004 A 
HETATM   20  C   UNL     1       7.912  32.328  62.269  1.00  0.00     0.017 A 
BRANCH  17  21
HETATM   21  O   UNL     1       4.515  33.110  64.516  1.00  0.00    -0.351 OA
BRANCH  21  22
HETATM   22  C   UNL     1       4.829  33.882  65.684  1.00  0.00     0.175 C 
BRANCH  22  23
HETATM   23  C   UNL     1       3.918  35.101  65.847  1.00  0.00     0.022 C 
HETATM   24  C   UNL     1       4.283  36.238  64.905  1.00  0.00     0.007 C 
ENDBRANCH  22  23
ENDBRANCH  21  22
ENDBRANCH  17  21
ENDBRANCH  12  15
ENDBRANCH   9  11
ENDBRANCH   7   9
ENDBRANCH   1   7
BRANCH   4  25
HETATM   25  N   UNL     1       4.800  26.748  53.438  1.00  0.00    -0.378 N 
HETATM   26  C   UNL     1       4.616  25.299  53.698  1.00  0.00     0.150 C 
HETATM   27  C   UNL     1       5.981  24.634  53.995  1.00  0.00     0.255 C 
HETATM   28  N   UNL     1       6.948  24.866  52.823  1.00  0.00    -0.064 N 
HETATM   29  H   UNL     1       6.554  24.371  52.015  1.00  0.00     0.280 HD
HETATM   30  C   UNL     1       7.040  26.352  52.442  1.00  0.00     0.255 C 
HETATM   31  C   UNL     1       5.633  26.959  52.231  1.00  0.00     0.150 C 
BRANCH  28  32
HETATM   32  C   UNL     1       8.325  24.296  53.078  1.00  0.00     0.273 C 
BRANCH  32  33
HETATM   33  C   UNL     1       8.337  22.929  53.707  1.00  0.00    -0.033 A 
HETATM   34  C   UNL     1       8.709  22.740  55.048  1.00  0.00     0.009 A 
HETATM   35  C   UNL     1       8.702  21.463  55.611  1.00  0.00     0.001 A 
HETATM   36  C   UNL     1       8.305  20.365  54.852  1.00  0.00     0.000 A 
HETATM   37  C   UNL     1       7.910  20.541  53.528  1.00  0.00     0.001 A 
HETATM   38  C   UNL     1       7.926  21.814  52.958  1.00  0.00     0.009 A 
ENDBRANCH  32  33
ENDBRANCH  28  32
ENDBRANCH   4  25
TORSDOF 10
ENDMDL
MODEL 4
REMARK VINA RESULT:      -9.0      1.858      2.825
REMARK  10 active torsions:
REMARK  status: ('A' for Active; 'I' for Inactive)
REMARK    1  A    between atoms: C_2  and  C_3 
REMARK    2  A    between atoms: C_3  and  O_4 
REMARK    3  A    between atoms: O_4  and  C_5 
REMARK    4  A    between atoms: C_7  and  C_8 
REMARK       I    between atoms: C_8  and  N_9 
REMARK    5  A    between atoms: N_9  and  C_10 
REMARK    6  A    between atoms: C_10  and  N_11 
REMARK    7  A    between atoms: N_11  and  C_12 
REMARK    8  A    between atoms: C_15  and  N_16 
REMARK    9  A    between atoms: N_19  and  C_21 
REMARK   10  A    between atoms: C_21  and  C_22 
ROOT
HETATM    1  C   UNL     1       4.857  31.415  57.516  1.00  0.00     0.034 C 
HETATM    2  C   UNL     1       5.935  31.103  58.322  1.00  0.00     0.032 C 
HETATM    3  C   UNL     1       6.946  30.230  57.891  1.00  0.00     0.031 C 
HETATM    4  C   UNL     1       6.978  29.686  56.602  1.00  0.00     0.030 C 
HETATM    5  C   UNL     1       5.837  29.940  55.827  1.00  0.00     0.031 C 
HETATM    6  C   UNL     1       4.798  30.782  56.273  1.00  0.00     0.032 C 
ENDROOT
BRANCH   1   7
HETATM    7  N   UNL     1       3.827  32.335  57.812  1.00  0.00    -0.333 N 
HETATM    8  H   UNL     1       2.896  32.007  57.577  1.00  0.00     0.168 HD
BRANCH   7   9
HETATM    9  C   UNL     1       3.794  33.658  58.106  1.00  0.00     0.179 C 
HETATM   10  S   UNL     1       3.745  34.733  56.820  1.00  0.00    -0.040 SA
BRANCH   9  11
HETATM   11  N   UNL     1       3.949  34.168  59.349  1.00  0.00    -0.299 N 
HETATM   12  C   UNL     1       2.997  34.095  60.348  1.00  0.00     0.257 C 
HETATM   13  O   UNL     1       1.853  33.686  60.183  1.00  0.00    -0.267 OA
HETATM   14  H   UNL     1       4.374  35.087  59.316  1.00  0.00     0.171 HD
BRANCH  12  15
HETATM   15  C   UNL     1       3.462  34.490  61.718  1.00  0.00     0.035 A 
HETATM   16  C   UNL     1       4.055  33.581  62.606  1.00  0.00     0.053 A 
HETATM   17  C   UNL     1       4.359  33.986  63.907  1.00  0.00     0.069 A 
HETATM   18  C   UNL     1       4.024  35.263  64.351  1.00  0.00     0.037 A 
HETATM   19  C   UNL     1       3.442  36.172  63.473  1.00  0.00     0.004 A 
HETATM   20  C   UNL     1       3.167  35.790  62.158  1.00  0.00     0.017 A 
BRANCH  17  21
HETATM   21  O   UNL     1       4.900  33.125  64.823  1.00  0.00    -0.351 OA
BRANCH  21  22
HETATM   22  C   UNL     1       5.900  33.733  65.651  1.00  0.00     0.175 C 
BRANCH  22  23
HETATM   23  C   UNL     1       7.234  33.919  64.924  1.00  0.00     0.022 C 
HETATM   24  C   UNL     1       7.624  32.706  64.093  1.00  0.00     0.007 C 
ENDBRANCH  22  23
ENDBRANCH  21  22
ENDBRANCH  17  21
ENDBRANCH  12  15
ENDBRANCH   9  11
ENDBRANCH   7   9
ENDBRANCH   1   7
BRANCH   4  25
HETATM   25  N   UNL     1       8.065  28.924  56.137  1.00  0.00    -0.378 N 
HETATM   26  C   UNL     1       8.013  28.421  54.742  1.00  0.00     0.150 C 
HETATM   27  C   UNL     1       7.060  27.205  54.649  1.00  0.00     0.255 C 
HETATM   28  N   UNL     1       7.516  26.102  55.617  1.00  0.00    -0.064 N 
HETATM   29  H   UNL     1       8.431  25.779  55.284  1.00  0.00     0.280 HD
HETATM   30  C   UNL     1       7.718  26.639  57.043  1.00  0.00     0.255 C 
HETATM   31  C   UNL     1       8.624  27.892  57.041  1.00  0.00     0.150 C 
BRANCH  28  32
HETATM   32  C   UNL     1       6.589  24.908  55.624  1.00  0.00     0.273 C 
BRANCH  32  33
HETATM   33  C   UNL     1       7.117  23.693  54.910  1.00  0.00    -0.033 A 
HETATM   34  C   UNL     1       7.324  23.689  53.521  1.00  0.00     0.009 A 
HETATM   35  C   UNL     1       7.824  22.553  52.883  1.00  0.00     0.001 A 
HETATM   36  C   UNL     1       8.143  21.417  53.624  1.00  0.00     0.000 A 
HETATM   37  C   UNL     1       7.965  21.416  55.005  1.00  0.00     0.001 A 
HETATM   38  C   UNL     1       7.455  22.545  55.645  1.00  0.00     0.009 A 
ENDBRANCH  32  33
ENDBRANCH  28  32
ENDBRANCH   4  25
TORSDOF 10
ENDMDL
MODEL 5
REMARK VINA RESULT:      -9.0      2.835      4.299
REMARK  10 active torsions:
REMARK  status: ('A' for Active; 'I' for Inactive)
REMARK    1  A    between atoms: C_2  and  C_3 
REMARK    2  A    between atoms: C_3  and  O_4 
REMARK    3  A    between atoms: O_4  and  C_5 
REMARK    4  A    between atoms: C_7  and  C_8 
REMARK       I    between atoms: C_8  and  N_9 
REMARK    5  A    between atoms: N_9  and  C_10 
REMARK    6  A    between atoms: C_10  and  N_11 
REMARK    7  A    between atoms: N_11  and  C_12 
REMARK    8  A    between atoms: C_15  and  N_16 
REMARK    9  A    between atoms: N_19  and  C_21 
REMARK   10  A    between atoms: C_21  and  C_22 
ROOT
HETATM    1  C   UNL     1       4.039  29.865  53.734  1.00  0.00     0.034 C 
HETATM    2  C   UNL     1       4.600  29.765  52.474  1.00  0.00     0.032 C 
HETATM    3  C   UNL     1       5.022  28.533  51.953  1.00  0.00     0.031 C 
HETATM    4  C   UNL     1       4.832  27.321  52.627  1.00  0.00     0.030 C 
HETATM    5  C   UNL     1       4.344  27.446  53.936  1.00  0.00     0.031 C 
HETATM    6  C   UNL     1       3.958  28.688  54.479  1.00  0.00     0.032 C 
ENDROOT
BRANCH   1   7
HETATM    7  N   UNL     1       3.510  31.032  54.326  1.00  0.00    -0.333 N 
HETATM    8  H   UNL     1       2.602  31.307  53.967  1.00  0.00     0.168 HD
BRANCH   7   9
HETATM    9  C   UNL     1       4.030  32.026  55.088  1.00  0.00     0.179 C 
HETATM   10  S   UNL     1       3.552  33.595  54.739  1.00  0.00    -0.040 SA
BRANCH   9  11
HETATM   11  N   UNL     1       5.012  31.854  56.002  1.00  0.00    -0.299 N 
HETATM   12  C   UNL     1       4.890  31.088  57.146  1.00  0.00     0.257 C 
HETATM   13  O   UNL     1       3.838  30.592  57.536  1.00  0.00    -0.267 OA
HETATM   14  H   UNL     1       5.486  32.727  56.197  1.00  0.00     0.171 HD
BRANCH  12  15
HETATM   15  C   UNL     1       6.165  30.820  57.887  1.00  0.00     0.035 A 
HETATM   16  C   UNL     1       6.859  31.821  58.583  1.00  0.00     0.053 A 
HETATM   17  C   UNL     1       8.100  31.531  59.153  1.00  0.00     0.069 A 
HETATM   18  C   UNL     1       8.684  30.278  58.986  1.00  0.00     0.037 A 
HETATM   19  C   UNL     1       7.998  29.278  58.303  1.00  0.00     0.004 A 
HETATM   20  C   UNL     1       6.740  29.546  57.760  1.00  0.00     0.017 A 
BRANCH  17  21
HETATM   21  O   UNL     1       8.834  32.483  59.806  1.00  0.00    -0.351 OA
BRANCH  21  22
HETATM   22  C   UNL     1       9.153  32.125  61.158  1.00  0.00     0.175 C 
BRANCH  22  23
HETATM   23  C   UNL     1       7.914  32.041  62.053  1.00  0.00     0.022 C 
HETATM   24  C   UNL     1       8.128  32.686  63.414  1.00  0.00     0.007 C 
ENDBRANCH  22  23
ENDBRANCH  21  22
ENDBRANCH  17  21
ENDBRANCH  12  15
ENDBRANCH   9  11
ENDBRANCH   7   9
ENDBRANCH   1   7
BRANCH   4  25
HETATM   25  N   UNL     1       5.135  26.080  52.037  1.00  0.00    -0.378 N 
HETATM   26  C   UNL     1       4.690  24.851  52.740  1.00  0.00     0.150 C 
HETATM   27  C   UNL     1       5.619  24.560  53.942  1.00  0.00     0.255 C 
HETATM   28  N   UNL     1       7.075  24.426  53.466  1.00  0.00    -0.064 N 
HETATM   29  H   UNL     1       7.110  23.597  52.863  1.00  0.00     0.280 HD
HETATM   30  C   UNL     1       7.508  25.627  52.609  1.00  0.00     0.255 C 
HETATM   31  C   UNL     1       6.493  25.894  51.474  1.00  0.00     0.150 C 
BRANCH  28  32
HETATM   32  C   UNL     1       8.046  24.205  54.602  1.00  0.00     0.273 C 
BRANCH  32  33
HETATM   33  C   UNL     1       8.191  22.772  55.040  1.00  0.00    -0.033 A 
HETATM   34  C   UNL     1       8.331  22.429  56.395  1.00  0.00     0.009 A 
HETATM   35  C   UNL     1       8.454  21.092  56.777  1.00  0.00     0.001 A 
HETATM   36  C   UNL     1       8.416  20.083  55.817  1.00  0.00     0.000 A 
HETATM   37  C   UNL     1       8.254  20.408  54.473  1.00  0.00     0.001 A 
HETATM   38  C   UNL     1       8.142  21.744  54.086  1.00  0.00     0.009 A 
ENDBRANCH  32  33
ENDBRANCH  28  32
ENDBRANCH   4  25
TORSDOF 10
ENDMDL
MODEL 6
REMARK VINA RESULT:      -8.9      1.140      1.744
REMARK  10 active torsions:
REMARK  status: ('A' for Active; 'I' for Inactive)
REMARK    1  A    between atoms: C_2  and  C_3 
REMARK    2  A    between atoms: C_3  and  O_4 
REMARK    3  A    between atoms: O_4  and  C_5 
REMARK    4  A    between atoms: C_7  and  C_8 
REMARK       I    between atoms: C_8  and  N_9 
REMARK    5  A    between atoms: N_9  and  C_10 
REMARK    6  A    between atoms: C_10  and  N_11 
REMARK    7  A    between atoms: N_11  and  C_12 
REMARK    8  A    between atoms: C_15  and  N_16 
REMARK    9  A    between atoms: N_19  and  C_21 
REMARK   10  A    between atoms: C_21  and  C_22 
ROOT
HETATM    1  C   UNL     1       4.652  29.909  57.080  1.00  0.00     0.034 C 
HETATM    2  C   UNL     1       3.805  29.262  56.201  1.00  0.00     0.032 C 
HETATM    3  C   UNL     1       4.295  28.578  55.077  1.00  0.00     0.031 C 
HETATM    4  C   UNL     1       5.662  28.433  54.816  1.00  0.00     0.030 C 
HETATM    5  C   UNL     1       6.505  29.166  55.664  1.00  0.00     0.031 C 
HETATM    6  C   UNL     1       6.013  29.889  56.770  1.00  0.00     0.032 C 
ENDROOT
BRANCH   1   7
HETATM    7  N   UNL     1       4.281  30.558  58.277  1.00  0.00    -0.333 N 
HETATM    8  H   UNL     1       4.111  29.930  59.057  1.00  0.00     0.168 HD
BRANCH   7   9
HETATM    9  C   UNL     1       3.850  31.807  58.584  1.00  0.00     0.179 C 
HETATM   10  S   UNL     1       3.618  32.876  57.314  1.00  0.00    -0.040 SA
BRANCH   9  11
HETATM   11  N   UNL     1       3.741  32.289  59.843  1.00  0.00    -0.299 N 
HETATM   12  C   UNL     1       4.811  32.677  60.627  1.00  0.00     0.257 C 
HETATM   13  O   UNL     1       5.986  32.499  60.328  1.00  0.00    -0.267 OA
HETATM   14  H   UNL     1       3.069  31.755  60.381  1.00  0.00     0.171 HD
BRANCH  12  15
HETATM   15  C   UNL     1       4.460  33.418  61.882  1.00  0.00     0.035 A 
HETATM   16  C   UNL     1       5.431  33.887  62.779  1.00  0.00     0.053 A 
HETATM   17  C   UNL     1       5.033  34.466  63.986  1.00  0.00     0.069 A 
HETATM   18  C   UNL     1       3.687  34.527  64.336  1.00  0.00     0.037 A 
HETATM   19  C   UNL     1       2.718  34.070  63.447  1.00  0.00     0.004 A 
HETATM   20  C   UNL     1       3.102  33.523  62.222  1.00  0.00     0.017 A 
BRANCH  17  21
HETATM   21  O   UNL     1       5.942  34.901  64.911  1.00  0.00    -0.351 OA
BRANCH  21  22
HETATM   22  C   UNL     1       6.224  33.931  65.929  1.00  0.00     0.175 C 
BRANCH  22  23
HETATM   23  C   UNL     1       6.057  34.495  67.343  1.00  0.00     0.022 C 
HETATM   24  C   UNL     1       4.782  34.016  68.019  1.00  0.00     0.007 C 
ENDBRANCH  22  23
ENDBRANCH  21  22
ENDBRANCH  17  21
ENDBRANCH  12  15
ENDBRANCH   9  11
ENDBRANCH   7   9
ENDBRANCH   1   7
BRANCH   4  25
HETATM   25  N   UNL     1       6.143  27.632  53.764  1.00  0.00    -0.378 N 
HETATM   26  C   UNL     1       5.286  26.514  53.297  1.00  0.00     0.150 C 
HETATM   27  C   UNL     1       5.362  25.333  54.294  1.00  0.00     0.255 C 
HETATM   28  N   UNL     1       6.820  24.877  54.463  1.00  0.00    -0.064 N 
HETATM   29  H   UNL     1       7.119  24.509  53.554  1.00  0.00     0.280 HD
HETATM   30  C   UNL     1       7.751  26.051  54.804  1.00  0.00     0.255 C 
HETATM   31  C   UNL     1       7.565  27.216  53.804  1.00  0.00     0.150 C 
BRANCH  28  32
HETATM   32  C   UNL     1       6.973  23.766  55.477  1.00  0.00     0.273 C 
BRANCH  32  33
HETATM   33  C   UNL     1       7.529  22.480  54.925  1.00  0.00    -0.033 A 
HETATM   34  C   UNL     1       7.763  22.311  53.551  1.00  0.00     0.009 A 
HETATM   35  C   UNL     1       8.289  21.112  53.065  1.00  0.00     0.001 A 
HETATM   36  C   UNL     1       8.607  20.079  53.944  1.00  0.00     0.000 A 
HETATM   37  C   UNL     1       8.402  20.243  55.312  1.00  0.00     0.001 A 
HETATM   38  C   UNL     1       7.866  21.435  55.800  1.00  0.00     0.009 A 
ENDBRANCH  32  33
ENDBRANCH  28  32
ENDBRANCH   4  25
TORSDOF 10
ENDMDL
MODEL 7
REMARK VINA RESULT:      -8.9      1.905      2.438
REMARK  10 active torsions:
REMARK  status: ('A' for Active; 'I' for Inactive)
REMARK    1  A    between atoms: C_2  and  C_3 
REMARK    2  A    between atoms: C_3  and  O_4 
REMARK    3  A    between atoms: O_4  and  C_5 
REMARK    4  A    between atoms: C_7  and  C_8 
REMARK       I    between atoms: C_8  and  N_9 
REMARK    5  A    between atoms: N_9  and  C_10 
REMARK    6  A    between atoms: C_10  and  N_11 
REMARK    7  A    between atoms: N_11  and  C_12 
REMARK    8  A    between atoms: C_15  and  N_16 
REMARK    9  A    between atoms: N_19  and  C_21 
REMARK   10  A    between atoms: C_21  and  C_22 
ROOT
HETATM    1  C   UNL     1       7.513  29.569  58.118  1.00  0.00     0.034 C 
HETATM    2  C   UNL     1       6.392  29.871  57.367  1.00  0.00     0.032 C 
HETATM    3  C   UNL     1       6.121  29.219  56.154  1.00  0.00     0.031 C 
HETATM    4  C   UNL     1       6.911  28.171  55.667  1.00  0.00     0.030 C 
HETATM    5  C   UNL     1       8.089  27.934  56.390  1.00  0.00     0.031 C 
HETATM    6  C   UNL     1       8.386  28.618  57.586  1.00  0.00     0.032 C 
ENDROOT
BRANCH   1   7
HETATM    7  N   UNL     1       7.844  30.102  59.382  1.00  0.00    -0.333 N 
HETATM    8  H   UNL     1       7.648  29.481  60.161  1.00  0.00     0.168 HD
BRANCH   7   9
HETATM    9  C   UNL     1       8.133  31.345  59.840  1.00  0.00     0.179 C 
HETATM   10  S   UNL     1       9.688  31.919  59.589  1.00  0.00    -0.040 SA
BRANCH   9  11
HETATM   11  N   UNL     1       7.303  32.086  60.611  1.00  0.00    -0.299 N 
HETATM   12  C   UNL     1       6.133  32.669  60.163  1.00  0.00     0.257 C 
HETATM   13  O   UNL     1       5.782  32.701  58.989  1.00  0.00    -0.267 OA
HETATM   14  H   UNL     1       7.825  32.722  61.201  1.00  0.00     0.171 HD
BRANCH  12  15
HETATM   15  C   UNL     1       5.237  33.225  61.229  1.00  0.00     0.035 A 
HETATM   16  C   UNL     1       5.723  33.671  62.467  1.00  0.00     0.053 A 
HETATM   17  C   UNL     1       4.823  34.069  63.459  1.00  0.00     0.069 A 
HETATM   18  C   UNL     1       3.449  33.970  63.253  1.00  0.00     0.037 A 
HETATM   19  C   UNL     1       2.961  33.536  62.024  1.00  0.00     0.004 A 
HETATM   20  C   UNL     1       3.851  33.171  61.013  1.00  0.00     0.017 A 
BRANCH  17  21
HETATM   21  O   UNL     1       5.245  34.472  64.696  1.00  0.00    -0.351 OA
BRANCH  21  22
HETATM   22  C   UNL     1       4.594  33.780  65.770  1.00  0.00     0.175 C 
BRANCH  22  23
HETATM   23  C   UNL     1       4.576  34.592  67.068  1.00  0.00     0.022 C 
HETATM   24  C   UNL     1       3.836  35.913  66.925  1.00  0.00     0.007 C 
ENDBRANCH  22  23
ENDBRANCH  21  22
ENDBRANCH  17  21
ENDBRANCH  12  15
ENDBRANCH   9  11
ENDBRANCH   7   9
ENDBRANCH   1   7
BRANCH   4  25
HETATM   25  N   UNL     1       6.553  27.435  54.522  1.00  0.00    -0.378 N 
HETATM   26  C   UNL     1       5.303  26.636  54.574  1.00  0.00     0.150 C 
HETATM   27  C   UNL     1       5.531  25.343  55.392  1.00  0.00     0.255 C 
HETATM   28  N   UNL     1       6.682  24.527  54.781  1.00  0.00    -0.064 N 
HETATM   29  H   UNL     1       6.369  24.231  53.851  1.00  0.00     0.280 HD
HETATM   30  C   UNL     1       7.945  25.380  54.583  1.00  0.00     0.255 C 
HETATM   31  C   UNL     1       7.621  26.685  53.820  1.00  0.00     0.150 C 
BRANCH  28  32
HETATM   32  C   UNL     1       7.001  23.280  55.573  1.00  0.00     0.273 C 
BRANCH  32  33
HETATM   33  C   UNL     1       7.597  22.156  54.769  1.00  0.00    -0.033 A 
HETATM   34  C   UNL     1       7.645  22.202  53.366  1.00  0.00     0.009 A 
HETATM   35  C   UNL     1       8.212  21.152  52.642  1.00  0.00     0.001 A 
HETATM   36  C   UNL     1       8.756  20.055  53.308  1.00  0.00     0.000 A 
HETATM   37  C   UNL     1       8.735  20.008  54.700  1.00  0.00     0.001 A 
HETATM   38  C   UNL     1       8.159  21.050  55.426  1.00  0.00     0.009 A 
ENDBRANCH  32  33
ENDBRANCH  28  32
ENDBRANCH   4  25
TORSDOF 10
ENDMDL
MODEL 8
REMARK VINA RESULT:      -8.8      2.689      4.036
REMARK  10 active torsions:
REMARK  status: ('A' for Active; 'I' for Inactive)
REMARK    1  A    between atoms: C_2  and  C_3 
REMARK    2  A    between atoms: C_3  and  O_4 
REMARK    3  A    between atoms: O_4  and  C_5 
REMARK    4  A    between atoms: C_7  and  C_8 
REMARK       I    between atoms: C_8  and  N_9 
REMARK    5  A    between atoms: N_9  and  C_10 
REMARK    6  A    between atoms: C_10  and  N_11 
REMARK    7  A    between atoms: N_11  and  C_12 
REMARK    8  A    between atoms: C_15  and  N_16 
REMARK    9  A    between atoms: N_19  and  C_21 
REMARK   10  A    between atoms: C_21  and  C_22 
ROOT
HETATM    1  C   UNL     1       5.205  30.383  55.626  1.00  0.00     0.034 C 
HETATM    2  C   UNL     1       6.234  30.193  56.530  1.00  0.00     0.032 C 
HETATM    3  C   UNL     1       6.412  28.969  57.194  1.00  0.00     0.031 C 
HETATM    4  C   UNL     1       5.623  27.843  56.930  1.00  0.00     0.030 C 
HETATM    5  C   UNL     1       4.532  28.075  56.080  1.00  0.00     0.031 C 
HETATM    6  C   UNL     1       4.325  29.315  55.444  1.00  0.00     0.032 C 
ENDROOT
BRANCH   1   7
HETATM    7  N   UNL     1       4.977  31.537  54.847  1.00  0.00    -0.333 N 
HETATM    8  H   UNL     1       5.112  31.401  53.850  1.00  0.00     0.168 HD
BRANCH   7   9
HETATM    9  C   UNL     1       4.862  32.860  55.123  1.00  0.00     0.179 C 
HETATM   10  S   UNL     1       4.855  33.922  53.826  1.00  0.00    -0.040 SA
BRANCH   9  11
HETATM   11  N   UNL     1       4.904  33.386  56.369  1.00  0.00    -0.299 N 
HETATM   12  C   UNL     1       3.929  33.200  57.330  1.00  0.00     0.257 C 
HETATM   13  O   UNL     1       2.849  32.658  57.122  1.00  0.00    -0.267 OA
HETATM   14  H   UNL     1       5.217  34.349  56.348  1.00  0.00     0.171 HD
BRANCH  12  15
HETATM   15  C   UNL     1       4.288  33.650  58.715  1.00  0.00     0.035 A 
HETATM   16  C   UNL     1       5.238  32.984  59.502  1.00  0.00     0.053 A 
HETATM   17  C   UNL     1       5.441  33.384  60.825  1.00  0.00     0.069 A 
HETATM   18  C   UNL     1       4.667  34.395  61.388  1.00  0.00     0.037 A 
HETATM   19  C   UNL     1       3.728  35.065  60.610  1.00  0.00     0.004 A 
HETATM   20  C   UNL     1       3.542  34.698  59.276  1.00  0.00     0.017 A 
BRANCH  17  21
HETATM   21  O   UNL     1       6.327  32.740  61.645  1.00  0.00    -0.351 OA
BRANCH  21  22
HETATM   22  C   UNL     1       7.190  31.833  60.946  1.00  0.00     0.175 C 
BRANCH  22  23
HETATM   23  C   UNL     1       8.548  32.454  60.608  1.00  0.00     0.022 C 
HETATM   24  C   UNL     1       9.695  31.813  61.373  1.00  0.00     0.007 C 
ENDBRANCH  22  23
ENDBRANCH  21  22
ENDBRANCH  17  21
ENDBRANCH  12  15
ENDBRANCH   9  11
ENDBRANCH   7   9
ENDBRANCH   1   7
BRANCH   4  25
HETATM   25  N   UNL     1       5.897  26.587  57.501  1.00  0.00    -0.378 N 
HETATM   26  C   UNL     1       7.318  26.217  57.713  1.00  0.00     0.150 C 
HETATM   27  C   UNL     1       7.966  25.801  56.371  1.00  0.00     0.255 C 
HETATM   28  N   UNL     1       7.181  24.638  55.743  1.00  0.00    -0.064 N 
HETATM   29  H   UNL     1       7.286  23.838  56.376  1.00  0.00     0.280 HD
HETATM   30  C   UNL     1       5.678  24.947  55.650  1.00  0.00     0.255 C 
HETATM   31  C   UNL     1       5.123  25.421  57.013  1.00  0.00     0.150 C 
BRANCH  28  32
HETATM   32  C   UNL     1       7.724  24.225  54.394  1.00  0.00     0.273 C 
BRANCH  32  33
HETATM   33  C   UNL     1       8.084  22.769  54.277  1.00  0.00    -0.033 A 
HETATM   34  C   UNL     1       8.555  22.038  55.380  1.00  0.00     0.009 A 
HETATM   35  C   UNL     1       8.873  20.684  55.248  1.00  0.00     0.001 A 
HETATM   36  C   UNL     1       8.705  20.041  54.024  1.00  0.00     0.000 A 
HETATM   37  C   UNL     1       8.216  20.749  52.929  1.00  0.00     0.001 A 
HETATM   38  C   UNL     1       7.908  22.104  53.053  1.00  0.00     0.009 A 
ENDBRANCH  32  33
ENDBRANCH  28  32
ENDBRANCH   4  25
TORSDOF 10
ENDMDL
MODEL 9
REMARK VINA RESULT:      -8.7      3.293     11.521
REMARK  10 active torsions:
REMARK  status: ('A' for Active; 'I' for Inactive)
REMARK    1  A    between atoms: C_2  and  C_3 
REMARK    2  A    between atoms: C_3  and  O_4 
REMARK    3  A    between atoms: O_4  and  C_5 
REMARK    4  A    between atoms: C_7  and  C_8 
REMARK       I    between atoms: C_8  and  N_9 
REMARK    5  A    between atoms: N_9  and  C_10 
REMARK    6  A    between atoms: C_10  and  N_11 
REMARK    7  A    between atoms: N_11  and  C_12 
REMARK    8  A    between atoms: C_15  and  N_16 
REMARK    9  A    between atoms: N_19  and  C_21 
REMARK   10  A    between atoms: C_21  and  C_22 
ROOT
HETATM    1  C   UNL     1       5.997  29.542  57.406  1.00  0.00     0.034 C 
HETATM    2  C   UNL     1       5.866  30.744  58.075  1.00  0.00     0.032 C 
HETATM    3  C   UNL     1       6.839  31.191  58.983  1.00  0.00     0.031 C 
HETATM    4  C   UNL     1       8.035  30.500  59.210  1.00  0.00     0.030 C 
HETATM    5  C   UNL     1       8.115  29.243  58.594  1.00  0.00     0.031 C 
HETATM    6  C   UNL     1       7.120  28.772  57.715  1.00  0.00     0.032 C 
ENDROOT
BRANCH   1   7
HETATM    7  N   UNL     1       5.126  29.032  56.420  1.00  0.00    -0.333 N 
HETATM    8  H   UNL     1       4.312  28.551  56.790  1.00  0.00     0.168 HD
BRANCH   7   9
HETATM    9  C   UNL     1       5.233  28.805  55.087  1.00  0.00     0.179 C 
HETATM   10  S   UNL     1       4.294  29.746  54.066  1.00  0.00    -0.040 SA
BRANCH   9  11
HETATM   11  N   UNL     1       5.925  27.779  54.540  1.00  0.00    -0.299 N 
HETATM   12  C   UNL     1       5.909  26.482  55.018  1.00  0.00     0.257 C 
HETATM   13  O   UNL     1       5.381  26.141  56.071  1.00  0.00    -0.267 OA
HETATM   14  H   UNL     1       6.864  28.065  54.291  1.00  0.00     0.171 HD
BRANCH  12  15
HETATM   15  C   UNL     1       6.534  25.454  54.124  1.00  0.00     0.035 A 
HETATM   16  C   UNL     1       6.686  24.113  54.506  1.00  0.00     0.053 A 
HETATM   17  C   UNL     1       7.381  23.233  53.674  1.00  0.00     0.069 A 
HETATM   18  C   UNL     1       7.976  23.686  52.499  1.00  0.00     0.037 A 
HETATM   19  C   UNL     1       7.823  25.013  52.111  1.00  0.00     0.004 A 
HETATM   20  C   UNL     1       7.099  25.894  52.917  1.00  0.00     0.017 A 
BRANCH  17  21
HETATM   21  O   UNL     1       7.591  21.926  54.021  1.00  0.00    -0.351 OA
BRANCH  21  22
HETATM   22  C   UNL     1       8.963  21.633  54.320  1.00  0.00     0.175 C 
BRANCH  22  23
HETATM   23  C   UNL     1       9.138  20.969  55.689  1.00  0.00     0.022 C 
HETATM   24  C   UNL     1       7.829  20.445  56.259  1.00  0.00     0.007 C 
ENDBRANCH  22  23
ENDBRANCH  21  22
ENDBRANCH  17  21
ENDBRANCH  12  15
ENDBRANCH   9  11
ENDBRANCH   7   9
ENDBRANCH   1   7
BRANCH   4  25
HETATM   25  N   UNL     1       9.061  31.025  60.017  1.00  0.00    -0.378 N 
HETATM   26  C   UNL     1       9.319  30.369  61.323  1.00  0.00     0.150 C 
HETATM   27  C   UNL     1       8.237  30.783  62.349  1.00  0.00     0.255 C 
HETATM   28  N   UNL     1       8.204  32.312  62.496  1.00  0.00    -0.064 N 
HETATM   29  H   UNL     1       9.106  32.587  62.899  1.00  0.00     0.280 HD
HETATM   30  C   UNL     1       8.085  33.015  61.134  1.00  0.00     0.255 C 
HETATM   31  C   UNL     1       9.156  32.498  60.146  1.00  0.00     0.150 C 
BRANCH  28  32
HETATM   32  C   UNL     1       7.121  32.788  63.437  1.00  0.00     0.273 C 
BRANCH  32  33
HETATM   33  C   UNL     1       5.867  33.276  62.762  1.00  0.00    -0.033 A 
HETATM   34  C   UNL     1       5.614  34.645  62.584  1.00  0.00     0.009 A 
HETATM   35  C   UNL     1       4.448  35.073  61.946  1.00  0.00     0.001 A 
HETATM   36  C   UNL     1       3.534  34.141  61.460  1.00  0.00     0.000 A 
HETATM   37  C   UNL     1       3.784  32.779  61.609  1.00  0.00     0.001 A 
HETATM   38  C   UNL     1       4.942  32.348  62.256  1.00  0.00     0.009 A 
ENDBRANCH  32  33
ENDBRANCH  28  32
ENDBRANCH   4  25
TORSDOF 10
ENDMDL
MODEL 10
REMARK VINA RESULT:      -8.7      1.662      2.422
REMARK  10 active torsions:
REMARK  status: ('A' for Active; 'I' for Inactive)
REMARK    1  A    between atoms: C_2  and  C_3 
REMARK    2  A    between atoms: C_3  and  O_4 
REMARK    3  A    between atoms: O_4  and  C_5 
REMARK    4  A    between atoms: C_7  and  C_8 
REMARK       I    between atoms: C_8  and  N_9 
REMARK    5  A    between atoms: N_9  and  C_10 
REMARK    6  A    between atoms: C_10  and  N_11 
REMARK    7  A    between atoms: N_11  and  C_12 
REMARK    8  A    between atoms: C_15  and  N_16 
REMARK    9  A    between atoms: N_19  and  C_21 
REMARK   10  A    between atoms: C_21  and  C_22 
ROOT
HETATM    1  C   UNL     1       4.711  31.066  58.537  1.00  0.00     0.034 C 
HETATM    2  C   UNL     1       6.064  31.003  58.262  1.00  0.00     0.032 C 
HETATM    3  C   UNL     1       6.556  30.304  57.149  1.00  0.00     0.031 C 
HETATM    4  C   UNL     1       5.718  29.700  56.204  1.00  0.00     0.030 C 
HETATM    5  C   UNL     1       4.357  29.696  56.541  1.00  0.00     0.031 C 
HETATM    6  C   UNL     1       3.863  30.361  57.681  1.00  0.00     0.032 C 
ENDROOT
BRANCH   1   7
HETATM    7  N   UNL     1       4.100  31.799  59.577  1.00  0.00    -0.333 N 
HETATM    8  H   UNL     1       3.643  31.226  60.279  1.00  0.00     0.168 HD
BRANCH   7   9
HETATM    9  C   UNL     1       3.755  33.100  59.744  1.00  0.00     0.179 C 
HETATM   10  S   UNL     1       3.493  34.012  58.362  1.00  0.00    -0.040 SA
BRANCH   9  11
HETATM   11  N   UNL     1       3.756  33.743  60.934  1.00  0.00    -0.299 N 
HETATM   12  C   UNL     1       3.771  33.113  62.164  1.00  0.00     0.257 C 
HETATM   13  O   UNL     1       3.644  31.904  62.321  1.00  0.00    -0.267 OA
HETATM   14  H   UNL     1       3.105  34.519  60.929  1.00  0.00     0.171 HD
BRANCH  12  15
HETATM   15  C   UNL     1       4.028  34.001  63.344  1.00  0.00     0.035 A 
HETATM   16  C   UNL     1       4.306  33.495  64.623  1.00  0.00     0.053 A 
HETATM   17  C   UNL     1       4.420  34.374  65.702  1.00  0.00     0.069 A 
HETATM   18  C   UNL     1       4.201  35.739  65.534  1.00  0.00     0.037 A 
HETATM   19  C   UNL     1       3.933  36.247  64.267  1.00  0.00     0.004 A 
HETATM   20  C   UNL     1       3.852  35.383  63.174  1.00  0.00     0.017 A 
BRANCH  17  21
HETATM   21  O   UNL     1       4.649  33.927  66.975  1.00  0.00    -0.351 OA
BRANCH  21  22
HETATM   22  C   UNL     1       5.316  34.890  67.803  1.00  0.00     0.175 C 
BRANCH  22  23
HETATM   23  C   UNL     1       6.713  34.432  68.231  1.00  0.00     0.022 C 
HETATM   24  C   UNL     1       7.328  35.333  69.290  1.00  0.00     0.007 C 
ENDBRANCH  22  23
ENDBRANCH  21  22
ENDBRANCH  17  21
ENDBRANCH  12  15
ENDBRANCH   9  11
ENDBRANCH   7   9
ENDBRANCH   1   7
BRANCH   4  25
HETATM   25  N   UNL     1       6.217  29.121  55.023  1.00  0.00    -0.378 N 
HETATM   26  C   UNL     1       5.348  28.157  54.302  1.00  0.00     0.150 C 
HETATM   27  C   UNL     1       5.351  26.791  55.029  1.00  0.00     0.255 C 
HETATM   28  N   UNL     1       6.788  26.258  55.145  1.00  0.00    -0.064 N 
HETATM   29  H   UNL     1       7.113  26.079  54.189  1.00  0.00     0.280 HD
HETATM   30  C   UNL     1       7.738  27.301  55.757  1.00  0.00     0.255 C 
HETATM   31  C   UNL     1       7.624  28.656  55.020  1.00  0.00     0.150 C 
BRANCH  28  32
HETATM   32  C   UNL     1       6.870  24.954  55.905  1.00  0.00     0.273 C 
BRANCH  32  33
HETATM   33  C   UNL     1       7.249  23.760  55.071  1.00  0.00    -0.033 A 
HETATM   34  C   UNL     1       7.389  23.852  53.677  1.00  0.00     0.009 A 
HETATM   35  C   UNL     1       7.751  22.732  52.926  1.00  0.00     0.001 A 
HETATM   36  C   UNL     1       7.999  21.515  53.558  1.00  0.00     0.000 A 
HETATM   37  C   UNL     1       7.887  21.416  54.943  1.00  0.00     0.001 A 
HETATM   38  C   UNL     1       7.514  22.530  55.695  1.00  0.00     0.009 A 
ENDBRANCH  32  33
ENDBRANCH  28  32
ENDBRANCH   4  25
TORSDOF 10
ENDMDL
