MODEL 1
REMARK VINA RESULT:      -8.4      0.000      0.000
REMARK  4 active torsions:
REMARK  status: ('A' for Active; 'I' for Inactive)
REMARK    1  A    between atoms: C_5  and  N_6 
REMARK    2  A    between atoms: N_9  and  C_11 
REMARK    3  A    between atoms: C_11  and  C_12 
REMARK    4  A    between atoms: C_13  and  O_14 
ROOT
HETATM    1  N   UNL     1       6.237  24.982  55.508  1.00  0.00    -0.363 N 
HETATM    2  C   UNL     1       6.231  26.218  54.713  1.00  0.00     0.152 C 
HETATM    3  C   UNL     1       7.540  27.026  54.820  1.00  0.00     0.255 C 
HETATM    4  N   UNL     1       7.630  27.693  56.189  1.00  0.00    -0.066 N 
HETATM    5  H   UNL     1       6.659  27.895  56.485  1.00  0.00     0.280 HD
HETATM    6  C   UNL     1       8.265  26.877  57.273  1.00  0.00     0.237 C 
HETATM    7  C   UNL     1       7.882  25.402  57.307  1.00  0.00     0.047 C 
HETATM    8  C   UNL     1       6.432  25.085  56.956  1.00  0.00     0.126 C 
ENDROOT
BRANCH   4   9
HETATM    9  C   UNL     1       8.235  29.082  56.117  1.00  0.00     0.276 C 
BRANCH   9  10
HETATM   10  C   UNL     1       7.740  30.025  57.185  1.00  0.00     0.002 A 
HETATM   11  C   UNL     1       6.395  30.414  57.265  1.00  0.00     0.073 A 
HETATM   12  C   UNL     1       5.944  31.265  58.272  1.00  0.00     0.038 A 
HETATM   13  C   UNL     1       6.842  31.734  59.231  1.00  0.00     0.022 A 
HETATM   14  C   UNL     1       8.178  31.343  59.176  1.00  0.00     0.011 A 
HETATM   15 BR   UNL     1       9.393  31.969  60.482  1.00  0.00    -0.051 Br
HETATM   16  C   UNL     1       8.629  30.491  58.166  1.00  0.00     0.030 A 
BRANCH  11  17
HETATM   17  O   UNL     1       5.525  29.954  56.311  1.00  0.00    -0.360 OA
HETATM   18  H   UNL     1       4.774  29.530  56.776  1.00  0.00     0.217 HD
ENDBRANCH  11  17
ENDBRANCH   9  10
ENDBRANCH   4   9
BRANCH   1  19
HETATM   19  C   UNL     1       6.822  23.887  54.849  1.00  0.00     0.147 A 
HETATM   20  N   UNL     1       7.170  22.791  55.558  1.00  0.00    -0.132 NA
HETATM   21  N   UNL     1       7.765  21.703  54.964  1.00  0.00    -0.153 NA
HETATM   22  C   UNL     1       8.028  21.720  53.644  1.00  0.00     0.053 A 
HETATM   23  C   UNL     1       8.706  20.528  53.047  1.00  0.00     0.072 C 
HETATM   24  C   UNL     1       7.677  22.810  52.869  1.00  0.00     0.032 A 
HETATM   25  C   UNL     1       7.068  23.905  53.482  1.00  0.00     0.054 A 
ENDBRANCH   1  19
TORSDOF 4
ENDMDL
MODEL 2
REMARK VINA RESULT:      -8.3      3.379      8.080
REMARK  4 active torsions:
REMARK  status: ('A' for Active; 'I' for Inactive)
REMARK    1  A    between atoms: C_5  and  N_6 
REMARK    2  A    between atoms: N_9  and  C_11 
REMARK    3  A    between atoms: C_11  and  C_12 
REMARK    4  A    between atoms: C_13  and  O_14 
ROOT
HETATM    1  N   UNL     1       7.466  30.022  57.092  1.00  0.00    -0.363 N 
HETATM    2  C   UNL     1       6.122  29.506  56.802  1.00  0.00     0.152 C 
HETATM    3  C   UNL     1       5.934  28.025  57.186  1.00  0.00     0.255 C 
HETATM    4  N   UNL     1       6.685  27.132  56.203  1.00  0.00    -0.066 N 
HETATM    5  H   UNL     1       6.678  27.624  55.291  1.00  0.00     0.280 HD
HETATM    6  C   UNL     1       8.116  26.845  56.542  1.00  0.00     0.237 C 
HETATM    7  C   UNL     1       8.922  28.022  57.078  1.00  0.00     0.047 C 
HETATM    8  C   UNL     1       8.615  29.378  56.450  1.00  0.00     0.126 C 
ENDROOT
BRANCH   4   9
HETATM    9  C   UNL     1       5.927  25.859  55.882  1.00  0.00     0.276 C 
BRANCH   9  10
HETATM   10  C   UNL     1       6.551  25.029  54.788  1.00  0.00     0.002 A 
HETATM   11  C   UNL     1       6.808  25.556  53.513  1.00  0.00     0.073 A 
HETATM   12  C   UNL     1       7.409  24.788  52.518  1.00  0.00     0.038 A 
HETATM   13  C   UNL     1       7.778  23.471  52.792  1.00  0.00     0.022 A 
HETATM   14  C   UNL     1       7.546  22.938  54.058  1.00  0.00     0.011 A 
HETATM   15 BR   UNL     1       8.055  21.158  54.434  1.00  0.00    -0.051 Br
HETATM   16  C   UNL     1       6.943  23.708  55.054  1.00  0.00     0.030 A 
BRANCH  11  17
HETATM   17  O   UNL     1       6.431  26.848  53.254  1.00  0.00    -0.360 OA
HETATM   18  H   UNL     1       5.634  27.037  53.792  1.00  0.00     0.217 HD
ENDBRANCH  11  17
ENDBRANCH   9  10
ENDBRANCH   4   9
BRANCH   1  19
HETATM   19  C   UNL     1       7.628  30.473  58.413  1.00  0.00     0.147 A 
HETATM   20  N   UNL     1       8.538  29.875  59.214  1.00  0.00    -0.132 NA
HETATM   21  N   UNL     1       8.717  30.264  60.521  1.00  0.00    -0.153 NA
HETATM   22  C   UNL     1       7.966  31.254  61.036  1.00  0.00     0.053 A 
HETATM   23  C   UNL     1       8.174  31.621  62.471  1.00  0.00     0.072 C 
HETATM   24  C   UNL     1       7.032  31.910  60.255  1.00  0.00     0.032 A 
HETATM   25  C   UNL     1       6.863  31.511  58.928  1.00  0.00     0.054 A 
ENDBRANCH   1  19
TORSDOF 4
ENDMDL
MODEL 3
REMARK VINA RESULT:      -8.0      1.690      2.053
REMARK  4 active torsions:
REMARK  status: ('A' for Active; 'I' for Inactive)
REMARK    1  A    between atoms: C_5  and  N_6 
REMARK    2  A    between atoms: N_9  and  C_11 
REMARK    3  A    between atoms: C_11  and  C_12 
REMARK    4  A    between atoms: C_13  and  O_14 
ROOT
HETATM    1  N   UNL     1       6.285  24.800  55.579  1.00  0.00    -0.363 N 
HETATM    2  C   UNL     1       6.182  26.000  54.738  1.00  0.00     0.152 C 
HETATM    3  C   UNL     1       7.458  26.866  54.739  1.00  0.00     0.255 C 
HETATM    4  N   UNL     1       7.591  27.593  56.074  1.00  0.00    -0.066 N 
HETATM    5  H   UNL     1       6.629  27.766  56.415  1.00  0.00     0.280 HD
HETATM    6  C   UNL     1       8.319  26.850  57.153  1.00  0.00     0.237 C 
HETATM    7  C   UNL     1       8.004  25.363  57.266  1.00  0.00     0.047 C 
HETATM    8  C   UNL     1       6.552  24.971  57.008  1.00  0.00     0.126 C 
ENDROOT
BRANCH   4   9
HETATM    9  C   UNL     1       8.129  29.002  55.914  1.00  0.00     0.276 C 
BRANCH   9  10
HETATM   10  C   UNL     1       7.864  29.900  57.096  1.00  0.00     0.002 A 
HETATM   11  C   UNL     1       8.892  30.322  57.951  1.00  0.00     0.073 A 
HETATM   12  C   UNL     1       8.641  31.173  59.026  1.00  0.00     0.038 A 
HETATM   13  C   UNL     1       7.342  31.629  59.253  1.00  0.00     0.022 A 
HETATM   14  C   UNL     1       6.312  31.234  58.403  1.00  0.00     0.011 A 
HETATM   15 BR   UNL     1       4.555  31.860  58.704  1.00  0.00    -0.051 Br
HETATM   16  C   UNL     1       6.565  30.380  57.328  1.00  0.00     0.030 A 
BRANCH  11  17
HETATM   17  O   UNL     1      10.162  29.858  57.723  1.00  0.00    -0.360 OA
HETATM   18  H   UNL     1      10.785  30.584  57.938  1.00  0.00     0.217 HD
ENDBRANCH  11  17
ENDBRANCH   9  10
ENDBRANCH   4   9
BRANCH   1  19
HETATM   19  C   UNL     1       6.881  23.704  54.932  1.00  0.00     0.147 A 
HETATM   20  N   UNL     1       6.970  23.694  53.583  1.00  0.00    -0.132 NA
HETATM   21  N   UNL     1       7.523  22.636  52.902  1.00  0.00    -0.153 NA
HETATM   22  C   UNL     1       7.982  21.567  53.580  1.00  0.00     0.053 A 
HETATM   23  C   UNL     1       8.546  20.426  52.795  1.00  0.00     0.072 C 
HETATM   24  C   UNL     1       7.930  21.533  54.961  1.00  0.00     0.032 A 
HETATM   25  C   UNL     1       7.371  22.616  55.642  1.00  0.00     0.054 A 
ENDBRANCH   1  19
TORSDOF 4
ENDMDL
MODEL 4
REMARK VINA RESULT:      -7.9      5.338      7.642
REMARK  4 active torsions:
REMARK  status: ('A' for Active; 'I' for Inactive)
REMARK    1  A    between atoms: C_5  and  N_6 
REMARK    2  A    between atoms: N_9  and  C_11 
REMARK    3  A    between atoms: C_11  and  C_12 
REMARK    4  A    between atoms: C_13  and  O_14 
ROOT
HETATM    1  N   UNL     1       5.519  27.263  50.830  1.00  0.00    -0.363 N 
HETATM    2  C   UNL     1       5.931  25.930  51.290  1.00  0.00     0.152 C 
HETATM    3  C   UNL     1       5.134  25.425  52.510  1.00  0.00     0.255 C 
HETATM    4  N   UNL     1       5.562  26.186  53.761  1.00  0.00    -0.066 N 
HETATM    5  H   UNL     1       6.559  26.433  53.632  1.00  0.00     0.280 HD
HETATM    6  C   UNL     1       4.820  27.458  54.039  1.00  0.00     0.237 C 
HETATM    7  C   UNL     1       4.529  28.336  52.827  1.00  0.00     0.047 C 
HETATM    8  C   UNL     1       5.623  28.386  51.765  1.00  0.00     0.126 C 
ENDROOT
BRANCH   4   9
HETATM    9  C   UNL     1       5.613  25.297  54.989  1.00  0.00     0.276 C 
BRANCH   9  10
HETATM   10  C   UNL     1       6.841  24.425  55.067  1.00  0.00     0.002 A 
HETATM   11  C   UNL     1       7.863  24.664  55.997  1.00  0.00     0.073 A 
HETATM   12  C   UNL     1       8.981  23.836  56.078  1.00  0.00     0.038 A 
HETATM   13  C   UNL     1       9.085  22.735  55.227  1.00  0.00     0.022 A 
HETATM   14  C   UNL     1       8.070  22.473  54.309  1.00  0.00     0.011 A 
HETATM   15 BR   UNL     1       8.206  20.976  53.164  1.00  0.00    -0.051 Br
HETATM   16  C   UNL     1       6.952  23.304  54.228  1.00  0.00     0.030 A 
BRANCH  11  17
HETATM   17  O   UNL     1       7.753  25.755  56.820  1.00  0.00    -0.360 OA
HETATM   18  H   UNL     1       7.744  26.554  56.252  1.00  0.00     0.217 HD
ENDBRANCH  11  17
ENDBRANCH   9  10
ENDBRANCH   4   9
BRANCH   1  19
HETATM   19  C   UNL     1       4.422  27.247  49.952  1.00  0.00     0.147 A 
HETATM   20  N   UNL     1       3.548  28.277  49.960  1.00  0.00    -0.132 NA
HETATM   21  N   UNL     1       2.447  28.298  49.137  1.00  0.00    -0.153 NA
HETATM   22  C   UNL     1       2.211  27.266  48.305  1.00  0.00     0.053 A 
HETATM   23  C   UNL     1       0.984  27.318  47.452  1.00  0.00     0.072 C 
HETATM   24  C   UNL     1       3.083  26.195  48.246  1.00  0.00     0.032 A 
HETATM   25  C   UNL     1       4.200  26.188  49.082  1.00  0.00     0.054 A 
ENDBRANCH   1  19
TORSDOF 4
ENDMDL
MODEL 5
REMARK VINA RESULT:      -7.9      2.218      3.009
REMARK  4 active torsions:
REMARK  status: ('A' for Active; 'I' for Inactive)
REMARK    1  A    between atoms: C_5  and  N_6 
REMARK    2  A    between atoms: N_9  and  C_11 
REMARK    3  A    between atoms: C_11  and  C_12 
REMARK    4  A    between atoms: C_13  and  O_14 
ROOT
HETATM    1  N   UNL     1       7.095  24.275  52.546  1.00  0.00    -0.363 N 
HETATM    2  C   UNL     1       7.993  25.417  52.762  1.00  0.00     0.152 C 
HETATM    3  C   UNL     1       7.552  26.339  53.916  1.00  0.00     0.255 C 
HETATM    4  N   UNL     1       6.329  27.150  53.497  1.00  0.00    -0.066 N 
HETATM    5  H   UNL     1       6.408  27.298  52.475  1.00  0.00     0.280 HD
HETATM    6  C   UNL     1       5.000  26.507  53.752  1.00  0.00     0.237 C 
HETATM    7  C   UNL     1       4.912  25.016  53.446  1.00  0.00     0.047 C 
HETATM    8  C   UNL     1       5.692  24.542  52.222  1.00  0.00     0.126 C 
ENDROOT
BRANCH   4   9
HETATM    9  C   UNL     1       6.367  28.570  54.027  1.00  0.00     0.276 C 
BRANCH   9  10
HETATM   10  C   UNL     1       7.016  28.704  55.381  1.00  0.00     0.002 A 
HETATM   11  C   UNL     1       6.320  28.432  56.568  1.00  0.00     0.073 A 
HETATM   12  C   UNL     1       6.938  28.535  57.813  1.00  0.00     0.038 A 
HETATM   13  C   UNL     1       8.281  28.904  57.887  1.00  0.00     0.022 A 
HETATM   14  C   UNL     1       8.992  29.161  56.717  1.00  0.00     0.011 A 
HETATM   15 BR   UNL     1      10.815  29.650  56.815  1.00  0.00    -0.051 Br
HETATM   16  C   UNL     1       8.372  29.059  55.470  1.00  0.00     0.030 A 
BRANCH  11  17
HETATM   17  O   UNL     1       4.997  28.081  56.482  1.00  0.00    -0.360 OA
HETATM   18  H   UNL     1       4.948  27.239  55.982  1.00  0.00     0.217 HD
ENDBRANCH  11  17
ENDBRANCH   9  10
ENDBRANCH   4   9
BRANCH   1  19
HETATM   19  C   UNL     1       7.373  23.171  53.371  1.00  0.00     0.147 A 
HETATM   20  N   UNL     1       7.206  23.279  54.708  1.00  0.00    -0.132 NA
HETATM   21  N   UNL     1       7.486  22.236  55.558  1.00  0.00    -0.153 NA
HETATM   22  C   UNL     1       7.953  21.074  55.065  1.00  0.00     0.053 A 
HETATM   23  C   UNL     1       8.274  19.979  56.031  1.00  0.00     0.072 C 
HETATM   24  C   UNL     1       8.127  20.905  53.704  1.00  0.00     0.032 A 
HETATM   25  C   UNL     1       7.833  21.969  52.849  1.00  0.00     0.054 A 
ENDBRANCH   1  19
TORSDOF 4
ENDMDL
MODEL 6
REMARK VINA RESULT:      -7.6      5.745     10.503
REMARK  4 active torsions:
REMARK  status: ('A' for Active; 'I' for Inactive)
REMARK    1  A    between atoms: C_5  and  N_6 
REMARK    2  A    between atoms: N_9  and  C_11 
REMARK    3  A    between atoms: C_11  and  C_12 
REMARK    4  A    between atoms: C_13  and  O_14 
ROOT
HETATM    1  N   UNL     1       5.746  31.697  62.922  1.00  0.00    -0.363 N 
HETATM    2  C   UNL     1       7.107  31.225  62.630  1.00  0.00     0.152 C 
HETATM    3  C   UNL     1       7.909  32.181  61.724  1.00  0.00     0.255 C 
HETATM    4  N   UNL     1       7.382  32.107  60.294  1.00  0.00    -0.066 N 
HETATM    5  H   UNL     1       7.034  31.142  60.156  1.00  0.00     0.280 HD
HETATM    6  C   UNL     1       6.257  33.039  59.963  1.00  0.00     0.237 C 
HETATM    7  C   UNL     1       5.180  33.188  61.031  1.00  0.00     0.047 C 
HETATM    8  C   UNL     1       4.829  31.918  61.802  1.00  0.00     0.126 C 
ENDROOT
BRANCH   4   9
HETATM    9  C   UNL     1       8.492  32.193  59.264  1.00  0.00     0.276 C 
BRANCH   9  10
HETATM   10  C   UNL     1       8.660  30.945  58.435  1.00  0.00     0.002 A 
HETATM   11  C   UNL     1       9.894  30.593  57.867  1.00  0.00     0.073 A 
HETATM   12  C   UNL     1      10.045  29.423  57.124  1.00  0.00     0.038 A 
HETATM   13  C   UNL     1       8.952  28.574  56.948  1.00  0.00     0.022 A 
HETATM   14  C   UNL     1       7.725  28.900  57.519  1.00  0.00     0.011 A 
HETATM   15 BR   UNL     1       6.247  27.744  57.290  1.00  0.00    -0.051 Br
HETATM   16  C   UNL     1       7.574  30.072  58.262  1.00  0.00     0.030 A 
BRANCH  11  17
HETATM   17  O   UNL     1      10.957  31.442  58.039  1.00  0.00    -0.360 OA
HETATM   18  H   UNL     1      11.366  31.231  58.904  1.00  0.00     0.217 HD
ENDBRANCH  11  17
ENDBRANCH   9  10
ENDBRANCH   4   9
BRANCH   1  19
HETATM   19  C   UNL     1       5.675  32.587  64.008  1.00  0.00     0.147 A 
HETATM   20  N   UNL     1       4.468  32.943  64.499  1.00  0.00    -0.132 NA
HETATM   21  N   UNL     1       4.345  33.828  65.545  1.00  0.00    -0.153 NA
HETATM   22  C   UNL     1       5.445  34.374  66.095  1.00  0.00     0.053 A 
HETATM   23  C   UNL     1       5.261  35.355  67.208  1.00  0.00     0.072 C 
HETATM   24  C   UNL     1       6.705  34.031  65.640  1.00  0.00     0.032 A 
HETATM   25  C   UNL     1       6.818  33.127  64.583  1.00  0.00     0.054 A 
ENDBRANCH   1  19
TORSDOF 4
ENDMDL
MODEL 7
REMARK VINA RESULT:      -7.5      5.221      6.787
REMARK  4 active torsions:
REMARK  status: ('A' for Active; 'I' for Inactive)
REMARK    1  A    between atoms: C_5  and  N_6 
REMARK    2  A    between atoms: N_9  and  C_11 
REMARK    3  A    between atoms: C_11  and  C_12 
REMARK    4  A    between atoms: C_13  and  O_14 
ROOT
HETATM    1  N   UNL     1       5.448  25.283  54.295  1.00  0.00    -0.363 N 
HETATM    2  C   UNL     1       4.802  25.302  52.975  1.00  0.00     0.152 C 
HETATM    3  C   UNL     1       5.587  26.100  51.915  1.00  0.00     0.255 C 
HETATM    4  N   UNL     1       5.466  27.595  52.194  1.00  0.00    -0.066 N 
HETATM    5  H   UNL     1       4.540  27.740  52.635  1.00  0.00     0.280 HD
HETATM    6  C   UNL     1       6.494  28.172  53.119  1.00  0.00     0.237 C 
HETATM    7  C   UNL     1       6.848  27.323  54.335  1.00  0.00     0.047 C 
HETATM    8  C   UNL     1       5.690  26.560  54.971  1.00  0.00     0.126 C 
ENDROOT
BRANCH   4   9
HETATM    9  C   UNL     1       5.345  28.413  50.924  1.00  0.00     0.276 C 
BRANCH   9  10
HETATM   10  C   UNL     1       4.002  28.302  50.246  1.00  0.00     0.002 A 
HETATM   11  C   UNL     1       2.896  29.056  50.665  1.00  0.00     0.073 A 
HETATM   12  C   UNL     1       1.666  28.965  50.014  1.00  0.00     0.038 A 
HETATM   13  C   UNL     1       1.530  28.118  48.915  1.00  0.00     0.022 A 
HETATM   14  C   UNL     1       2.623  27.375  48.475  1.00  0.00     0.011 A 
HETATM   15 BR   UNL     1       2.442  26.235  46.979  1.00  0.00    -0.051 Br
HETATM   16  C   UNL     1       3.854  27.466  49.128  1.00  0.00     0.030 A 
BRANCH  11  17
HETATM   17  O   UNL     1       3.041  29.877  51.753  1.00  0.00    -0.360 OA
HETATM   18  H   UNL     1       2.358  30.578  51.687  1.00  0.00     0.217 HD
ENDBRANCH  11  17
ENDBRANCH   9  10
ENDBRANCH   4   9
BRANCH   1  19
HETATM   19  C   UNL     1       6.421  24.279  54.436  1.00  0.00     0.147 A 
HETATM   20  N   UNL     1       6.835  23.922  55.672  1.00  0.00    -0.132 NA
HETATM   21  N   UNL     1       7.800  22.961  55.862  1.00  0.00    -0.153 NA
HETATM   22  C   UNL     1       8.367  22.359  54.800  1.00  0.00     0.053 A 
HETATM   23  C   UNL     1       9.434  21.343  55.054  1.00  0.00     0.072 C 
HETATM   24  C   UNL     1       7.967  22.675  53.514  1.00  0.00     0.032 A 
HETATM   25  C   UNL     1       6.983  23.648  53.334  1.00  0.00     0.054 A 
ENDBRANCH   1  19
TORSDOF 4
ENDMDL
MODEL 8
REMARK VINA RESULT:      -7.4      4.972      6.559
REMARK  4 active torsions:
REMARK  status: ('A' for Active; 'I' for Inactive)
REMARK    1  A    between atoms: C_5  and  N_6 
REMARK    2  A    between atoms: N_9  and  C_11 
REMARK    3  A    between atoms: C_11  and  C_12 
REMARK    4  A    between atoms: C_13  and  O_14 
ROOT
HETATM    1  N   UNL     1       7.853  25.429  53.851  1.00  0.00    -0.363 N 
HETATM    2  C   UNL     1       6.895  26.351  54.477  1.00  0.00     0.152 C 
HETATM    3  C   UNL     1       5.483  26.285  53.862  1.00  0.00     0.255 C 
HETATM    4  N   UNL     1       5.485  26.938  52.483  1.00  0.00    -0.066 N 
HETATM    5  H   UNL     1       6.201  27.685  52.510  1.00  0.00     0.280 HD
HETATM    6  C   UNL     1       5.824  26.037  51.334  1.00  0.00     0.237 C 
HETATM    7  C   UNL     1       6.962  25.052  51.575  1.00  0.00     0.047 C 
HETATM    8  C   UNL     1       8.122  25.570  52.419  1.00  0.00     0.126 C 
ENDROOT
BRANCH   4   9
HETATM    9  C   UNL     1       4.217  27.724  52.213  1.00  0.00     0.276 C 
BRANCH   9  10
HETATM   10  C   UNL     1       4.245  28.516  50.930  1.00  0.00     0.002 A 
HETATM   11  C   UNL     1       5.226  29.486  50.679  1.00  0.00     0.073 A 
HETATM   12  C   UNL     1       5.258  30.194  49.479  1.00  0.00     0.038 A 
HETATM   13  C   UNL     1       4.304  29.927  48.497  1.00  0.00     0.022 A 
HETATM   14  C   UNL     1       3.332  28.955  48.723  1.00  0.00     0.011 A 
HETATM   15 BR   UNL     1       2.046  28.586  47.389  1.00  0.00    -0.051 Br
HETATM   16  C   UNL     1       3.301  28.247  49.926  1.00  0.00     0.030 A 
BRANCH  11  17
HETATM   17  O   UNL     1       6.152  29.745  51.656  1.00  0.00    -0.360 OA
HETATM   18  H   UNL     1       7.040  29.686  51.245  1.00  0.00     0.217 HD
ENDBRANCH  11  17
ENDBRANCH   9  10
ENDBRANCH   4   9
BRANCH   1  19
HETATM   19  C   UNL     1       7.817  24.128  54.382  1.00  0.00     0.147 A 
HETATM   20  N   UNL     1       7.618  23.954  55.707  1.00  0.00    -0.132 NA
HETATM   21  N   UNL     1       7.596  22.704  56.278  1.00  0.00    -0.153 NA
HETATM   22  C   UNL     1       7.791  21.613  55.513  1.00  0.00     0.053 A 
HETATM   23  C   UNL     1       7.792  20.276  56.182  1.00  0.00     0.072 C 
HETATM   24  C   UNL     1       7.983  21.734  54.149  1.00  0.00     0.032 A 
HETATM   25  C   UNL     1       7.996  23.009  53.580  1.00  0.00     0.054 A 
ENDBRANCH   1  19
TORSDOF 4
ENDMDL
MODEL 9
REMARK VINA RESULT:      -7.4      2.809      3.315
REMARK  4 active torsions:
REMARK  status: ('A' for Active; 'I' for Inactive)
REMARK    1  A    between atoms: C_5  and  N_6 
REMARK    2  A    between atoms: N_9  and  C_11 
REMARK    3  A    between atoms: C_11  and  C_12 
REMARK    4  A    between atoms: C_13  and  O_14 
ROOT
HETATM    1  N   UNL     1       6.234  24.756  56.255  1.00  0.00    -0.363 N 
HETATM    2  C   UNL     1       5.426  25.731  55.510  1.00  0.00     0.152 C 
HETATM    3  C   UNL     1       6.245  26.909  54.945  1.00  0.00     0.255 C 
HETATM    4  N   UNL     1       6.657  27.846  56.077  1.00  0.00    -0.066 N 
HETATM    5  H   UNL     1       5.910  27.793  56.792  1.00  0.00     0.280 HD
HETATM    6  C   UNL     1       7.950  27.517  56.759  1.00  0.00     0.237 C 
HETATM    7  C   UNL     1       8.202  26.039  57.031  1.00  0.00     0.047 C 
HETATM    8  C   UNL     1       6.978  25.219  57.429  1.00  0.00     0.126 C 
ENDROOT
BRANCH   4   9
HETATM    9  C   UNL     1       6.603  29.305  55.669  1.00  0.00     0.276 C 
BRANCH   9  10
HETATM   10  C   UNL     1       5.227  29.916  55.748  1.00  0.00     0.002 A 
HETATM   11  C   UNL     1       4.433  29.808  56.900  1.00  0.00     0.073 A 
HETATM   12  C   UNL     1       3.173  30.399  56.972  1.00  0.00     0.038 A 
HETATM   13  C   UNL     1       2.690  31.126  55.883  1.00  0.00     0.022 A 
HETATM   14  C   UNL     1       3.473  31.257  54.738  1.00  0.00     0.011 A 
HETATM   15 BR   UNL     1       2.824  32.250  53.267  1.00  0.00    -0.051 Br
HETATM   16  C   UNL     1       4.734  30.664  54.667  1.00  0.00     0.030 A 
BRANCH  11  17
HETATM   17  O   UNL     1       4.915  29.083  57.959  1.00  0.00    -0.360 OA
HETATM   18  H   UNL     1       5.888  29.019  57.854  1.00  0.00     0.217 HD
ENDBRANCH  11  17
ENDBRANCH   9  10
ENDBRANCH   4   9
BRANCH   1  19
HETATM   19  C   UNL     1       6.841  23.784  55.441  1.00  0.00     0.147 A 
HETATM   20  N   UNL     1       6.706  23.860  54.099  1.00  0.00    -0.132 NA
HETATM   21  N   UNL     1       7.262  22.922  53.261  1.00  0.00    -0.153 NA
HETATM   22  C   UNL     1       7.949  21.885  53.776  1.00  0.00     0.053 A 
HETATM   23  C   UNL     1       8.508  20.872  52.829  1.00  0.00     0.072 C 
HETATM   24  C   UNL     1       8.131  21.769  55.142  1.00  0.00     0.032 A 
HETATM   25  C   UNL     1       7.568  22.731  55.982  1.00  0.00     0.054 A 
ENDBRANCH   1  19
TORSDOF 4
ENDMDL
MODEL 10
REMARK VINA RESULT:      -7.3      3.580      8.235
REMARK  4 active torsions:
REMARK  status: ('A' for Active; 'I' for Inactive)
REMARK    1  A    between atoms: C_5  and  N_6 
REMARK    2  A    between atoms: N_9  and  C_11 
REMARK    3  A    between atoms: C_11  and  C_12 
REMARK    4  A    between atoms: C_13  and  O_14 
ROOT
HETATM    1  N   UNL     1       7.588  30.287  57.368  1.00  0.00    -0.363 N 
HETATM    2  C   UNL     1       6.194  29.920  57.085  1.00  0.00     0.152 C 
HETATM    3  C   UNL     1       5.849  28.467  57.470  1.00  0.00     0.255 C 
HETATM    4  N   UNL     1       6.494  27.500  56.481  1.00  0.00    -0.066 N 
HETATM    5  H   UNL     1       6.535  27.991  55.571  1.00  0.00     0.280 HD
HETATM    6  C   UNL     1       7.887  27.059  56.813  1.00  0.00     0.237 C 
HETATM    7  C   UNL     1       8.819  28.141  57.345  1.00  0.00     0.047 C 
HETATM    8  C   UNL     1       8.656  29.524  56.720  1.00  0.00     0.126 C 
ENDROOT
BRANCH   4   9
HETATM    9  C   UNL     1       5.601  26.317  56.164  1.00  0.00     0.276 C 
BRANCH   9  10
HETATM   10  C   UNL     1       5.925  25.632  54.860  1.00  0.00     0.002 A 
HETATM   11  C   UNL     1       6.573  24.389  54.816  1.00  0.00     0.073 A 
HETATM   12  C   UNL     1       6.845  23.753  53.606  1.00  0.00     0.038 A 
HETATM   13  C   UNL     1       6.456  24.355  52.410  1.00  0.00     0.022 A 
HETATM   14  C   UNL     1       5.797  25.582  52.436  1.00  0.00     0.011 A 
HETATM   15 BR   UNL     1       5.262  26.393  50.815  1.00  0.00    -0.051 Br
HETATM   16  C   UNL     1       5.526  26.219  53.648  1.00  0.00     0.030 A 
BRANCH  11  17
HETATM   17  O   UNL     1       6.958  23.813  55.999  1.00  0.00    -0.360 OA
HETATM   18  H   UNL     1       7.544  23.057  55.782  1.00  0.00     0.217 HD
ENDBRANCH  11  17
ENDBRANCH   9  10
ENDBRANCH   4   9
BRANCH   1  19
HETATM   19  C   UNL     1       7.804  30.716  58.689  1.00  0.00     0.147 A 
HETATM   20  N   UNL     1       6.820  31.366  59.349  1.00  0.00    -0.132 NA
HETATM   21  N   UNL     1       6.989  31.824  60.633  1.00  0.00    -0.153 NA
HETATM   22  C   UNL     1       8.166  31.643  61.261  1.00  0.00     0.053 A 
HETATM   23  C   UNL     1       8.316  32.187  62.646  1.00  0.00     0.072 C 
HETATM   24  C   UNL     1       9.201  30.970  60.638  1.00  0.00     0.032 A 
HETATM   25  C   UNL     1       9.015  30.503  59.336  1.00  0.00     0.054 A 
ENDBRANCH   1  19
TORSDOF 4
ENDMDL
