MODEL 1
REMARK VINA RESULT:      -9.6      0.000      0.000
REMARK  8 active torsions:
REMARK  status: ('A' for Active; 'I' for Inactive)
REMARK    1  A    between atoms: C_4  and  C_5 
REMARK    2  A    between atoms: C_5  and  C_6 
REMARK    3  A    between atoms: C_6  and  C_7 
REMARK    4  A    between atoms: C_7  and  N_8 
REMARK    5  A    between atoms: C_17  and  C_18 
REMARK    6  A    between atoms: C_18  and  N_19 
REMARK    7  A    between atoms: C_23  and  O_24 
REMARK    8  A    between atoms: C_23  and  C_25 
ROOT
HETATM    1  N   UNL     1       7.491  25.111  57.425  1.00  0.00    -0.065 N 
HETATM    2  H   UNL     1       7.299  25.237  58.428  1.00  0.00     0.280 HD
HETATM    3  C   UNL     1       6.146  24.853  56.777  1.00  0.00     0.276 C 
HETATM    4  C   UNL     1       6.170  24.853  55.272  1.00  0.00     0.001 A 
HETATM    5  C   UNL     1       6.871  23.854  54.595  1.00  0.00     0.076 A 
HETATM    6  O   UNL     1       7.536  22.881  55.287  1.00  0.00    -0.349 OA
HETATM    7  C   UNL     1       8.702  23.410  55.939  1.00  0.00     0.203 C 
HETATM    8  C   UNL     1       8.389  23.872  57.368  1.00  0.00     0.261 C 
HETATM    9  C   UNL     1       5.519  25.846  54.517  1.00  0.00     0.020 A 
HETATM   10  C   UNL     1       5.571  25.838  53.108  1.00  0.00    -0.032 A 
HETATM   11  C   UNL     1       6.246  24.792  52.461  1.00  0.00     0.011 A 
HETATM   12  C   UNL     1       6.882  23.797  53.205  1.00  0.00     0.038 A 
ENDROOT
BRANCH  10  13
HETATM   13  C   UNL     1       4.946  26.957  52.307  1.00  0.00     0.273 C 
BRANCH  13  14
HETATM   14  N   UNL     1       5.399  27.067  50.864  1.00  0.00    -0.067 N 
HETATM   15  H   UNL     1       6.355  26.683  50.822  1.00  0.00     0.280 HD
HETATM   16  C   UNL     1       4.551  26.250  49.919  1.00  0.00     0.238 C 
HETATM   17  C   UNL     1       5.033  26.436  48.492  1.00  0.00     0.071 C 
HETATM   18  C   UNL     1       4.960  27.911  48.050  1.00  0.00     0.089 C 
HETATM   19  C   UNL     1       5.876  28.691  49.012  1.00  0.00     0.071 C 
HETATM   20  C   UNL     1       5.484  28.528  50.472  1.00  0.00     0.238 C 
BRANCH  18  21
HETATM   21  O   UNL     1       5.577  27.979  46.765  1.00  0.00    -0.385 OA
HETATM   22  H   UNL     1       5.118  28.633  46.203  1.00  0.00     0.211 HD
ENDBRANCH  18  21
BRANCH  18  23
HETATM   23  C   UNL     1       3.528  28.417  47.923  1.00  0.00    -0.006 A 
HETATM   24  C   UNL     1       3.118  29.676  48.358  1.00  0.00     0.126 A 
HETATM   25  N   UNL     1       1.843  30.120  48.338  1.00  0.00    -0.272 NA
HETATM   26  C   UNL     1       0.917  29.323  47.771  1.00  0.00     0.116 A 
HETATM   27  C   UNL     1       1.215  28.084  47.240  1.00  0.00     0.020 A 
HETATM   28  C   UNL     1       2.532  27.633  47.315  1.00  0.00     0.013 A 
ENDBRANCH  18  23
ENDBRANCH  13  14
ENDBRANCH  10  13
BRANCH   1  29
HETATM   29  C   UNL     1       8.211  26.379  56.979  1.00  0.00     0.236 C 
BRANCH  29  30
HETATM   30  C   UNL     1       7.403  27.628  57.343  1.00  0.00     0.039 C 
BRANCH  30  31
HETATM   31  C   UNL     1       7.702  28.867  56.474  1.00  0.00     0.040 C 
HETATM   32  C   UNL     1       7.953  28.512  55.006  1.00  0.00     0.017 C 
BRANCH  31  33
HETATM   33  C   UNL     1       8.811  29.691  57.026  1.00  0.00     0.057 A 
HETATM   34  O   UNL     1       8.530  30.457  58.118  1.00  0.00    -0.319 OA
HETATM   35  C   UNL     1       9.686  31.091  58.467  1.00  0.00     0.049 A 
HETATM   36  C   UNL     1       9.640  31.970  59.654  1.00  0.00     0.076 C 
HETATM   37  C   UNL     1      10.698  30.744  57.599  1.00  0.00     0.035 A 
HETATM   38  C   UNL     1      10.134  29.841  56.668  1.00  0.00     0.035 A 
ENDBRANCH  31  33
ENDBRANCH  30  31
ENDBRANCH  29  30
ENDBRANCH   1  29
TORSDOF 8
ENDMDL
MODEL 2
REMARK VINA RESULT:      -9.6      2.395      5.274
REMARK  8 active torsions:
REMARK  status: ('A' for Active; 'I' for Inactive)
REMARK    1  A    between atoms: C_4  and  C_5 
REMARK    2  A    between atoms: C_5  and  C_6 
REMARK    3  A    between atoms: C_6  and  C_7 
REMARK    4  A    between atoms: C_7  and  N_8 
REMARK    5  A    between atoms: C_17  and  C_18 
REMARK    6  A    between atoms: C_18  and  N_19 
REMARK    7  A    between atoms: C_23  and  O_24 
REMARK    8  A    between atoms: C_23  and  C_25 
ROOT
HETATM    1  N   UNL     1       6.982  26.129  55.591  1.00  0.00    -0.065 N 
HETATM    2  H   UNL     1       7.757  25.457  55.519  1.00  0.00     0.280 HD
HETATM    3  C   UNL     1       7.389  27.319  54.745  1.00  0.00     0.276 C 
HETATM    4  C   UNL     1       6.299  28.336  54.536  1.00  0.00     0.001 A 
HETATM    5  C   UNL     1       5.822  29.067  55.626  1.00  0.00     0.076 A 
HETATM    6  O   UNL     1       6.335  28.863  56.877  1.00  0.00    -0.349 OA
HETATM    7  C   UNL     1       5.923  27.593  57.408  1.00  0.00     0.203 C 
HETATM    8  C   UNL     1       6.935  26.489  57.079  1.00  0.00     0.261 C 
HETATM    9  C   UNL     1       5.725  28.565  53.273  1.00  0.00     0.020 A 
HETATM   10  C   UNL     1       4.692  29.509  53.103  1.00  0.00    -0.032 A 
HETATM   11  C   UNL     1       4.271  30.258  54.212  1.00  0.00     0.011 A 
HETATM   12  C   UNL     1       4.846  30.044  55.467  1.00  0.00     0.038 A 
ENDROOT
BRANCH  10  13
HETATM   13  C   UNL     1       4.020  29.684  51.761  1.00  0.00     0.273 C 
BRANCH  13  14
HETATM   14  N   UNL     1       4.604  28.870  50.621  1.00  0.00    -0.067 N 
HETATM   15  H   UNL     1       5.547  28.578  50.917  1.00  0.00     0.280 HD
HETATM   16  C   UNL     1       3.818  27.613  50.336  1.00  0.00     0.238 C 
HETATM   17  C   UNL     1       4.431  26.870  49.164  1.00  0.00     0.071 C 
HETATM   18  C   UNL     1       4.444  27.729  47.884  1.00  0.00     0.089 C 
HETATM   19  C   UNL     1       5.295  28.971  48.212  1.00  0.00     0.071 C 
HETATM   20  C   UNL     1       4.769  29.756  49.403  1.00  0.00     0.238 C 
BRANCH  18  21
HETATM   21  O   UNL     1       5.175  26.989  46.907  1.00  0.00    -0.385 OA
HETATM   22  H   UNL     1       5.726  26.309  47.340  1.00  0.00     0.211 HD
ENDBRANCH  18  21
BRANCH  18  23
HETATM   23  C   UNL     1       3.045  27.994  47.338  1.00  0.00    -0.006 A 
HETATM   24  C   UNL     1       2.619  29.246  46.898  1.00  0.00     0.126 A 
HETATM   25  N   UNL     1       1.363  29.531  46.491  1.00  0.00    -0.272 NA
HETATM   26  C   UNL     1       0.487  28.511  46.418  1.00  0.00     0.116 A 
HETATM   27  C   UNL     1       0.813  27.214  46.760  1.00  0.00     0.020 A 
HETATM   28  C   UNL     1       2.104  26.957  47.219  1.00  0.00     0.013 A 
ENDBRANCH  18  23
ENDBRANCH  13  14
ENDBRANCH  10  13
BRANCH   1  29
HETATM   29  C   UNL     1       5.739  25.379  55.128  1.00  0.00     0.236 C 
BRANCH  29  30
HETATM   30  C   UNL     1       5.983  24.681  53.786  1.00  0.00     0.039 C 
BRANCH  30  31
HETATM   31  C   UNL     1       7.450  24.286  53.520  1.00  0.00     0.040 C 
HETATM   32  C   UNL     1       7.940  24.736  52.140  1.00  0.00     0.017 C 
BRANCH  31  33
HETATM   33  C   UNL     1       7.692  22.834  53.730  1.00  0.00     0.057 A 
HETATM   34  O   UNL     1       7.694  22.386  55.018  1.00  0.00    -0.319 OA
HETATM   35  C   UNL     1       7.899  21.039  54.970  1.00  0.00     0.049 A 
HETATM   36  C   UNL     1       7.917  20.314  56.258  1.00  0.00     0.076 C 
HETATM   37  C   UNL     1       8.038  20.627  53.663  1.00  0.00     0.035 A 
HETATM   38  C   UNL     1       7.905  21.784  52.862  1.00  0.00     0.035 A 
ENDBRANCH  31  33
ENDBRANCH  30  31
ENDBRANCH  29  30
ENDBRANCH   1  29
TORSDOF 8
ENDMDL
MODEL 3
REMARK VINA RESULT:      -9.2      1.694      4.799
REMARK  8 active torsions:
REMARK  status: ('A' for Active; 'I' for Inactive)
REMARK    1  A    between atoms: C_4  and  C_5 
REMARK    2  A    between atoms: C_5  and  C_6 
REMARK    3  A    between atoms: C_6  and  C_7 
REMARK    4  A    between atoms: C_7  and  N_8 
REMARK    5  A    between atoms: C_17  and  C_18 
REMARK    6  A    between atoms: C_18  and  N_19 
REMARK    7  A    between atoms: C_23  and  O_24 
REMARK    8  A    between atoms: C_23  and  C_25 
ROOT
HETATM    1  N   UNL     1       8.244  27.826  56.769  1.00  0.00    -0.065 N 
HETATM    2  H   UNL     1       9.240  27.602  56.896  1.00  0.00     0.280 HD
HETATM    3  C   UNL     1       8.129  28.428  55.383  1.00  0.00     0.276 C 
HETATM    4  C   UNL     1       6.716  28.632  54.908  1.00  0.00     0.001 A 
HETATM    5  C   UNL     1       5.899  29.560  55.556  1.00  0.00     0.076 A 
HETATM    6  O   UNL     1       6.371  30.278  56.618  1.00  0.00    -0.349 OA
HETATM    7  C   UNL     1       6.535  29.448  57.778  1.00  0.00     0.203 C 
HETATM    8  C   UNL     1       7.951  28.862  57.858  1.00  0.00     0.261 C 
HETATM    9  C   UNL     1       6.179  27.900  53.834  1.00  0.00     0.020 A 
HETATM   10  C   UNL     1       4.846  28.092  53.417  1.00  0.00    -0.032 A 
HETATM   11  C   UNL     1       4.069  29.066  54.062  1.00  0.00     0.011 A 
HETATM   12  C   UNL     1       4.601  29.805  55.121  1.00  0.00     0.038 A 
ENDROOT
BRANCH  10  13
HETATM   13  C   UNL     1       4.249  27.239  52.322  1.00  0.00     0.273 C 
BRANCH  13  14
HETATM   14  N   UNL     1       4.992  27.250  50.999  1.00  0.00    -0.067 N 
HETATM   15  H   UNL     1       5.977  27.032  51.210  1.00  0.00     0.280 HD
HETATM   16  C   UNL     1       4.499  26.193  50.041  1.00  0.00     0.238 C 
HETATM   17  C   UNL     1       5.255  26.286  48.729  1.00  0.00     0.071 C 
HETATM   18  C   UNL     1       5.076  27.662  48.059  1.00  0.00     0.089 C 
HETATM   19  C   UNL     1       5.636  28.697  49.054  1.00  0.00     0.071 C 
HETATM   20  C   UNL     1       4.956  28.646  50.412  1.00  0.00     0.238 C 
BRANCH  18  21
HETATM   21  O   UNL     1       5.947  27.680  46.929  1.00  0.00    -0.385 OA
HETATM   22  H   UNL     1       6.362  28.559  46.836  1.00  0.00     0.211 HD
ENDBRANCH  18  21
BRANCH  18  23
HETATM   23  C   UNL     1       3.651  27.898  47.571  1.00  0.00    -0.006 A 
HETATM   24  C   UNL     1       3.136  29.163  47.289  1.00  0.00     0.126 A 
HETATM   25  N   UNL     1       1.857  29.412  46.938  1.00  0.00    -0.272 NA
HETATM   26  C   UNL     1       1.044  28.353  46.758  1.00  0.00     0.116 A 
HETATM   27  C   UNL     1       1.459  27.048  46.938  1.00  0.00     0.020 A 
HETATM   28  C   UNL     1       2.774  26.824  47.343  1.00  0.00     0.013 A 
ENDBRANCH  18  23
ENDBRANCH  13  14
ENDBRANCH  10  13
BRANCH   1  29
HETATM   29  C   UNL     1       7.495  26.517  56.988  1.00  0.00     0.236 C 
BRANCH  29  30
HETATM   30  C   UNL     1       8.438  25.315  56.873  1.00  0.00     0.039 C 
BRANCH  30  31
HETATM   31  C   UNL     1       7.741  23.970  56.586  1.00  0.00     0.040 C 
HETATM   32  C   UNL     1       8.319  22.818  57.413  1.00  0.00     0.017 C 
BRANCH  31  33
HETATM   33  C   UNL     1       7.727  23.638  55.136  1.00  0.00     0.057 A 
HETATM   34  O   UNL     1       7.664  24.682  54.262  1.00  0.00    -0.319 OA
HETATM   35  C   UNL     1       7.696  24.151  53.006  1.00  0.00     0.049 A 
HETATM   36  C   UNL     1       7.665  25.100  51.873  1.00  0.00     0.076 C 
HETATM   37  C   UNL     1       7.767  22.778  53.073  1.00  0.00     0.035 A 
HETATM   38  C   UNL     1       7.787  22.445  54.448  1.00  0.00     0.035 A 
ENDBRANCH  31  33
ENDBRANCH  30  31
ENDBRANCH  29  30
ENDBRANCH   1  29
TORSDOF 8
ENDMDL
MODEL 4
REMARK VINA RESULT:      -9.2      3.907      7.310
REMARK  8 active torsions:
REMARK  status: ('A' for Active; 'I' for Inactive)
REMARK    1  A    between atoms: C_4  and  C_5 
REMARK    2  A    between atoms: C_5  and  C_6 
REMARK    3  A    between atoms: C_6  and  C_7 
REMARK    4  A    between atoms: C_7  and  N_8 
REMARK    5  A    between atoms: C_17  and  C_18 
REMARK    6  A    between atoms: C_18  and  N_19 
REMARK    7  A    between atoms: C_23  and  O_24 
REMARK    8  A    between atoms: C_23  and  C_25 
ROOT
HETATM    1  N   UNL     1       5.740  33.067  59.932  1.00  0.00    -0.065 N 
HETATM    2  H   UNL     1       6.400  33.801  60.223  1.00  0.00     0.280 HD
HETATM    3  C   UNL     1       6.045  32.795  58.472  1.00  0.00     0.276 C 
HETATM    4  C   UNL     1       5.335  31.598  57.900  1.00  0.00     0.001 A 
HETATM    5  C   UNL     1       3.944  31.618  57.775  1.00  0.00     0.076 A 
HETATM    6  O   UNL     1       3.227  32.713  58.170  1.00  0.00    -0.349 OA
HETATM    7  C   UNL     1       3.210  32.836  59.601  1.00  0.00     0.203 C 
HETATM    8  C   UNL     1       4.362  33.712  60.106  1.00  0.00     0.261 C 
HETATM    9  C   UNL     1       6.027  30.441  57.501  1.00  0.00     0.020 A 
HETATM   10  C   UNL     1       5.340  29.323  56.986  1.00  0.00    -0.032 A 
HETATM   11  C   UNL     1       3.947  29.397  56.831  1.00  0.00     0.011 A 
HETATM   12  C   UNL     1       3.256  30.548  57.214  1.00  0.00     0.038 A 
ENDROOT
BRANCH  10  13
HETATM   13  C   UNL     1       6.081  28.052  56.644  1.00  0.00     0.273 C 
BRANCH  13  14
HETATM   14  N   UNL     1       6.201  27.736  55.165  1.00  0.00    -0.067 N 
HETATM   15  H   UNL     1       5.984  28.607  54.657  1.00  0.00     0.280 HD
HETATM   16  C   UNL     1       7.597  27.325  54.763  1.00  0.00     0.238 C 
HETATM   17  C   UNL     1       7.636  26.987  53.285  1.00  0.00     0.071 C 
HETATM   18  C   UNL     1       6.676  25.833  52.935  1.00  0.00     0.089 C 
HETATM   19  C   UNL     1       5.265  26.320  53.317  1.00  0.00     0.071 C 
HETATM   20  C   UNL     1       5.148  26.717  54.780  1.00  0.00     0.238 C 
BRANCH  18  21
HETATM   21  O   UNL     1       6.687  25.714  51.513  1.00  0.00    -0.385 OA
HETATM   22  H   UNL     1       5.815  25.955  51.146  1.00  0.00     0.211 HD
ENDBRANCH  18  21
BRANCH  18  23
HETATM   23  C   UNL     1       7.114  24.500  53.532  1.00  0.00    -0.006 A 
HETATM   24  C   UNL     1       6.765  24.083  54.815  1.00  0.00     0.126 A 
HETATM   25  N   UNL     1       7.206  22.950  55.402  1.00  0.00    -0.272 NA
HETATM   26  C   UNL     1       7.964  22.120  54.660  1.00  0.00     0.116 A 
HETATM   27  C   UNL     1       8.318  22.392  53.353  1.00  0.00     0.020 A 
HETATM   28  C   UNL     1       7.884  23.590  52.787  1.00  0.00     0.013 A 
ENDBRANCH  18  23
ENDBRANCH  13  14
ENDBRANCH  10  13
BRANCH   1  29
HETATM   29  C   UNL     1       5.968  31.901  60.886  1.00  0.00     0.236 C 
BRANCH  29  30
HETATM   30  C   UNL     1       7.370  31.959  61.502  1.00  0.00     0.039 C 
BRANCH  30  31
HETATM   31  C   UNL     1       8.255  30.730  61.212  1.00  0.00     0.040 C 
HETATM   32  C   UNL     1       9.188  30.386  62.377  1.00  0.00     0.017 C 
BRANCH  31  33
HETATM   33  C   UNL     1       9.013  30.866  59.939  1.00  0.00     0.057 A 
HETATM   34  O   UNL     1       9.015  29.790  59.101  1.00  0.00    -0.319 OA
HETATM   35  C   UNL     1       9.732  30.147  57.998  1.00  0.00     0.049 A 
HETATM   36  C   UNL     1       9.856  29.143  56.921  1.00  0.00     0.076 C 
HETATM   37  C   UNL     1      10.195  31.438  58.130  1.00  0.00     0.035 A 
HETATM   38  C   UNL     1       9.732  31.902  59.383  1.00  0.00     0.035 A 
ENDBRANCH  31  33
ENDBRANCH  30  31
ENDBRANCH  29  30
ENDBRANCH   1  29
TORSDOF 8
ENDMDL
MODEL 5
REMARK VINA RESULT:      -9.1      2.842      9.711
REMARK  8 active torsions:
REMARK  status: ('A' for Active; 'I' for Inactive)
REMARK    1  A    between atoms: C_4  and  C_5 
REMARK    2  A    between atoms: C_5  and  C_6 
REMARK    3  A    between atoms: C_6  and  C_7 
REMARK    4  A    between atoms: C_7  and  N_8 
REMARK    5  A    between atoms: C_17  and  C_18 
REMARK    6  A    between atoms: C_18  and  N_19 
REMARK    7  A    between atoms: C_23  and  O_24 
REMARK    8  A    between atoms: C_23  and  C_25 
ROOT
HETATM    1  N   UNL     1       5.546  25.647  51.913  1.00  0.00    -0.065 N 
HETATM    2  H   UNL     1       5.515  24.661  51.621  1.00  0.00     0.280 HD
HETATM    3  C   UNL     1       4.638  25.746  53.123  1.00  0.00     0.276 C 
HETATM    4  C   UNL     1       4.703  27.066  53.843  1.00  0.00     0.001 A 
HETATM    5  C   UNL     1       4.250  28.222  53.204  1.00  0.00     0.076 A 
HETATM    6  O   UNL     1       3.753  28.163  51.933  1.00  0.00    -0.349 OA
HETATM    7  C   UNL     1       4.795  27.911  50.977  1.00  0.00     0.203 C 
HETATM    8  C   UNL     1       4.971  26.410  50.716  1.00  0.00     0.261 C 
HETATM    9  C   UNL     1       5.227  27.180  55.144  1.00  0.00     0.020 A 
HETATM   10  C   UNL     1       5.297  28.429  55.793  1.00  0.00    -0.032 A 
HETATM   11  C   UNL     1       4.789  29.562  55.138  1.00  0.00     0.011 A 
HETATM   12  C   UNL     1       4.256  29.452  53.852  1.00  0.00     0.038 A 
ENDROOT
BRANCH  10  13
HETATM   13  C   UNL     1       5.943  28.556  57.153  1.00  0.00     0.273 C 
BRANCH  13  14
HETATM   14  N   UNL     1       6.975  29.660  57.291  1.00  0.00    -0.067 N 
HETATM   15  H   UNL     1       7.243  29.938  56.336  1.00  0.00     0.280 HD
HETATM   16  C   UNL     1       6.428  30.891  57.973  1.00  0.00     0.238 C 
HETATM   17  C   UNL     1       7.518  31.937  58.114  1.00  0.00     0.071 C 
HETATM   18  C   UNL     1       8.708  31.417  58.944  1.00  0.00     0.089 C 
HETATM   19  C   UNL     1       9.257  30.195  58.184  1.00  0.00     0.071 C 
HETATM   20  C   UNL     1       8.215  29.110  57.966  1.00  0.00     0.238 C 
BRANCH  18  21
HETATM   21  O   UNL     1       9.720  32.420  58.875  1.00  0.00    -0.385 OA
HETATM   22  H   UNL     1       9.376  33.271  59.209  1.00  0.00     0.211 HD
ENDBRANCH  18  21
BRANCH  18  23
HETATM   23  C   UNL     1       8.351  31.195  60.410  1.00  0.00    -0.006 A 
HETATM   24  C   UNL     1       7.177  31.667  60.993  1.00  0.00     0.126 A 
HETATM   25  N   UNL     1       6.873  31.561  62.305  1.00  0.00    -0.272 NA
HETATM   26  C   UNL     1       7.724  30.868  63.086  1.00  0.00     0.116 A 
HETATM   27  C   UNL     1       8.884  30.293  62.607  1.00  0.00     0.020 A 
HETATM   28  C   UNL     1       9.194  30.456  61.258  1.00  0.00     0.013 A 
ENDBRANCH  18  23
ENDBRANCH  13  14
ENDBRANCH  10  13
BRANCH   1  29
HETATM   29  C   UNL     1       7.017  25.961  52.159  1.00  0.00     0.236 C 
BRANCH  29  30
HETATM   30  C   UNL     1       7.800  24.693  52.512  1.00  0.00     0.039 C 
BRANCH  30  31
HETATM   31  C   UNL     1       7.380  24.020  53.834  1.00  0.00     0.040 C 
HETATM   32  C   UNL     1       7.907  24.760  55.067  1.00  0.00     0.017 C 
BRANCH  31  33
HETATM   33  C   UNL     1       7.744  22.578  53.876  1.00  0.00     0.057 A 
HETATM   34  O   UNL     1       7.917  22.018  55.106  1.00  0.00    -0.319 OA
HETATM   35  C   UNL     1       8.209  20.701  54.906  1.00  0.00     0.049 A 
HETATM   36  C   UNL     1       8.416  19.866  56.108  1.00  0.00     0.076 C 
HETATM   37  C   UNL     1       8.233  20.420  53.558  1.00  0.00     0.035 A 
HETATM   38  C   UNL     1       7.934  21.632  52.892  1.00  0.00     0.035 A 
ENDBRANCH  31  33
ENDBRANCH  30  31
ENDBRANCH  29  30
ENDBRANCH   1  29
TORSDOF 8
ENDMDL
MODEL 6
REMARK VINA RESULT:      -9.1      2.318      7.813
REMARK  8 active torsions:
REMARK  status: ('A' for Active; 'I' for Inactive)
REMARK    1  A    between atoms: C_4  and  C_5 
REMARK    2  A    between atoms: C_5  and  C_6 
REMARK    3  A    between atoms: C_6  and  C_7 
REMARK    4  A    between atoms: C_7  and  N_8 
REMARK    5  A    between atoms: C_17  and  C_18 
REMARK    6  A    between atoms: C_18  and  N_19 
REMARK    7  A    between atoms: C_23  and  O_24 
REMARK    8  A    between atoms: C_23  and  C_25 
ROOT
HETATM    1  N   UNL     1       4.366  31.429  50.609  1.00  0.00    -0.065 N 
HETATM    2  H   UNL     1       4.856  32.242  51.006  1.00  0.00     0.280 HD
HETATM    3  C   UNL     1       5.452  30.483  50.138  1.00  0.00     0.276 C 
HETATM    4  C   UNL     1       4.956  29.126  49.716  1.00  0.00     0.001 A 
HETATM    5  C   UNL     1       4.141  29.012  48.587  1.00  0.00     0.076 A 
HETATM    6  O   UNL     1       3.790  30.121  47.870  1.00  0.00    -0.349 OA
HETATM    7  C   UNL     1       2.858  30.938  48.595  1.00  0.00     0.203 C 
HETATM    8  C   UNL     1       3.575  32.006  49.431  1.00  0.00     0.261 C 
HETATM    9  C   UNL     1       5.272  27.960  50.435  1.00  0.00     0.020 A 
HETATM   10  C   UNL     1       4.780  26.701  50.032  1.00  0.00    -0.032 A 
HETATM   11  C   UNL     1       4.003  26.619  48.867  1.00  0.00     0.011 A 
HETATM   12  C   UNL     1       3.696  27.772  48.142  1.00  0.00     0.038 A 
ENDROOT
BRANCH  10  13
HETATM   13  C   UNL     1       5.050  25.467  50.861  1.00  0.00     0.273 C 
BRANCH  13  14
HETATM   14  N   UNL     1       5.704  25.708  52.208  1.00  0.00    -0.067 N 
HETATM   15  H   UNL     1       5.553  26.701  52.439  1.00  0.00     0.280 HD
HETATM   16  C   UNL     1       5.080  24.895  53.317  1.00  0.00     0.238 C 
HETATM   17  C   UNL     1       5.805  25.154  54.625  1.00  0.00     0.071 C 
HETATM   18  C   UNL     1       7.298  24.780  54.537  1.00  0.00     0.089 C 
HETATM   19  C   UNL     1       7.895  25.668  53.429  1.00  0.00     0.071 C 
HETATM   20  C   UNL     1       7.200  25.497  52.088  1.00  0.00     0.238 C 
BRANCH  18  21
HETATM   21  O   UNL     1       7.895  25.209  55.760  1.00  0.00    -0.385 OA
HETATM   22  H   UNL     1       8.694  25.740  55.578  1.00  0.00     0.211 HD
ENDBRANCH  18  21
BRANCH  18  23
HETATM   23  C   UNL     1       7.521  23.279  54.393  1.00  0.00    -0.006 A 
HETATM   24  C   UNL     1       7.392  22.380  55.450  1.00  0.00     0.126 A 
HETATM   25  N   UNL     1       7.666  21.059  55.375  1.00  0.00    -0.272 NA
HETATM   26  C   UNL     1       8.000  20.562  54.168  1.00  0.00     0.116 A 
HETATM   27  C   UNL     1       8.091  21.342  53.033  1.00  0.00     0.020 A 
HETATM   28  C   UNL     1       7.845  22.709  53.150  1.00  0.00     0.013 A 
ENDBRANCH  18  23
ENDBRANCH  13  14
ENDBRANCH  10  13
BRANCH   1  29
HETATM   29  C   UNL     1       3.464  30.905  51.721  1.00  0.00     0.236 C 
BRANCH  29  30
HETATM   30  C   UNL     1       4.262  30.649  53.003  1.00  0.00     0.039 C 
BRANCH  30  31
HETATM   31  C   UNL     1       4.432  29.162  53.375  1.00  0.00     0.040 C 
HETATM   32  C   UNL     1       3.164  28.342  53.119  1.00  0.00     0.017 C 
BRANCH  31  33
HETATM   33  C   UNL     1       4.920  28.979  54.768  1.00  0.00     0.057 A 
HETATM   34  O   UNL     1       6.262  28.817  54.938  1.00  0.00    -0.319 OA
HETATM   35  C   UNL     1       6.482  28.702  56.279  1.00  0.00     0.049 A 
HETATM   36  C   UNL     1       7.884  28.542  56.721  1.00  0.00     0.076 C 
HETATM   37  C   UNL     1       5.289  28.778  56.963  1.00  0.00     0.035 A 
HETATM   38  C   UNL     1       4.280  28.955  55.989  1.00  0.00     0.035 A 
ENDBRANCH  31  33
ENDBRANCH  30  31
ENDBRANCH  29  30
ENDBRANCH   1  29
TORSDOF 8
ENDMDL
MODEL 7
REMARK VINA RESULT:      -9.1      1.384      1.923
REMARK  8 active torsions:
REMARK  status: ('A' for Active; 'I' for Inactive)
REMARK    1  A    between atoms: C_4  and  C_5 
REMARK    2  A    between atoms: C_5  and  C_6 
REMARK    3  A    between atoms: C_6  and  C_7 
REMARK    4  A    between atoms: C_7  and  N_8 
REMARK    5  A    between atoms: C_17  and  C_18 
REMARK    6  A    between atoms: C_18  and  N_19 
REMARK    7  A    between atoms: C_23  and  O_24 
REMARK    8  A    between atoms: C_23  and  C_25 
ROOT
HETATM    1  N   UNL     1       7.188  27.233  57.533  1.00  0.00    -0.065 N 
HETATM    2  H   UNL     1       7.148  27.726  58.434  1.00  0.00     0.280 HD
HETATM    3  C   UNL     1       5.748  27.048  57.100  1.00  0.00     0.276 C 
HETATM    4  C   UNL     1       5.580  26.534  55.696  1.00  0.00     0.001 A 
HETATM    5  C   UNL     1       6.012  25.244  55.379  1.00  0.00     0.076 A 
HETATM    6  O   UNL     1       6.586  24.451  56.332  1.00  0.00    -0.349 OA
HETATM    7  C   UNL     1       7.897  24.921  56.682  1.00  0.00     0.203 C 
HETATM    8  C   UNL     1       7.850  25.893  57.868  1.00  0.00     0.261 C 
HETATM    9  C   UNL     1       5.016  27.321  54.676  1.00  0.00     0.020 A 
HETATM   10  C   UNL     1       4.887  26.827  53.362  1.00  0.00    -0.032 A 
HETATM   11  C   UNL     1       5.289  25.510  53.092  1.00  0.00     0.011 A 
HETATM   12  C   UNL     1       5.838  24.719  54.103  1.00  0.00     0.038 A 
ENDROOT
BRANCH  10  13
HETATM   13  C   UNL     1       4.363  27.710  52.254  1.00  0.00     0.273 C 
BRANCH  13  14
HETATM   14  N   UNL     1       5.043  27.550  50.907  1.00  0.00    -0.067 N 
HETATM   15  H   UNL     1       6.002  27.224  51.095  1.00  0.00     0.280 HD
HETATM   16  C   UNL     1       4.383  26.508  50.037  1.00  0.00     0.238 C 
HETATM   17  C   UNL     1       5.086  26.428  48.695  1.00  0.00     0.071 C 
HETATM   18  C   UNL     1       5.046  27.774  47.945  1.00  0.00     0.089 C 
HETATM   19  C   UNL     1       5.772  28.787  48.850  1.00  0.00     0.071 C 
HETATM   20  C   UNL     1       5.151  28.903  50.233  1.00  0.00     0.238 C 
BRANCH  18  21
HETATM   21  O   UNL     1       5.863  27.616  46.785  1.00  0.00    -0.385 OA
HETATM   22  H   UNL     1       5.311  27.396  46.010  1.00  0.00     0.211 HD
ENDBRANCH  18  21
BRANCH  18  23
HETATM   23  C   UNL     1       3.641  28.156  47.495  1.00  0.00    -0.006 A 
HETATM   24  C   UNL     1       3.235  29.473  47.284  1.00  0.00     0.126 A 
HETATM   25  N   UNL     1       1.977  29.849  46.969  1.00  0.00    -0.272 NA
HETATM   26  C   UNL     1       1.073  28.875  46.753  1.00  0.00     0.116 A 
HETATM   27  C   UNL     1       1.375  27.532  46.862  1.00  0.00     0.020 A 
HETATM   28  C   UNL     1       2.671  27.174  47.231  1.00  0.00     0.013 A 
ENDBRANCH  18  23
ENDBRANCH  13  14
ENDBRANCH  10  13
BRANCH   1  29
HETATM   29  C   UNL     1       8.049  28.101  56.623  1.00  0.00     0.236 C 
BRANCH  29  30
HETATM   30  C   UNL     1       8.614  29.305  57.382  1.00  0.00     0.039 C 
BRANCH  30  31
HETATM   31  C   UNL     1       7.669  29.902  58.445  1.00  0.00     0.040 C 
HETATM   32  C   UNL     1       6.473  30.632  57.827  1.00  0.00     0.017 C 
BRANCH  31  33
HETATM   33  C   UNL     1       8.387  30.771  59.416  1.00  0.00     0.057 A 
HETATM   34  O   UNL     1       7.803  30.951  60.635  1.00  0.00    -0.319 OA
HETATM   35  C   UNL     1       8.640  31.744  61.363  1.00  0.00     0.049 A 
HETATM   36  C   UNL     1       8.232  32.063  62.747  1.00  0.00     0.076 C 
HETATM   37  C   UNL     1       9.747  32.079  60.614  1.00  0.00     0.035 A 
HETATM   38  C   UNL     1       9.584  31.452  59.357  1.00  0.00     0.035 A 
ENDBRANCH  31  33
ENDBRANCH  30  31
ENDBRANCH  29  30
ENDBRANCH   1  29
TORSDOF 8
ENDMDL
MODEL 8
REMARK VINA RESULT:      -9.0      1.670      2.263
REMARK  8 active torsions:
REMARK  status: ('A' for Active; 'I' for Inactive)
REMARK    1  A    between atoms: C_4  and  C_5 
REMARK    2  A    between atoms: C_5  and  C_6 
REMARK    3  A    between atoms: C_6  and  C_7 
REMARK    4  A    between atoms: C_7  and  N_8 
REMARK    5  A    between atoms: C_17  and  C_18 
REMARK    6  A    between atoms: C_18  and  N_19 
REMARK    7  A    between atoms: C_23  and  O_24 
REMARK    8  A    between atoms: C_23  and  C_25 
ROOT
HETATM    1  N   UNL     1       7.276  25.133  57.083  1.00  0.00    -0.065 N 
HETATM    2  H   UNL     1       6.893  25.180  58.036  1.00  0.00     0.280 HD
HETATM    3  C   UNL     1       6.079  25.010  56.162  1.00  0.00     0.276 C 
HETATM    4  C   UNL     1       6.403  25.141  54.699  1.00  0.00     0.001 A 
HETATM    5  C   UNL     1       7.187  24.167  54.077  1.00  0.00     0.076 A 
HETATM    6  O   UNL     1       7.661  23.101  54.788  1.00  0.00    -0.349 OA
HETATM    7  C   UNL     1       8.693  23.502  55.703  1.00  0.00     0.203 C 
HETATM    8  C   UNL     1       8.119  23.854  57.082  1.00  0.00     0.261 C 
HETATM    9  C   UNL     1       5.955  26.232  53.931  1.00  0.00     0.020 A 
HETATM   10  C   UNL     1       6.287  26.346  52.566  1.00  0.00    -0.032 A 
HETATM   11  C   UNL     1       7.037  25.323  51.964  1.00  0.00     0.011 A 
HETATM   12  C   UNL     1       7.473  24.232  52.718  1.00  0.00     0.038 A 
ENDROOT
BRANCH  10  13
HETATM   13  C   UNL     1       5.878  27.564  51.772  1.00  0.00     0.273 C 
BRANCH  13  14
HETATM   14  N   UNL     1       4.520  27.487  51.100  1.00  0.00    -0.067 N 
HETATM   15  H   UNL     1       4.008  26.715  51.551  1.00  0.00     0.280 HD
HETATM   16  C   UNL     1       3.698  28.738  51.295  1.00  0.00     0.238 C 
HETATM   17  C   UNL     1       2.373  28.610  50.567  1.00  0.00     0.071 C 
HETATM   18  C   UNL     1       2.569  28.396  49.053  1.00  0.00     0.089 C 
HETATM   19  C   UNL     1       3.368  27.087  48.908  1.00  0.00     0.071 C 
HETATM   20  C   UNL     1       4.699  27.117  49.642  1.00  0.00     0.238 C 
BRANCH  18  21
HETATM   21  O   UNL     1       1.274  28.138  48.510  1.00  0.00    -0.385 OA
HETATM   22  H   UNL     1       1.330  27.455  47.814  1.00  0.00     0.211 HD
ENDBRANCH  18  21
BRANCH  18  23
HETATM   23  C   UNL     1       3.147  29.621  48.355  1.00  0.00    -0.006 A 
HETATM   24  C   UNL     1       2.838  30.930  48.722  1.00  0.00     0.126 A 
HETATM   25  N   UNL     1       3.266  32.033  48.070  1.00  0.00    -0.272 NA
HETATM   26  C   UNL     1       4.126  31.857  47.049  1.00  0.00     0.116 A 
HETATM   27  C   UNL     1       4.560  30.612  46.638  1.00  0.00     0.020 A 
HETATM   28  C   UNL     1       4.068  29.489  47.301  1.00  0.00     0.013 A 
ENDBRANCH  18  23
ENDBRANCH  13  14
ENDBRANCH  10  13
BRANCH   1  29
HETATM   29  C   UNL     1       8.119  26.391  56.913  1.00  0.00     0.236 C 
BRANCH  29  30
HETATM   30  C   UNL     1       7.545  27.554  57.728  1.00  0.00     0.039 C 
BRANCH  30  31
HETATM   31  C   UNL     1       8.110  28.942  57.363  1.00  0.00     0.040 C 
HETATM   32  C   UNL     1       9.576  28.886  56.926  1.00  0.00     0.017 C 
BRANCH  31  33
HETATM   33  C   UNL     1       7.909  29.938  58.449  1.00  0.00     0.057 A 
HETATM   34  O   UNL     1       8.706  29.823  59.550  1.00  0.00    -0.319 OA
HETATM   35  C   UNL     1       8.375  30.846  60.388  1.00  0.00     0.049 A 
HETATM   36  C   UNL     1       9.130  30.951  61.654  1.00  0.00     0.076 C 
HETATM   37  C   UNL     1       7.367  31.605  59.836  1.00  0.00     0.035 A 
HETATM   38  C   UNL     1       7.065  31.019  58.585  1.00  0.00     0.035 A 
ENDBRANCH  31  33
ENDBRANCH  30  31
ENDBRANCH  29  30
ENDBRANCH   1  29
TORSDOF 8
ENDMDL
MODEL 9
REMARK VINA RESULT:      -8.9      4.798     10.861
REMARK  8 active torsions:
REMARK  status: ('A' for Active; 'I' for Inactive)
REMARK    1  A    between atoms: C_4  and  C_5 
REMARK    2  A    between atoms: C_5  and  C_6 
REMARK    3  A    between atoms: C_6  and  C_7 
REMARK    4  A    between atoms: C_7  and  N_8 
REMARK    5  A    between atoms: C_17  and  C_18 
REMARK    6  A    between atoms: C_18  and  N_19 
REMARK    7  A    between atoms: C_23  and  O_24 
REMARK    8  A    between atoms: C_23  and  C_25 
ROOT
HETATM    1  N   UNL     1       4.887  27.436  54.929  1.00  0.00    -0.065 N 
HETATM    2  H   UNL     1       4.687  26.430  55.012  1.00  0.00     0.280 HD
HETATM    3  C   UNL     1       4.232  28.086  56.131  1.00  0.00     0.276 C 
HETATM    4  C   UNL     1       4.583  29.537  56.323  1.00  0.00     0.001 A 
HETATM    5  C   UNL     1       4.162  30.477  55.379  1.00  0.00     0.076 A 
HETATM    6  O   UNL     1       3.439  30.088  54.287  1.00  0.00    -0.349 OA
HETATM    7  C   UNL     1       4.253  29.357  53.356  1.00  0.00     0.203 C 
HETATM    8  C   UNL     1       4.200  27.848  53.624  1.00  0.00     0.261 C 
HETATM    9  C   UNL     1       5.344  29.981  57.419  1.00  0.00     0.020 A 
HETATM   10  C   UNL     1       5.678  31.343  57.569  1.00  0.00    -0.032 A 
HETATM   11  C   UNL     1       5.198  32.265  56.626  1.00  0.00     0.011 A 
HETATM   12  C   UNL     1       4.432  31.831  55.543  1.00  0.00     0.038 A 
ENDROOT
BRANCH  10  13
HETATM   13  C   UNL     1       6.570  31.798  58.700  1.00  0.00     0.273 C 
BRANCH  13  14
HETATM   14  N   UNL     1       5.954  31.747  60.086  1.00  0.00    -0.067 N 
HETATM   15  H   UNL     1       5.856  30.750  60.331  1.00  0.00     0.280 HD
HETATM   16  C   UNL     1       6.831  32.379  61.140  1.00  0.00     0.238 C 
HETATM   17  C   UNL     1       6.141  32.329  62.490  1.00  0.00     0.071 C 
HETATM   18  C   UNL     1       4.794  33.078  62.474  1.00  0.00     0.089 C 
HETATM   19  C   UNL     1       3.923  32.366  61.420  1.00  0.00     0.071 C 
HETATM   20  C   UNL     1       4.561  32.339  60.041  1.00  0.00     0.238 C 
BRANCH  18  21
HETATM   21  O   UNL     1       4.177  32.830  63.737  1.00  0.00    -0.385 OA
HETATM   22  H   UNL     1       4.406  31.936  64.056  1.00  0.00     0.211 HD
ENDBRANCH  18  21
BRANCH  18  23
HETATM   23  C   UNL     1       4.959  34.584  62.307  1.00  0.00    -0.006 A 
HETATM   24  C   UNL     1       4.354  35.313  61.285  1.00  0.00     0.126 A 
HETATM   25  N   UNL     1       4.549  36.630  61.060  1.00  0.00    -0.272 NA
HETATM   26  C   UNL     1       5.310  37.305  61.943  1.00  0.00     0.116 A 
HETATM   27  C   UNL     1       5.905  36.705  63.036  1.00  0.00     0.020 A 
HETATM   28  C   UNL     1       5.722  35.336  63.217  1.00  0.00     0.013 A 
ENDBRANCH  18  23
ENDBRANCH  13  14
ENDBRANCH  10  13
BRANCH   1  29
HETATM   29  C   UNL     1       6.405  27.553  54.856  1.00  0.00     0.236 C 
BRANCH  29  30
HETATM   30  C   UNL     1       7.032  26.263  54.317  1.00  0.00     0.039 C 
BRANCH  30  31
HETATM   31  C   UNL     1       6.566  24.973  55.023  1.00  0.00     0.040 C 
HETATM   32  C   UNL     1       6.843  24.991  56.529  1.00  0.00     0.017 C 
BRANCH  31  33
HETATM   33  C   UNL     1       7.123  23.748  54.388  1.00  0.00     0.057 A 
HETATM   34  O   UNL     1       7.337  22.673  55.198  1.00  0.00    -0.319 OA
HETATM   35  C   UNL     1       7.812  21.668  54.407  1.00  0.00     0.049 A 
HETATM   36  C   UNL     1       8.099  20.374  55.062  1.00  0.00     0.076 C 
HETATM   37  C   UNL     1       7.911  22.098  53.102  1.00  0.00     0.035 A 
HETATM   38  C   UNL     1       7.467  23.441  53.089  1.00  0.00     0.035 A 
ENDBRANCH  31  33
ENDBRANCH  30  31
ENDBRANCH  29  30
ENDBRANCH   1  29
TORSDOF 8
ENDMDL
MODEL 10
REMARK VINA RESULT:      -8.9      3.048      7.980
REMARK  8 active torsions:
REMARK  status: ('A' for Active; 'I' for Inactive)
REMARK    1  A    between atoms: C_4  and  C_5 
REMARK    2  A    between atoms: C_5  and  C_6 
REMARK    3  A    between atoms: C_6  and  C_7 
REMARK    4  A    between atoms: C_7  and  N_8 
REMARK    5  A    between atoms: C_17  and  C_18 
REMARK    6  A    between atoms: C_18  and  N_19 
REMARK    7  A    between atoms: C_23  and  O_24 
REMARK    8  A    between atoms: C_23  and  C_25 
ROOT
HETATM    1  N   UNL     1       8.535  22.059  52.884  1.00  0.00    -0.065 N 
HETATM    2  H   UNL     1       8.954  22.115  51.947  1.00  0.00     0.280 HD
HETATM    3  C   UNL     1       9.608  22.530  53.845  1.00  0.00     0.276 C 
HETATM    4  C   UNL     1       9.133  22.732  55.259  1.00  0.00     0.001 A 
HETATM    5  C   UNL     1       8.716  21.630  56.008  1.00  0.00     0.076 A 
HETATM    6  O   UNL     1       8.734  20.376  55.467  1.00  0.00    -0.349 OA
HETATM    7  C   UNL     1       7.710  20.223  54.471  1.00  0.00     0.203 C 
HETATM    8  C   UNL     1       8.230  20.570  53.070  1.00  0.00     0.261 C 
HETATM    9  C   UNL     1       9.076  24.007  55.851  1.00  0.00     0.020 A 
HETATM   10  C   UNL     1       8.610  24.175  57.171  1.00  0.00    -0.032 A 
HETATM   11  C   UNL     1       8.243  23.040  57.909  1.00  0.00     0.011 A 
HETATM   12  C   UNL     1       8.310  21.771  57.331  1.00  0.00     0.038 A 
ENDROOT
BRANCH  10  13
HETATM   13  C   UNL     1       8.467  25.556  57.767  1.00  0.00     0.273 C 
BRANCH  13  14
HETATM   14  N   UNL     1       7.805  26.592  56.879  1.00  0.00    -0.067 N 
HETATM   15  H   UNL     1       7.591  26.125  55.985  1.00  0.00     0.280 HD
HETATM   16  C   UNL     1       6.497  27.096  57.440  1.00  0.00     0.238 C 
HETATM   17  C   UNL     1       5.910  28.154  56.525  1.00  0.00     0.071 C 
HETATM   18  C   UNL     1       6.857  29.359  56.360  1.00  0.00     0.089 C 
HETATM   19  C   UNL     1       8.154  28.801  55.742  1.00  0.00     0.071 C 
HETATM   20  C   UNL     1       8.790  27.704  56.581  1.00  0.00     0.238 C 
BRANCH  18  21
HETATM   21  O   UNL     1       6.272  30.203  55.369  1.00  0.00    -0.385 OA
HETATM   22  H   UNL     1       6.334  31.138  55.642  1.00  0.00     0.211 HD
ENDBRANCH  18  21
BRANCH  18  23
HETATM   23  C   UNL     1       7.015  30.165  57.645  1.00  0.00    -0.006 A 
HETATM   24  C   UNL     1       8.076  29.994  58.532  1.00  0.00     0.126 A 
HETATM   25  N   UNL     1       8.198  30.630  59.717  1.00  0.00    -0.272 NA
HETATM   26  C   UNL     1       7.275  31.564  60.019  1.00  0.00     0.116 A 
HETATM   27  C   UNL     1       6.217  31.871  59.187  1.00  0.00     0.020 A 
HETATM   28  C   UNL     1       6.092  31.167  57.990  1.00  0.00     0.013 A 
ENDBRANCH  18  23
ENDBRANCH  13  14
ENDBRANCH  10  13
BRANCH   1  29
HETATM   29  C   UNL     1       7.274  22.914  52.826  1.00  0.00     0.236 C 
BRANCH  29  30
HETATM   30  C   UNL     1       7.598  24.344  52.383  1.00  0.00     0.039 C 
BRANCH  30  31
HETATM   31  C   UNL     1       6.901  25.449  53.203  1.00  0.00     0.040 C 
HETATM   32  C   UNL     1       5.945  24.886  54.258  1.00  0.00     0.017 C 
BRANCH  31  33
HETATM   33  C   UNL     1       6.221  26.451  52.339  1.00  0.00     0.057 A 
HETATM   34  O   UNL     1       5.788  26.025  51.119  1.00  0.00    -0.319 OA
HETATM   35  C   UNL     1       5.175  27.087  50.522  1.00  0.00     0.049 A 
HETATM   36  C   UNL     1       4.592  26.862  49.182  1.00  0.00     0.076 C 
HETATM   37  C   UNL     1       5.223  28.188  51.348  1.00  0.00     0.035 A 
HETATM   38  C   UNL     1       5.899  27.779  52.521  1.00  0.00     0.035 A 
ENDBRANCH  31  33
ENDBRANCH  30  31
ENDBRANCH  29  30
ENDBRANCH   1  29
TORSDOF 8
ENDMDL
