MODEL 1
REMARK VINA RESULT:      -9.4      0.000      0.000
REMARK  6 active torsions:
REMARK  status: ('A' for Active; 'I' for Inactive)
REMARK    1  A    between atoms: C_4  and  C_5 
REMARK    2  A    between atoms: C_9  and  N_10 
REMARK       I    between atoms: N_10  and  C_11 
REMARK    3  A    between atoms: C_11  and  C_12 
REMARK    4  A    between atoms: C_12  and  C_13 
REMARK    5  A    between atoms: C_13  and  C_14 
REMARK    6  A    between atoms: C_13  and  C_20 
ROOT
HETATM    1  N   UNL     1       6.697  26.776  55.317  1.00  0.00    -0.312 N 
HETATM    2  C   UNL     1       6.033  25.578  55.464  1.00  0.00     0.224 C 
HETATM    3  O   UNL     1       5.296  25.329  56.424  1.00  0.00    -0.273 OA
HETATM    4  H   UNL     1       7.339  26.928  54.552  1.00  0.00     0.170 HD
ENDROOT
BRANCH   1   5
HETATM    5  C   UNL     1       6.609  27.790  56.253  1.00  0.00     0.132 A 
HETATM    6  N   UNL     1       5.435  28.392  56.625  1.00  0.00    -0.261 N 
HETATM    7  N   UNL     1       5.587  29.351  57.552  1.00  0.00    -0.170 NA
HETATM    8  H   UNL     1       4.507  28.170  56.272  1.00  0.00     0.191 HD
HETATM    9  C   UNL     1       6.907  29.361  57.786  1.00  0.00     0.120 A 
HETATM   10  C   UNL     1       7.602  28.396  56.996  1.00  0.00     0.017 A 
HETATM   11  C   UNL     1       9.059  28.119  56.993  1.00  0.00     0.055 C 
BRANCH   9  12
HETATM   12  C   UNL     1       7.529  30.298  58.773  1.00  0.00     0.106 A 
HETATM   13  O   UNL     1       8.371  29.923  59.785  1.00  0.00    -0.313 OA
HETATM   14  C   UNL     1       8.725  31.049  60.463  1.00  0.00     0.050 A 
HETATM   15  C   UNL     1       9.646  30.871  61.602  1.00  0.00     0.076 C 
HETATM   16  C   UNL     1       8.121  32.152  59.900  1.00  0.00     0.035 A 
HETATM   17  C   UNL     1       7.353  31.668  58.814  1.00  0.00     0.042 A 
ENDBRANCH   9  12
ENDBRANCH   1   5
BRANCH   2  18
HETATM   18  C   UNL     1       6.203  24.530  54.368  1.00  0.00     0.116 C 
BRANCH  18  19
HETATM   19  C   UNL     1       7.623  24.158  53.895  1.00  0.00     0.049 C 
BRANCH  19  20
HETATM   20  C   UNL     1       8.005  22.695  54.108  1.00  0.00    -0.050 A 
HETATM   21  C   UNL     1       8.138  21.786  53.047  1.00  0.00     0.008 A 
HETATM   22  C   UNL     1       8.458  20.448  53.292  1.00  0.00     0.001 A 
HETATM   23  C   UNL     1       8.660  20.003  54.596  1.00  0.00     0.000 A 
HETATM   24  C   UNL     1       8.555  20.896  55.657  1.00  0.00     0.001 A 
HETATM   25  C   UNL     1       8.235  22.233  55.417  1.00  0.00     0.008 A 
ENDBRANCH  19  20
BRANCH  19  26
HETATM   26  C   UNL     1       7.821  24.644  52.467  1.00  0.00    -0.027 C 
HETATM   27  C   UNL     1       7.003  25.408  51.731  1.00  0.00     0.007 C 
ENDBRANCH  19  26
ENDBRANCH  18  19
ENDBRANCH   2  18
TORSDOF 6
ENDMDL
MODEL 2
REMARK VINA RESULT:      -9.0      4.947      8.573
REMARK  6 active torsions:
REMARK  status: ('A' for Active; 'I' for Inactive)
REMARK    1  A    between atoms: C_4  and  C_5 
REMARK    2  A    between atoms: C_9  and  N_10 
REMARK       I    between atoms: N_10  and  C_11 
REMARK    3  A    between atoms: C_11  and  C_12 
REMARK    4  A    between atoms: C_12  and  C_13 
REMARK    5  A    between atoms: C_13  and  C_14 
REMARK    6  A    between atoms: C_13  and  C_20 
ROOT
HETATM    1  N   UNL     1       5.891  26.095  50.942  1.00  0.00    -0.312 N 
HETATM    2  C   UNL     1       5.730  25.301  52.057  1.00  0.00     0.224 C 
HETATM    3  O   UNL     1       4.664  25.218  52.677  1.00  0.00    -0.273 OA
HETATM    4  H   UNL     1       6.790  26.188  50.492  1.00  0.00     0.170 HD
ENDROOT
BRANCH   1   5
HETATM    5  C   UNL     1       4.872  26.886  50.444  1.00  0.00     0.132 A 
HETATM    6  N   UNL     1       4.217  27.844  51.173  1.00  0.00    -0.261 N 
HETATM    7  N   UNL     1       3.263  28.491  50.486  1.00  0.00    -0.170 NA
HETATM    8  H   UNL     1       4.398  28.090  52.144  1.00  0.00     0.191 HD
HETATM    9  C   UNL     1       3.311  27.930  49.269  1.00  0.00     0.120 A 
HETATM   10  C   UNL     1       4.308  26.912  49.184  1.00  0.00     0.017 A 
HETATM   11  C   UNL     1       4.650  26.086  48.001  1.00  0.00     0.055 C 
BRANCH   9  12
HETATM   12  C   UNL     1       2.400  28.358  48.163  1.00  0.00     0.106 A 
HETATM   13  O   UNL     1       1.472  27.554  47.556  1.00  0.00    -0.313 OA
HETATM   14  C   UNL     1       0.844  28.297  46.604  1.00  0.00     0.050 A 
HETATM   15  C   UNL     1      -0.211  27.619  45.827  1.00  0.00     0.076 C 
HETATM   16  C   UNL     1       1.354  29.577  46.588  1.00  0.00     0.035 A 
HETATM   17  C   UNL     1       2.354  29.615  47.590  1.00  0.00     0.042 A 
ENDBRANCH   9  12
ENDBRANCH   1   5
BRANCH   2  18
HETATM   18  C   UNL     1       6.923  24.470  52.518  1.00  0.00     0.116 C 
BRANCH  18  19
HETATM   19  C   UNL     1       6.974  23.968  53.976  1.00  0.00     0.049 C 
BRANCH  19  20
HETATM   20  C   UNL     1       7.558  22.569  54.152  1.00  0.00    -0.050 A 
HETATM   21  C   UNL     1       7.720  21.970  55.410  1.00  0.00     0.008 A 
HETATM   22  C   UNL     1       8.290  20.699  55.526  1.00  0.00     0.001 A 
HETATM   23  C   UNL     1       8.695  20.006  54.387  1.00  0.00     0.000 A 
HETATM   24  C   UNL     1       8.520  20.576  53.130  1.00  0.00     0.001 A 
HETATM   25  C   UNL     1       7.952  21.846  53.011  1.00  0.00     0.008 A 
ENDBRANCH  19  20
BRANCH  19  26
HETATM   26  C   UNL     1       7.636  25.025  54.848  1.00  0.00    -0.027 C 
HETATM   27  C   UNL     1       7.115  25.681  55.894  1.00  0.00     0.007 C 
ENDBRANCH  19  26
ENDBRANCH  18  19
ENDBRANCH   2  18
TORSDOF 6
ENDMDL
MODEL 3
REMARK VINA RESULT:      -8.8      5.001      8.402
REMARK  6 active torsions:
REMARK  status: ('A' for Active; 'I' for Inactive)
REMARK    1  A    between atoms: C_4  and  C_5 
REMARK    2  A    between atoms: C_9  and  N_10 
REMARK       I    between atoms: N_10  and  C_11 
REMARK    3  A    between atoms: C_11  and  C_12 
REMARK    4  A    between atoms: C_12  and  C_13 
REMARK    5  A    between atoms: C_13  and  C_14 
REMARK    6  A    between atoms: C_13  and  C_20 
ROOT
HETATM    1  N   UNL     1       5.875  26.190  50.981  1.00  0.00    -0.312 N 
HETATM    2  C   UNL     1       5.706  25.325  52.040  1.00  0.00     0.224 C 
HETATM    3  O   UNL     1       4.621  25.158  52.608  1.00  0.00    -0.273 OA
HETATM    4  H   UNL     1       6.787  26.350  50.576  1.00  0.00     0.170 HD
ENDROOT
BRANCH   1   5
HETATM    5  C   UNL     1       4.841  26.963  50.486  1.00  0.00     0.132 A 
HETATM    6  N   UNL     1       4.121  27.855  51.237  1.00  0.00    -0.261 N 
HETATM    7  N   UNL     1       3.164  28.497  50.548  1.00  0.00    -0.170 NA
HETATM    8  H   UNL     1       4.257  28.057  52.225  1.00  0.00     0.191 HD
HETATM    9  C   UNL     1       3.278  28.001  49.308  1.00  0.00     0.120 A 
HETATM   10  C   UNL     1       4.321  27.031  49.209  1.00  0.00     0.017 A 
HETATM   11  C   UNL     1       4.739  26.282  47.999  1.00  0.00     0.055 C 
BRANCH   9  12
HETATM   12  C   UNL     1       2.389  28.448  48.191  1.00  0.00     0.106 A 
HETATM   13  O   UNL     1       2.461  29.668  47.572  1.00  0.00    -0.313 OA
HETATM   14  C   UNL     1       1.494  29.701  46.615  1.00  0.00     0.050 A 
HETATM   15  C   UNL     1       1.401  30.936  45.814  1.00  0.00     0.076 C 
HETATM   16  C   UNL     1       0.795  28.513  46.606  1.00  0.00     0.035 A 
HETATM   17  C   UNL     1       1.370  27.710  47.619  1.00  0.00     0.042 A 
ENDBRANCH   9  12
ENDBRANCH   1   5
BRANCH   2  18
HETATM   18  C   UNL     1       6.918  24.521  52.503  1.00  0.00     0.116 C 
BRANCH  18  19
HETATM   19  C   UNL     1       6.948  23.966  53.942  1.00  0.00     0.049 C 
BRANCH  19  20
HETATM   20  C   UNL     1       7.577  22.582  54.081  1.00  0.00    -0.050 A 
HETATM   21  C   UNL     1       7.972  21.816  52.973  1.00  0.00     0.008 A 
HETATM   22  C   UNL     1       8.515  20.540  53.148  1.00  0.00     0.001 A 
HETATM   23  C   UNL     1       8.680  20.017  54.428  1.00  0.00     0.000 A 
HETATM   24  C   UNL     1       8.314  20.772  55.538  1.00  0.00     0.001 A 
HETATM   25  C   UNL     1       7.772  22.047  55.368  1.00  0.00     0.008 A 
ENDBRANCH  19  20
BRANCH  19  26
HETATM   26  C   UNL     1       7.547  25.010  54.872  1.00  0.00    -0.027 C 
HETATM   27  C   UNL     1       7.360  26.337  54.857  1.00  0.00     0.007 C 
ENDBRANCH  19  26
ENDBRANCH  18  19
ENDBRANCH   2  18
TORSDOF 6
ENDMDL
MODEL 4
REMARK VINA RESULT:      -8.6      2.876     10.279
REMARK  6 active torsions:
REMARK  status: ('A' for Active; 'I' for Inactive)
REMARK    1  A    between atoms: C_4  and  C_5 
REMARK    2  A    between atoms: C_9  and  N_10 
REMARK       I    between atoms: N_10  and  C_11 
REMARK    3  A    between atoms: C_11  and  C_12 
REMARK    4  A    between atoms: C_12  and  C_13 
REMARK    5  A    between atoms: C_13  and  C_14 
REMARK    6  A    between atoms: C_13  and  C_20 
ROOT
HETATM    1  N   UNL     1       7.240  30.471  59.098  1.00  0.00    -0.312 N 
HETATM    2  C   UNL     1       7.898  31.640  59.416  1.00  0.00     0.224 C 
HETATM    3  O   UNL     1       8.892  32.042  58.803  1.00  0.00    -0.273 OA
HETATM    4  H   UNL     1       6.466  30.138  59.655  1.00  0.00     0.170 HD
ENDROOT
BRANCH   1   5
HETATM    5  C   UNL     1       7.662  29.641  58.076  1.00  0.00     0.132 A 
HETATM    6  N   UNL     1       8.976  29.421  57.758  1.00  0.00    -0.261 N 
HETATM    7  N   UNL     1       9.152  28.575  56.730  1.00  0.00    -0.170 NA
HETATM    8  H   UNL     1       9.784  29.827  58.225  1.00  0.00     0.191 HD
HETATM    9  C   UNL     1       7.903  28.238  56.379  1.00  0.00     0.120 A 
HETATM   10  C   UNL     1       6.922  28.878  57.194  1.00  0.00     0.017 A 
HETATM   11  C   UNL     1       5.449  28.738  57.104  1.00  0.00     0.055 C 
BRANCH   9  12
HETATM   12  C   UNL     1       7.626  27.293  55.253  1.00  0.00     0.106 A 
HETATM   13  O   UNL     1       7.432  25.944  55.391  1.00  0.00    -0.313 OA
HETATM   14  C   UNL     1       7.209  25.432  54.150  1.00  0.00     0.050 A 
HETATM   15  C   UNL     1       6.964  23.979  54.071  1.00  0.00     0.076 C 
HETATM   16  C   UNL     1       7.255  26.435  53.207  1.00  0.00     0.035 A 
HETATM   17  C   UNL     1       7.523  27.630  53.916  1.00  0.00     0.042 A 
ENDBRANCH   9  12
ENDBRANCH   1   5
BRANCH   2  18
HETATM   18  C   UNL     1       7.344  32.479  60.564  1.00  0.00     0.116 C 
BRANCH  18  19
HETATM   19  C   UNL     1       8.035  32.422  61.941  1.00  0.00     0.049 C 
BRANCH  19  20
HETATM   20  C   UNL     1       7.322  33.195  63.048  1.00  0.00    -0.050 A 
HETATM   21  C   UNL     1       7.649  33.048  64.405  1.00  0.00     0.008 A 
HETATM   22  C   UNL     1       6.947  33.752  65.386  1.00  0.00     0.001 A 
HETATM   23  C   UNL     1       5.918  34.619  65.027  1.00  0.00     0.000 A 
HETATM   24  C   UNL     1       5.596  34.794  63.685  1.00  0.00     0.001 A 
HETATM   25  C   UNL     1       6.295  34.092  62.701  1.00  0.00     0.008 A 
ENDBRANCH  19  20
BRANCH  19  26
HETATM   26  C   UNL     1       8.330  30.972  62.296  1.00  0.00    -0.027 C 
HETATM   27  C   UNL     1       9.477  30.298  62.136  1.00  0.00     0.007 C 
ENDBRANCH  19  26
ENDBRANCH  18  19
ENDBRANCH   2  18
TORSDOF 6
ENDMDL
MODEL 5
REMARK VINA RESULT:      -8.4      4.986      8.687
REMARK  6 active torsions:
REMARK  status: ('A' for Active; 'I' for Inactive)
REMARK    1  A    between atoms: C_4  and  C_5 
REMARK    2  A    between atoms: C_9  and  N_10 
REMARK       I    between atoms: N_10  and  C_11 
REMARK    3  A    between atoms: C_11  and  C_12 
REMARK    4  A    between atoms: C_12  and  C_13 
REMARK    5  A    between atoms: C_13  and  C_14 
REMARK    6  A    between atoms: C_13  and  C_20 
ROOT
HETATM    1  N   UNL     1       4.797  25.730  50.833  1.00  0.00    -0.312 N 
HETATM    2  C   UNL     1       4.904  27.024  50.370  1.00  0.00     0.224 C 
HETATM    3  O   UNL     1       5.339  27.952  51.059  1.00  0.00    -0.273 OA
HETATM    4  H   UNL     1       4.382  25.004  50.266  1.00  0.00     0.170 HD
ENDROOT
BRANCH   1   5
HETATM    5  C   UNL     1       5.148  25.375  52.123  1.00  0.00     0.132 A 
HETATM    6  N   UNL     1       4.327  25.522  53.209  1.00  0.00    -0.261 N 
HETATM    7  N   UNL     1       4.875  25.109  54.363  1.00  0.00    -0.170 NA
HETATM    8  H   UNL     1       3.381  25.895  53.203  1.00  0.00     0.191 HD
HETATM    9  C   UNL     1       6.092  24.678  54.001  1.00  0.00     0.120 A 
HETATM   10  C   UNL     1       6.319  24.819  52.599  1.00  0.00     0.017 A 
HETATM   11  C   UNL     1       7.539  24.444  51.843  1.00  0.00     0.055 C 
BRANCH   9  12
HETATM   12  C   UNL     1       7.063  24.121  54.993  1.00  0.00     0.106 A 
HETATM   13  O   UNL     1       7.207  22.791  55.287  1.00  0.00    -0.313 OA
HETATM   14  C   UNL     1       8.181  22.682  56.231  1.00  0.00     0.050 A 
HETATM   15  C   UNL     1       8.506  21.317  56.689  1.00  0.00     0.076 C 
HETATM   16  C   UNL     1       8.673  23.928  56.553  1.00  0.00     0.035 A 
HETATM   17  C   UNL     1       7.953  24.852  55.757  1.00  0.00     0.042 A 
ENDBRANCH   9  12
ENDBRANCH   1   5
BRANCH   2  18
HETATM   18  C   UNL     1       4.487  27.301  48.929  1.00  0.00     0.116 C 
BRANCH  18  19
HETATM   19  C   UNL     1       3.141  26.752  48.414  1.00  0.00     0.049 C 
BRANCH  19  20
HETATM   20  C   UNL     1       2.298  27.755  47.631  1.00  0.00    -0.050 A 
HETATM   21  C   UNL     1       2.762  29.037  47.298  1.00  0.00     0.008 A 
HETATM   22  C   UNL     1       1.943  29.934  46.607  1.00  0.00     0.001 A 
HETATM   23  C   UNL     1       0.655  29.560  46.232  1.00  0.00     0.000 A 
HETATM   24  C   UNL     1       0.187  28.286  46.535  1.00  0.00     0.001 A 
HETATM   25  C   UNL     1       1.002  27.387  47.224  1.00  0.00     0.008 A 
ENDBRANCH  19  20
BRANCH  19  26
HETATM   26  C   UNL     1       3.380  25.442  47.678  1.00  0.00    -0.027 C 
HETATM   27  C   UNL     1       2.923  24.222  47.989  1.00  0.00     0.007 C 
ENDBRANCH  19  26
ENDBRANCH  18  19
ENDBRANCH   2  18
TORSDOF 6
ENDMDL
MODEL 6
REMARK VINA RESULT:      -8.3      2.088      2.542
REMARK  6 active torsions:
REMARK  status: ('A' for Active; 'I' for Inactive)
REMARK    1  A    between atoms: C_4  and  C_5 
REMARK    2  A    between atoms: C_9  and  N_10 
REMARK       I    between atoms: N_10  and  C_11 
REMARK    3  A    between atoms: C_11  and  C_12 
REMARK    4  A    between atoms: C_12  and  C_13 
REMARK    5  A    between atoms: C_13  and  C_14 
REMARK    6  A    between atoms: C_13  and  C_20 
ROOT
HETATM    1  N   UNL     1       6.150  26.963  56.455  1.00  0.00    -0.312 N 
HETATM    2  C   UNL     1       6.854  26.746  55.290  1.00  0.00     0.224 C 
HETATM    3  O   UNL     1       6.981  27.604  54.410  1.00  0.00    -0.273 OA
HETATM    4  H   UNL     1       6.014  26.224  57.130  1.00  0.00     0.170 HD
ENDROOT
BRANCH   1   5
HETATM    5  C   UNL     1       5.506  28.159  56.718  1.00  0.00     0.132 A 
HETATM    6  N   UNL     1       4.215  28.432  56.348  1.00  0.00    -0.261 N 
HETATM    7  N   UNL     1       3.795  29.655  56.708  1.00  0.00    -0.170 NA
HETATM    8  H   UNL     1       3.585  27.805  55.853  1.00  0.00     0.191 HD
HETATM    9  C   UNL     1       4.855  30.184  57.335  1.00  0.00     0.120 A 
HETATM   10  C   UNL     1       5.963  29.284  57.373  1.00  0.00     0.017 A 
HETATM   11  C   UNL     1       7.292  29.521  57.987  1.00  0.00     0.055 C 
BRANCH   9  12
HETATM   12  C   UNL     1       4.828  31.564  57.912  1.00  0.00     0.106 A 
HETATM   13  O   UNL     1       4.864  31.855  59.249  1.00  0.00    -0.313 OA
HETATM   14  C   UNL     1       4.821  33.210  59.376  1.00  0.00     0.050 A 
HETATM   15  C   UNL     1       4.859  33.745  60.751  1.00  0.00     0.076 C 
HETATM   16  C   UNL     1       4.758  33.801  58.133  1.00  0.00     0.035 A 
HETATM   17  C   UNL     1       4.762  32.743  57.193  1.00  0.00     0.042 A 
ENDBRANCH   9  12
ENDBRANCH   1   5
BRANCH   2  18
HETATM   18  C   UNL     1       7.526  25.389  55.107  1.00  0.00     0.116 C 
BRANCH  18  19
HETATM   19  C   UNL     1       7.085  24.482  53.940  1.00  0.00     0.049 C 
BRANCH  19  20
HETATM   20  C   UNL     1       7.495  23.018  54.077  1.00  0.00    -0.050 A 
HETATM   21  C   UNL     1       7.842  22.223  52.973  1.00  0.00     0.008 A 
HETATM   22  C   UNL     1       8.180  20.878  53.142  1.00  0.00     0.001 A 
HETATM   23  C   UNL     1       8.188  20.312  54.414  1.00  0.00     0.000 A 
HETATM   24  C   UNL     1       7.869  21.091  55.522  1.00  0.00     0.001 A 
HETATM   25  C   UNL     1       7.530  22.435  55.357  1.00  0.00     0.008 A 
ENDBRANCH  19  20
BRANCH  19  26
HETATM   26  C   UNL     1       5.598  24.682  53.683  1.00  0.00    -0.027 C 
HETATM   27  C   UNL     1       4.979  24.875  52.510  1.00  0.00     0.007 C 
ENDBRANCH  19  26
ENDBRANCH  18  19
ENDBRANCH   2  18
TORSDOF 6
ENDMDL
MODEL 7
REMARK VINA RESULT:      -8.2      4.066      7.396
REMARK  6 active torsions:
REMARK  status: ('A' for Active; 'I' for Inactive)
REMARK    1  A    between atoms: C_4  and  C_5 
REMARK    2  A    between atoms: C_9  and  N_10 
REMARK       I    between atoms: N_10  and  C_11 
REMARK    3  A    between atoms: C_11  and  C_12 
REMARK    4  A    between atoms: C_12  and  C_13 
REMARK    5  A    between atoms: C_13  and  C_14 
REMARK    6  A    between atoms: C_13  and  C_20 
ROOT
HETATM    1  N   UNL     1       6.808  26.933  52.886  1.00  0.00    -0.312 N 
HETATM    2  C   UNL     1       6.508  26.231  54.034  1.00  0.00     0.224 C 
HETATM    3  O   UNL     1       5.369  26.174  54.510  1.00  0.00    -0.273 OA
HETATM    4  H   UNL     1       7.759  27.011  52.554  1.00  0.00     0.170 HD
ENDROOT
BRANCH   1   5
HETATM    5  C   UNL     1       5.855  27.653  52.189  1.00  0.00     0.132 A 
HETATM    6  N   UNL     1       5.623  28.992  52.366  1.00  0.00    -0.261 N 
HETATM    7  N   UNL     1       4.651  29.483  51.581  1.00  0.00    -0.170 NA
HETATM    8  H   UNL     1       6.113  29.608  53.011  1.00  0.00     0.191 HD
HETATM    9  C   UNL     1       4.248  28.419  50.871  1.00  0.00     0.120 A 
HETATM   10  C   UNL     1       4.973  27.238  51.212  1.00  0.00     0.017 A 
HETATM   11  C   UNL     1       4.807  25.883  50.631  1.00  0.00     0.055 C 
BRANCH   9  12
HETATM   12  C   UNL     1       3.157  28.515  49.852  1.00  0.00     0.106 A 
HETATM   13  O   UNL     1       2.969  27.634  48.821  1.00  0.00    -0.313 OA
HETATM   14  C   UNL     1       1.884  28.053  48.114  1.00  0.00     0.050 A 
HETATM   15  C   UNL     1       1.496  27.232  46.951  1.00  0.00     0.076 C 
HETATM   16  C   UNL     1       1.364  29.198  48.678  1.00  0.00     0.035 A 
HETATM   17  C   UNL     1       2.183  29.494  49.794  1.00  0.00     0.042 A 
ENDBRANCH   9  12
ENDBRANCH   1   5
BRANCH   2  18
HETATM   18  C   UNL     1       7.639  25.472  54.721  1.00  0.00     0.116 C 
BRANCH  18  19
HETATM   19  C   UNL     1       7.305  24.225  55.565  1.00  0.00     0.049 C 
BRANCH  19  20
HETATM   20  C   UNL     1       7.599  22.892  54.882  1.00  0.00    -0.050 A 
HETATM   21  C   UNL     1       7.726  22.767  53.489  1.00  0.00     0.008 A 
HETATM   22  C   UNL     1       7.964  21.520  52.906  1.00  0.00     0.001 A 
HETATM   23  C   UNL     1       8.088  20.385  53.703  1.00  0.00     0.000 A 
HETATM   24  C   UNL     1       7.988  20.495  55.086  1.00  0.00     0.001 A 
HETATM   25  C   UNL     1       7.750  21.738  55.673  1.00  0.00     0.008 A 
ENDBRANCH  19  20
BRANCH  19  26
HETATM   26  C   UNL     1       7.940  24.365  56.941  1.00  0.00    -0.027 C 
HETATM   27  C   UNL     1       8.081  25.474  57.679  1.00  0.00     0.007 C 
ENDBRANCH  19  26
ENDBRANCH  18  19
ENDBRANCH   2  18
TORSDOF 6
ENDMDL
MODEL 8
REMARK VINA RESULT:      -8.1      1.989      9.049
REMARK  6 active torsions:
REMARK  status: ('A' for Active; 'I' for Inactive)
REMARK    1  A    between atoms: C_4  and  C_5 
REMARK    2  A    between atoms: C_9  and  N_10 
REMARK       I    between atoms: N_10  and  C_11 
REMARK    3  A    between atoms: C_11  and  C_12 
REMARK    4  A    between atoms: C_12  and  C_13 
REMARK    5  A    between atoms: C_13  and  C_14 
REMARK    6  A    between atoms: C_13  and  C_20 
ROOT
HETATM    1  N   UNL     1       6.236  29.909  58.095  1.00  0.00    -0.312 N 
HETATM    2  C   UNL     1       5.456  30.996  57.764  1.00  0.00     0.224 C 
HETATM    3  O   UNL     1       4.565  30.952  56.910  1.00  0.00    -0.273 OA
HETATM    4  H   UNL     1       6.996  29.991  58.754  1.00  0.00     0.170 HD
ENDROOT
BRANCH   1   5
HETATM    5  C   UNL     1       6.094  28.681  57.472  1.00  0.00     0.132 A 
HETATM    6  N   UNL     1       4.887  28.110  57.167  1.00  0.00    -0.261 N 
HETATM    7  N   UNL     1       4.989  26.916  56.562  1.00  0.00    -0.170 NA
HETATM    8  H   UNL     1       3.969  28.509  57.350  1.00  0.00     0.191 HD
HETATM    9  C   UNL     1       6.312  26.716  56.474  1.00  0.00     0.120 A 
HETATM   10  C   UNL     1       7.059  27.798  57.030  1.00  0.00     0.017 A 
HETATM   11  C   UNL     1       8.534  27.929  57.101  1.00  0.00     0.055 C 
BRANCH   9  12
HETATM   12  C   UNL     1       6.887  25.483  55.853  1.00  0.00     0.106 A 
HETATM   13  O   UNL     1       7.054  25.287  54.508  1.00  0.00    -0.313 OA
HETATM   14  C   UNL     1       7.601  24.053  54.337  1.00  0.00     0.050 A 
HETATM   15  C   UNL     1       7.875  23.639  52.947  1.00  0.00     0.076 C 
HETATM   16  C   UNL     1       7.793  23.445  55.559  1.00  0.00     0.035 A 
HETATM   17  C   UNL     1       7.333  24.364  56.532  1.00  0.00     0.042 A 
ENDBRANCH   9  12
ENDBRANCH   1   5
BRANCH   2  18
HETATM   18  C   UNL     1       5.699  32.301  58.516  1.00  0.00     0.116 C 
BRANCH  18  19
HETATM   19  C   UNL     1       5.707  32.292  60.058  1.00  0.00     0.049 C 
BRANCH  19  20
HETATM   20  C   UNL     1       7.070  32.020  60.690  1.00  0.00    -0.050 A 
HETATM   21  C   UNL     1       7.213  31.465  61.971  1.00  0.00     0.008 A 
HETATM   22  C   UNL     1       8.482  31.264  62.522  1.00  0.00     0.001 A 
HETATM   23  C   UNL     1       9.622  31.604  61.799  1.00  0.00     0.000 A 
HETATM   24  C   UNL     1       9.499  32.133  60.518  1.00  0.00     0.001 A 
HETATM   25  C   UNL     1       8.234  32.336  59.965  1.00  0.00     0.008 A 
ENDBRANCH  19  20
BRANCH  19  26
HETATM   26  C   UNL     1       5.032  33.555  60.573  1.00  0.00    -0.027 C 
HETATM   27  C   UNL     1       5.372  34.303  61.631  1.00  0.00     0.007 C 
ENDBRANCH  19  26
ENDBRANCH  18  19
ENDBRANCH   2  18
TORSDOF 6
ENDMDL
MODEL 9
REMARK VINA RESULT:      -8.0      4.957      7.410
REMARK  6 active torsions:
REMARK  status: ('A' for Active; 'I' for Inactive)
REMARK    1  A    between atoms: C_4  and  C_5 
REMARK    2  A    between atoms: C_9  and  N_10 
REMARK       I    between atoms: N_10  and  C_11 
REMARK    3  A    between atoms: C_11  and  C_12 
REMARK    4  A    between atoms: C_12  and  C_13 
REMARK    5  A    between atoms: C_13  and  C_14 
REMARK    6  A    between atoms: C_13  and  C_20 
ROOT
HETATM    1  N   UNL     1       5.416  26.734  53.476  1.00  0.00    -0.312 N 
HETATM    2  C   UNL     1       5.175  25.408  53.761  1.00  0.00     0.224 C 
HETATM    3  O   UNL     1       4.271  24.757  53.226  1.00  0.00    -0.273 OA
HETATM    4  H   UNL     1       6.124  27.256  53.972  1.00  0.00     0.170 HD
ENDROOT
BRANCH   1   5
HETATM    5  C   UNL     1       4.642  27.450  52.580  1.00  0.00     0.132 A 
HETATM    6  N   UNL     1       3.741  28.415  52.946  1.00  0.00    -0.261 N 
HETATM    7  N   UNL     1       3.102  28.981  51.909  1.00  0.00    -0.170 NA
HETATM    8  H   UNL     1       3.538  28.721  53.894  1.00  0.00     0.191 HD
HETATM    9  C   UNL     1       3.616  28.358  50.839  1.00  0.00     0.120 A 
HETATM   10  C   UNL     1       4.594  27.383  51.202  1.00  0.00     0.017 A 
HETATM   11  C   UNL     1       5.374  26.511  50.291  1.00  0.00     0.055 C 
BRANCH   9  12
HETATM   12  C   UNL     1       3.180  28.684  49.446  1.00  0.00     0.106 A 
HETATM   13  O   UNL     1       2.112  28.115  48.806  1.00  0.00    -0.313 OA
HETATM   14  C   UNL     1       2.037  28.666  47.563  1.00  0.00     0.050 A 
HETATM   15  C   UNL     1       0.938  28.194  46.698  1.00  0.00     0.076 C 
HETATM   16  C   UNL     1       3.045  29.589  47.391  1.00  0.00     0.035 A 
HETATM   17  C   UNL     1       3.779  29.600  48.601  1.00  0.00     0.042 A 
ENDBRANCH   9  12
ENDBRANCH   1   5
BRANCH   2  18
HETATM   18  C   UNL     1       6.092  24.717  54.765  1.00  0.00     0.116 C 
BRANCH  18  19
HETATM   19  C   UNL     1       7.426  24.115  54.277  1.00  0.00     0.049 C 
BRANCH  19  20
HETATM   20  C   UNL     1       7.776  22.759  54.884  1.00  0.00    -0.050 A 
HETATM   21  C   UNL     1       7.801  21.576  54.128  1.00  0.00     0.008 A 
HETATM   22  C   UNL     1       8.096  20.352  54.733  1.00  0.00     0.001 A 
HETATM   23  C   UNL     1       8.380  20.293  56.095  1.00  0.00     0.000 A 
HETATM   24  C   UNL     1       8.382  21.459  56.854  1.00  0.00     0.001 A 
HETATM   25  C   UNL     1       8.088  22.684  56.254  1.00  0.00     0.008 A 
ENDBRANCH  19  20
BRANCH  19  26
HETATM   26  C   UNL     1       7.460  24.136  52.756  1.00  0.00    -0.027 C 
HETATM   27  C   UNL     1       8.211  24.904  51.955  1.00  0.00     0.007 C 
ENDBRANCH  19  26
ENDBRANCH  18  19
ENDBRANCH   2  18
TORSDOF 6
ENDMDL
MODEL 10
REMARK VINA RESULT:      -7.9      3.385      4.103
REMARK  6 active torsions:
REMARK  status: ('A' for Active; 'I' for Inactive)
REMARK    1  A    between atoms: C_4  and  C_5 
REMARK    2  A    between atoms: C_9  and  N_10 
REMARK       I    between atoms: N_10  and  C_11 
REMARK    3  A    between atoms: C_11  and  C_12 
REMARK    4  A    between atoms: C_12  and  C_13 
REMARK    5  A    between atoms: C_13  and  C_14 
REMARK    6  A    between atoms: C_13  and  C_20 
ROOT
HETATM    1  N   UNL     1       4.863  26.470  54.201  1.00  0.00    -0.312 N 
HETATM    2  C   UNL     1       5.821  25.947  53.360  1.00  0.00     0.224 C 
HETATM    3  O   UNL     1       6.461  26.634  52.557  1.00  0.00    -0.273 OA
HETATM    4  H   UNL     1       4.315  25.874  54.805  1.00  0.00     0.170 HD
ENDROOT
BRANCH   1   5
HETATM    5  C   UNL     1       4.524  27.811  54.192  1.00  0.00     0.132 A 
HETATM    6  N   UNL     1       4.010  28.465  53.103  1.00  0.00    -0.261 N 
HETATM    7  N   UNL     1       3.753  29.765  53.322  1.00  0.00    -0.170 NA
HETATM    8  H   UNL     1       3.814  28.056  52.192  1.00  0.00     0.191 HD
HETATM    9  C   UNL     1       4.112  29.949  54.601  1.00  0.00     0.120 A 
HETATM   10  C   UNL     1       4.604  28.750  55.200  1.00  0.00     0.017 A 
HETATM   11  C   UNL     1       5.082  28.573  56.593  1.00  0.00     0.055 C 
BRANCH   9  12
HETATM   12  C   UNL     1       3.991  31.279  55.274  1.00  0.00     0.106 A 
HETATM   13  O   UNL     1       4.737  32.385  54.964  1.00  0.00    -0.313 OA
HETATM   14  C   UNL     1       4.339  33.393  55.788  1.00  0.00     0.050 A 
HETATM   15  C   UNL     1       5.017  34.692  55.615  1.00  0.00     0.076 C 
HETATM   16  C   UNL     1       3.342  32.952  56.630  1.00  0.00     0.035 A 
HETATM   17  C   UNL     1       3.119  31.594  56.299  1.00  0.00     0.042 A 
ENDBRANCH   9  12
ENDBRANCH   1   5
BRANCH   2  18
HETATM   18  C   UNL     1       6.114  24.453  53.456  1.00  0.00     0.116 C 
BRANCH  18  19
HETATM   19  C   UNL     1       6.826  23.904  54.710  1.00  0.00     0.049 C 
BRANCH  19  20
HETATM   20  C   UNL     1       7.475  22.535  54.530  1.00  0.00    -0.050 A 
HETATM   21  C   UNL     1       7.828  21.716  55.614  1.00  0.00     0.008 A 
HETATM   22  C   UNL     1       8.451  20.483  55.403  1.00  0.00     0.001 A 
HETATM   23  C   UNL     1       8.719  20.047  54.108  1.00  0.00     0.000 A 
HETATM   24  C   UNL     1       8.355  20.835  53.021  1.00  0.00     0.001 A 
HETATM   25  C   UNL     1       7.733  22.067  53.228  1.00  0.00     0.008 A 
ENDBRANCH  19  20
BRANCH  19  26
HETATM   26  C   UNL     1       7.770  24.965  55.257  1.00  0.00    -0.027 C 
HETATM   27  C   UNL     1       7.784  25.510  56.481  1.00  0.00     0.007 C 
ENDBRANCH  19  26
ENDBRANCH  18  19
ENDBRANCH   2  18
TORSDOF 6
ENDMDL
