MODEL 1
REMARK VINA RESULT:      -8.8      0.000      0.000
REMARK  6 active torsions:
REMARK  status: ('A' for Active; 'I' for Inactive)
REMARK    1  A    between atoms: C_8  and  C_9 
REMARK    2  A    between atoms: C_9  and  C_10 
REMARK       I    between atoms: C_10  and  N_11 
REMARK    3  A    between atoms: N_11  and  C_12 
REMARK    4  A    between atoms: C_12  and  C_13 
REMARK    5  A    between atoms: C_13  and  N_14 
REMARK    6  A    between atoms: C_13  and  C_20 
ROOT
HETATM    1  C   UNL     1       7.627  25.779  55.618  1.00  0.00     0.160 C 
ENDROOT
BRANCH   1   2
HETATM    2  N   UNL     1       7.117  27.039  56.156  1.00  0.00    -0.358 N 
HETATM    3  C   UNL     1       7.528  27.463  57.408  1.00  0.00     0.226 C 
HETATM    4  O   UNL     1       8.078  26.675  58.178  1.00  0.00    -0.273 OA
HETATM    5  H   UNL     1       6.932  27.773  55.482  1.00  0.00     0.162 HD
BRANCH   3   6
HETATM    6  C   UNL     1       7.241  28.920  57.792  1.00  0.00     0.111 C 
HETATM    7  C   UNL     1       6.165  29.594  56.941  1.00  0.00     0.025 C 
BRANCH   6   8
HETATM    8  C   UNL     1       8.500  29.733  57.900  1.00  0.00     0.004 A 
HETATM    9  C   UNL     1       8.886  30.500  58.989  1.00  0.00     0.033 A 
HETATM   10  C   UNL     1       8.247  30.753  60.304  1.00  0.00     0.070 C 
HETATM   11  N   UNL     1      10.087  31.059  58.659  1.00  0.00    -0.282 N 
HETATM   12  H   UNL     1      10.669  31.678  59.217  1.00  0.00     0.189 HD
HETATM   13  N   UNL     1      10.510  30.725  57.437  1.00  0.00    -0.179 NA
HETATM   14  C   UNL     1       9.555  29.924  56.957  1.00  0.00     0.060 A 
HETATM   15  C   UNL     1       9.725  29.375  55.588  1.00  0.00     0.073 C 
ENDBRANCH   6   8
ENDBRANCH   3   6
ENDBRANCH   1   2
BRANCH   1  16
HETATM   16  C   UNL     1       6.662  24.938  54.715  1.00  0.00     0.238 C 
BRANCH  16  17
HETATM   17  N   UNL     1       6.297  25.613  53.386  1.00  0.00    -0.061 N 
HETATM   18  H   UNL     1       6.407  24.860  52.694  1.00  0.00     0.280 HD
HETATM   19  C   UNL     1       7.165  26.746  52.897  1.00  0.00     0.236 C 
HETATM   20  C   UNL     1       6.255  27.955  52.936  1.00  0.00     0.029 C 
HETATM   21  C   UNL     1       4.910  27.383  52.540  1.00  0.00     0.029 C 
HETATM   22  C   UNL     1       4.852  26.052  53.267  1.00  0.00     0.236 C 
ENDBRANCH  16  17
BRANCH  16  23
HETATM   23  C   UNL     1       7.173  23.524  54.451  1.00  0.00    -0.024 A 
HETATM   24  C   UNL     1       7.442  22.608  55.482  1.00  0.00     0.033 A 
HETATM   25  C   UNL     1       7.936  21.333  55.190  1.00  0.00     0.034 A 
HETATM   26 CL   UNL     1       8.258  20.239  56.477  1.00  0.00    -0.084 Cl
HETATM   27  C   UNL     1       8.174  20.949  53.876  1.00  0.00     0.024 A 
HETATM   28  C   UNL     1       7.916  21.846  52.841  1.00  0.00     0.002 A 
HETATM   29  C   UNL     1       7.425  23.122  53.125  1.00  0.00     0.009 A 
ENDBRANCH  16  23
ENDBRANCH   1  16
TORSDOF 6
ENDMDL
MODEL 2
REMARK VINA RESULT:      -8.7      3.512      7.345
REMARK  6 active torsions:
REMARK  status: ('A' for Active; 'I' for Inactive)
REMARK    1  A    between atoms: C_8  and  C_9 
REMARK    2  A    between atoms: C_9  and  C_10 
REMARK       I    between atoms: C_10  and  N_11 
REMARK    3  A    between atoms: N_11  and  C_12 
REMARK    4  A    between atoms: C_12  and  C_13 
REMARK    5  A    between atoms: C_13  and  N_14 
REMARK    6  A    between atoms: C_13  and  C_20 
ROOT
HETATM    1  C   UNL     1       5.107  25.212  52.957  1.00  0.00     0.160 C 
ENDROOT
BRANCH   1   2
HETATM    2  N   UNL     1       4.818  25.530  51.561  1.00  0.00    -0.358 N 
HETATM    3  C   UNL     1       4.706  26.854  51.171  1.00  0.00     0.226 C 
HETATM    4  O   UNL     1       4.563  27.737  52.016  1.00  0.00    -0.273 OA
HETATM    5  H   UNL     1       5.203  24.899  50.867  1.00  0.00     0.162 HD
BRANCH   3   6
HETATM    6  C   UNL     1       4.733  27.153  49.666  1.00  0.00     0.111 C 
HETATM    7  C   UNL     1       5.595  28.354  49.279  1.00  0.00     0.025 C 
BRANCH   6   8
HETATM    8  C   UNL     1       3.352  27.206  49.078  1.00  0.00     0.004 A 
HETATM    9  C   UNL     1       2.772  26.242  48.267  1.00  0.00     0.033 A 
HETATM   10  C   UNL     1       3.272  24.943  47.754  1.00  0.00     0.070 C 
HETATM   11  N   UNL     1       1.519  26.694  47.968  1.00  0.00    -0.282 N 
HETATM   12  H   UNL     1       0.806  26.247  47.399  1.00  0.00     0.189 HD
HETATM   13  N   UNL     1       1.239  27.882  48.512  1.00  0.00    -0.179 NA
HETATM   14  C   UNL     1       2.344  28.212  49.186  1.00  0.00     0.060 A 
HETATM   15  C   UNL     1       2.359  29.506  49.913  1.00  0.00     0.073 C 
ENDBRANCH   6   8
ENDBRANCH   3   6
ENDBRANCH   1   2
BRANCH   1  16
HETATM   16  C   UNL     1       6.604  25.272  53.416  1.00  0.00     0.238 C 
BRANCH  16  17
HETATM   17  N   UNL     1       6.868  26.244  54.573  1.00  0.00    -0.061 N 
HETATM   18  H   UNL     1       7.565  25.752  55.148  1.00  0.00     0.280 HD
HETATM   19  C   UNL     1       5.728  26.572  55.505  1.00  0.00     0.236 C 
HETATM   20  C   UNL     1       5.470  28.046  55.274  1.00  0.00     0.029 C 
HETATM   21  C   UNL     1       6.858  28.602  55.035  1.00  0.00     0.029 C 
HETATM   22  C   UNL     1       7.531  27.548  54.175  1.00  0.00     0.236 C 
ENDBRANCH  16  17
BRANCH  16  23
HETATM   23  C   UNL     1       7.181  23.900  53.754  1.00  0.00    -0.024 A 
HETATM   24  C   UNL     1       7.422  23.481  55.074  1.00  0.00     0.033 A 
HETATM   25  C   UNL     1       7.979  22.225  55.331  1.00  0.00     0.034 A 
HETATM   26 CL   UNL     1       8.265  21.747  56.958  1.00  0.00    -0.084 Cl
HETATM   27  C   UNL     1       8.308  21.369  54.287  1.00  0.00     0.024 A 
HETATM   28  C   UNL     1       8.080  21.769  52.972  1.00  0.00     0.002 A 
HETATM   29  C   UNL     1       7.525  23.024  52.707  1.00  0.00     0.009 A 
ENDBRANCH  16  23
ENDBRANCH   1  16
TORSDOF 6
ENDMDL
MODEL 3
REMARK VINA RESULT:      -8.7      1.310      1.812
REMARK  6 active torsions:
REMARK  status: ('A' for Active; 'I' for Inactive)
REMARK    1  A    between atoms: C_8  and  C_9 
REMARK    2  A    between atoms: C_9  and  C_10 
REMARK       I    between atoms: C_10  and  N_11 
REMARK    3  A    between atoms: N_11  and  C_12 
REMARK    4  A    between atoms: C_12  and  C_13 
REMARK    5  A    between atoms: C_13  and  N_14 
REMARK    6  A    between atoms: C_13  and  C_20 
ROOT
HETATM    1  C   UNL     1       6.018  25.319  56.866  1.00  0.00     0.160 C 
ENDROOT
BRANCH   1   2
HETATM    2  N   UNL     1       5.981  26.772  57.007  1.00  0.00    -0.358 N 
HETATM    3  C   UNL     1       7.097  27.441  57.480  1.00  0.00     0.226 C 
HETATM    4  O   UNL     1       7.998  26.820  58.043  1.00  0.00    -0.273 OA
HETATM    5  H   UNL     1       5.422  27.276  56.328  1.00  0.00     0.162 HD
BRANCH   3   6
HETATM    6  C   UNL     1       7.137  28.965  57.304  1.00  0.00     0.111 C 
HETATM    7  C   UNL     1       6.248  29.491  56.179  1.00  0.00     0.025 C 
BRANCH   6   8
HETATM    8  C   UNL     1       8.544  29.486  57.235  1.00  0.00     0.004 A 
HETATM    9  C   UNL     1       9.232  30.118  58.261  1.00  0.00     0.033 A 
HETATM   10  C   UNL     1       8.849  30.458  59.654  1.00  0.00     0.070 C 
HETATM   11  N   UNL     1      10.468  30.419  57.767  1.00  0.00    -0.282 N 
HETATM   12  H   UNL     1      11.241  30.881  58.238  1.00  0.00     0.189 HD
HETATM   13  N   UNL     1      10.638  30.042  56.496  1.00  0.00    -0.179 NA
HETATM   14  C   UNL     1       9.476  29.479  56.154  1.00  0.00     0.060 A 
HETATM   15  C   UNL     1       9.334  28.951  54.774  1.00  0.00     0.073 C 
ENDBRANCH   6   8
ENDBRANCH   3   6
ENDBRANCH   1   2
BRANCH   1  16
HETATM   16  C   UNL     1       6.061  24.736  55.412  1.00  0.00     0.238 C 
BRANCH  16  17
HETATM   17  N   UNL     1       6.012  25.800  54.306  1.00  0.00    -0.061 N 
HETATM   18  H   UNL     1       5.851  26.676  54.821  1.00  0.00     0.280 HD
HETATM   19  C   UNL     1       4.904  25.718  53.285  1.00  0.00     0.236 C 
HETATM   20  C   UNL     1       5.620  25.430  51.983  1.00  0.00     0.029 C 
HETATM   21  C   UNL     1       6.904  26.222  52.116  1.00  0.00     0.029 C 
HETATM   22  C   UNL     1       7.314  26.010  53.561  1.00  0.00     0.236 C 
ENDBRANCH  16  17
BRANCH  16  23
HETATM   23  C   UNL     1       7.246  23.803  55.176  1.00  0.00    -0.024 A 
HETATM   24  C   UNL     1       7.224  22.774  54.219  1.00  0.00     0.033 A 
HETATM   25  C   UNL     1       8.325  21.927  54.062  1.00  0.00     0.034 A 
HETATM   26 CL   UNL     1       8.263  20.675  52.885  1.00  0.00    -0.084 Cl
HETATM   27  C   UNL     1       9.459  22.084  54.850  1.00  0.00     0.024 A 
HETATM   28  C   UNL     1       9.497  23.097  55.806  1.00  0.00     0.002 A 
HETATM   29  C   UNL     1       8.399  23.946  55.971  1.00  0.00     0.009 A 
ENDBRANCH  16  23
ENDBRANCH   1  16
TORSDOF 6
ENDMDL
MODEL 4
REMARK VINA RESULT:      -8.6      1.083      2.126
REMARK  6 active torsions:
REMARK  status: ('A' for Active; 'I' for Inactive)
REMARK    1  A    between atoms: C_8  and  C_9 
REMARK    2  A    between atoms: C_9  and  C_10 
REMARK       I    between atoms: C_10  and  N_11 
REMARK    3  A    between atoms: N_11  and  C_12 
REMARK    4  A    between atoms: C_12  and  C_13 
REMARK    5  A    between atoms: C_13  and  N_14 
REMARK    6  A    between atoms: C_13  and  C_20 
ROOT
HETATM    1  C   UNL     1       7.715  25.999  55.921  1.00  0.00     0.160 C 
ENDROOT
BRANCH   1   2
HETATM    2  N   UNL     1       7.099  27.297  56.183  1.00  0.00    -0.358 N 
HETATM    3  C   UNL     1       7.420  27.985  57.341  1.00  0.00     0.226 C 
HETATM    4  O   UNL     1       7.983  27.404  58.269  1.00  0.00    -0.273 OA
HETATM    5  H   UNL     1       6.898  27.872  55.372  1.00  0.00     0.162 HD
BRANCH   3   6
HETATM    6  C   UNL     1       7.019  29.463  57.421  1.00  0.00     0.111 C 
HETATM    7  C   UNL     1       6.319  29.994  56.171  1.00  0.00     0.025 C 
BRANCH   6   8
HETATM    8  C   UNL     1       8.159  30.332  57.871  1.00  0.00     0.004 A 
HETATM    9  C   UNL     1       9.443  30.332  57.346  1.00  0.00     0.033 A 
HETATM   10  C   UNL     1      10.071  29.548  56.254  1.00  0.00     0.070 C 
HETATM   11  N   UNL     1      10.144  31.271  58.046  1.00  0.00    -0.282 N 
HETATM   12  H   UNL     1      11.116  31.547  57.933  1.00  0.00     0.189 HD
HETATM   13  N   UNL     1       9.422  31.877  58.993  1.00  0.00    -0.179 NA
HETATM   14  C   UNL     1       8.214  31.315  58.906  1.00  0.00     0.060 A 
HETATM   15  C   UNL     1       7.159  31.774  59.845  1.00  0.00     0.073 C 
ENDBRANCH   6   8
ENDBRANCH   3   6
ENDBRANCH   1   2
BRANCH   1  16
HETATM   16  C   UNL     1       6.840  24.916  55.204  1.00  0.00     0.238 C 
BRANCH  16  17
HETATM   17  N   UNL     1       6.469  25.265  53.756  1.00  0.00    -0.061 N 
HETATM   18  H   UNL     1       6.626  24.385  53.248  1.00  0.00     0.280 HD
HETATM   19  C   UNL     1       7.294  26.304  53.037  1.00  0.00     0.236 C 
HETATM   20  C   UNL     1       6.330  27.447  52.802  1.00  0.00     0.029 C 
HETATM   21  C   UNL     1       5.019  26.738  52.531  1.00  0.00     0.029 C 
HETATM   22  C   UNL     1       5.007  25.597  53.532  1.00  0.00     0.236 C 
ENDBRANCH  16  17
BRANCH  16  23
HETATM   23  C   UNL     1       7.455  23.520  55.255  1.00  0.00    -0.024 A 
HETATM   24  C   UNL     1       7.549  22.689  54.126  1.00  0.00     0.033 A 
HETATM   25  C   UNL     1       8.095  21.406  54.232  1.00  0.00     0.034 A 
HETATM   26 CL   UNL     1       8.191  20.413  52.830  1.00  0.00    -0.084 Cl
HETATM   27  C   UNL     1       8.552  20.928  55.454  1.00  0.00     0.024 A 
HETATM   28  C   UNL     1       8.462  21.737  56.585  1.00  0.00     0.002 A 
HETATM   29  C   UNL     1       7.916  23.019  56.488  1.00  0.00     0.009 A 
ENDBRANCH  16  23
ENDBRANCH   1  16
TORSDOF 6
ENDMDL
MODEL 5
REMARK VINA RESULT:      -8.4      3.186      6.855
REMARK  6 active torsions:
REMARK  status: ('A' for Active; 'I' for Inactive)
REMARK    1  A    between atoms: C_8  and  C_9 
REMARK    2  A    between atoms: C_9  and  C_10 
REMARK       I    between atoms: C_10  and  N_11 
REMARK    3  A    between atoms: N_11  and  C_12 
REMARK    4  A    between atoms: C_12  and  C_13 
REMARK    5  A    between atoms: C_13  and  N_14 
REMARK    6  A    between atoms: C_13  and  C_20 
ROOT
HETATM    1  C   UNL     1       5.599  26.293  53.812  1.00  0.00     0.160 C 
ENDROOT
BRANCH   1   2
HETATM    2  N   UNL     1       5.753  27.118  52.617  1.00  0.00    -0.358 N 
HETATM    3  C   UNL     1       5.264  26.661  51.404  1.00  0.00     0.226 C 
HETATM    4  O   UNL     1       4.968  25.475  51.265  1.00  0.00    -0.273 OA
HETATM    5  H   UNL     1       5.715  28.122  52.755  1.00  0.00     0.162 HD
BRANCH   3   6
HETATM    6  C   UNL     1       5.147  27.677  50.261  1.00  0.00     0.111 C 
HETATM    7  C   UNL     1       5.675  29.070  50.599  1.00  0.00     0.025 C 
BRANCH   6   8
HETATM    8  C   UNL     1       3.767  27.699  49.668  1.00  0.00     0.004 A 
HETATM    9  C   UNL     1       2.690  28.439  50.133  1.00  0.00     0.033 A 
HETATM   10  C   UNL     1       2.548  29.382  51.270  1.00  0.00     0.070 C 
HETATM   11  N   UNL     1       1.644  28.162  49.301  1.00  0.00    -0.282 N 
HETATM   12  H   UNL     1       0.696  28.527  49.335  1.00  0.00     0.189 HD
HETATM   13  N   UNL     1       1.951  27.291  48.335  1.00  0.00    -0.179 NA
HETATM   14  C   UNL     1       3.236  26.993  48.546  1.00  0.00     0.060 A 
HETATM   15  C   UNL     1       3.890  26.027  47.628  1.00  0.00     0.073 C 
ENDBRANCH   6   8
ENDBRANCH   3   6
ENDBRANCH   1   2
BRANCH   1  16
HETATM   16  C   UNL     1       6.902  25.898  54.588  1.00  0.00     0.238 C 
BRANCH  16  17
HETATM   17  N   UNL     1       6.870  26.238  56.084  1.00  0.00    -0.061 N 
HETATM   18  H   UNL     1       7.169  25.364  56.537  1.00  0.00     0.280 HD
HETATM   19  C   UNL     1       5.542  26.588  56.710  1.00  0.00     0.236 C 
HETATM   20  C   UNL     1       5.693  28.038  57.117  1.00  0.00     0.029 C 
HETATM   21  C   UNL     1       7.141  28.121  57.550  1.00  0.00     0.029 C 
HETATM   22  C   UNL     1       7.879  27.279  56.526  1.00  0.00     0.236 C 
ENDBRANCH  16  17
BRANCH  16  23
HETATM   23  C   UNL     1       7.288  24.433  54.401  1.00  0.00    -0.024 A 
HETATM   24  C   UNL     1       7.502  23.559  55.482  1.00  0.00     0.033 A 
HETATM   25  C   UNL     1       7.883  22.233  55.258  1.00  0.00     0.034 A 
HETATM   26 CL   UNL     1       8.140  21.192  56.603  1.00  0.00    -0.084 Cl
HETATM   27  C   UNL     1       8.061  21.754  53.966  1.00  0.00     0.024 A 
HETATM   28  C   UNL     1       7.857  22.607  52.883  1.00  0.00     0.002 A 
HETATM   29  C   UNL     1       7.479  23.935  53.098  1.00  0.00     0.009 A 
ENDBRANCH  16  23
ENDBRANCH   1  16
TORSDOF 6
ENDMDL
MODEL 6
REMARK VINA RESULT:      -7.9      2.999      5.911
REMARK  6 active torsions:
REMARK  status: ('A' for Active; 'I' for Inactive)
REMARK    1  A    between atoms: C_8  and  C_9 
REMARK    2  A    between atoms: C_9  and  C_10 
REMARK       I    between atoms: C_10  and  N_11 
REMARK    3  A    between atoms: N_11  and  C_12 
REMARK    4  A    between atoms: C_12  and  C_13 
REMARK    5  A    between atoms: C_13  and  N_14 
REMARK    6  A    between atoms: C_13  and  C_20 
ROOT
HETATM    1  C   UNL     1       5.471  25.007  53.933  1.00  0.00     0.160 C 
ENDROOT
BRANCH   1   2
HETATM    2  N   UNL     1       4.884  26.308  53.619  1.00  0.00    -0.358 N 
HETATM    3  C   UNL     1       5.614  27.226  52.883  1.00  0.00     0.226 C 
HETATM    4  O   UNL     1       6.828  27.080  52.740  1.00  0.00    -0.273 OA
HETATM    5  H   UNL     1       3.881  26.325  53.472  1.00  0.00     0.162 HD
BRANCH   3   6
HETATM    6  C   UNL     1       4.857  28.426  52.299  1.00  0.00     0.111 C 
HETATM    7  C   UNL     1       3.396  28.522  52.735  1.00  0.00     0.025 C 
BRANCH   6   8
HETATM    8  C   UNL     1       5.036  28.533  50.811  1.00  0.00     0.004 A 
HETATM    9  C   UNL     1       5.317  29.693  50.103  1.00  0.00     0.033 A 
HETATM   10  C   UNL     1       5.526  31.097  50.537  1.00  0.00     0.070 C 
HETATM   11  N   UNL     1       5.397  29.331  48.789  1.00  0.00    -0.282 N 
HETATM   12  H   UNL     1       5.593  29.919  47.984  1.00  0.00     0.189 HD
HETATM   13  N   UNL     1       5.180  28.029  48.583  1.00  0.00    -0.179 NA
HETATM   14  C   UNL     1       4.952  27.529  49.800  1.00  0.00     0.060 A 
HETATM   15  C   UNL     1       4.665  26.077  49.917  1.00  0.00     0.073 C 
ENDBRANCH   6   8
ENDBRANCH   3   6
ENDBRANCH   1   2
BRANCH   1  16
HETATM   16  C   UNL     1       6.793  24.996  54.773  1.00  0.00     0.238 C 
BRANCH  16  17
HETATM   17  N   UNL     1       6.663  25.642  56.159  1.00  0.00    -0.061 N 
HETATM   18  H   UNL     1       7.217  25.025  56.767  1.00  0.00     0.280 HD
HETATM   19  C   UNL     1       5.293  25.712  56.789  1.00  0.00     0.236 C 
HETATM   20  C   UNL     1       4.992  27.194  56.862  1.00  0.00     0.029 C 
HETATM   21  C   UNL     1       6.346  27.803  57.161  1.00  0.00     0.029 C 
HETATM   22  C   UNL     1       7.303  27.009  56.291  1.00  0.00     0.236 C 
ENDBRANCH  16  17
BRANCH  16  23
HETATM   23  C   UNL     1       7.403  23.604  54.910  1.00  0.00    -0.024 A 
HETATM   24  C   UNL     1       7.553  22.729  53.820  1.00  0.00     0.033 A 
HETATM   25  C   UNL     1       8.091  21.452  54.002  1.00  0.00     0.034 A 
HETATM   26 CL   UNL     1       8.257  20.406  52.647  1.00  0.00    -0.084 Cl
HETATM   27  C   UNL     1       8.484  21.021  55.263  1.00  0.00     0.024 A 
HETATM   28  C   UNL     1       8.338  21.873  56.356  1.00  0.00     0.002 A 
HETATM   29  C   UNL     1       7.799  23.151  56.183  1.00  0.00     0.009 A 
ENDBRANCH  16  23
ENDBRANCH   1  16
TORSDOF 6
ENDMDL
MODEL 7
REMARK VINA RESULT:      -7.9      3.408      5.641
REMARK  6 active torsions:
REMARK  status: ('A' for Active; 'I' for Inactive)
REMARK    1  A    between atoms: C_8  and  C_9 
REMARK    2  A    between atoms: C_9  and  C_10 
REMARK       I    between atoms: C_10  and  N_11 
REMARK    3  A    between atoms: N_11  and  C_12 
REMARK    4  A    between atoms: C_12  and  C_13 
REMARK    5  A    between atoms: C_13  and  N_14 
REMARK    6  A    between atoms: C_13  and  C_20 
ROOT
HETATM    1  C   UNL     1       4.953  27.240  53.172  1.00  0.00     0.160 C 
ENDROOT
BRANCH   1   2
HETATM    2  N   UNL     1       5.537  27.355  54.506  1.00  0.00    -0.358 N 
HETATM    3  C   UNL     1       5.193  28.427  55.312  1.00  0.00     0.226 C 
HETATM    4  O   UNL     1       4.639  29.414  54.825  1.00  0.00    -0.273 OA
HETATM    5  H   UNL     1       5.727  26.485  54.990  1.00  0.00     0.162 HD
BRANCH   3   6
HETATM    6  C   UNL     1       5.558  28.341  56.799  1.00  0.00     0.111 C 
HETATM    7  C   UNL     1       5.997  29.667  57.417  1.00  0.00     0.025 C 
BRANCH   6   8
HETATM    8  C   UNL     1       6.514  27.216  57.079  1.00  0.00     0.004 A 
HETATM    9  C   UNL     1       6.174  25.887  57.284  1.00  0.00     0.033 A 
HETATM   10  C   UNL     1       4.867  25.184  57.289  1.00  0.00     0.070 C 
HETATM   11  N   UNL     1       7.345  25.219  57.499  1.00  0.00    -0.282 N 
HETATM   12  H   UNL     1       7.482  24.228  57.680  1.00  0.00     0.189 HD
HETATM   13  N   UNL     1       8.421  26.009  57.461  1.00  0.00    -0.179 NA
HETATM   14  C   UNL     1       7.935  27.228  57.213  1.00  0.00     0.060 A 
HETATM   15  C   UNL     1       8.894  28.357  57.114  1.00  0.00     0.073 C 
ENDBRANCH   6   8
ENDBRANCH   3   6
ENDBRANCH   1   2
BRANCH   1  16
HETATM   16  C   UNL     1       5.909  26.837  51.998  1.00  0.00     0.238 C 
BRANCH  16  17
HETATM   17  N   UNL     1       6.337  25.364  52.012  1.00  0.00    -0.061 N 
HETATM   18  H   UNL     1       6.099  25.034  51.066  1.00  0.00     0.280 HD
HETATM   19  C   UNL     1       5.632  24.424  52.960  1.00  0.00     0.236 C 
HETATM   20  C   UNL     1       6.710  24.002  53.934  1.00  0.00     0.029 C 
HETATM   21  C   UNL     1       7.946  23.923  53.063  1.00  0.00     0.029 C 
HETATM   22  C   UNL     1       7.827  25.130  52.151  1.00  0.00     0.236 C 
ENDBRANCH  16  17
BRANCH  16  23
HETATM   23  C   UNL     1       5.353  27.199  50.623  1.00  0.00    -0.024 A 
HETATM   24  C   UNL     1       4.699  26.268  49.799  1.00  0.00     0.033 A 
HETATM   25  C   UNL     1       4.233  26.642  48.535  1.00  0.00     0.034 A 
HETATM   26 CL   UNL     1       3.440  25.475  47.550  1.00  0.00    -0.084 Cl
HETATM   27  C   UNL     1       4.410  27.939  48.068  1.00  0.00     0.024 A 
HETATM   28  C   UNL     1       5.060  28.874  48.871  1.00  0.00     0.002 A 
HETATM   29  C   UNL     1       5.531  28.508  50.134  1.00  0.00     0.009 A 
ENDBRANCH  16  23
ENDBRANCH   1  16
TORSDOF 6
ENDMDL
MODEL 8
REMARK VINA RESULT:      -7.9      2.263      4.000
REMARK  6 active torsions:
REMARK  status: ('A' for Active; 'I' for Inactive)
REMARK    1  A    between atoms: C_8  and  C_9 
REMARK    2  A    between atoms: C_9  and  C_10 
REMARK       I    between atoms: C_10  and  N_11 
REMARK    3  A    between atoms: N_11  and  C_12 
REMARK    4  A    between atoms: C_12  and  C_13 
REMARK    5  A    between atoms: C_13  and  N_14 
REMARK    6  A    between atoms: C_13  and  C_20 
ROOT
HETATM    1  C   UNL     1       7.628  23.626  56.772  1.00  0.00     0.160 C 
ENDROOT
BRANCH   1   2
HETATM    2  N   UNL     1       6.909  24.871  57.029  1.00  0.00    -0.358 N 
HETATM    3  C   UNL     1       7.574  25.935  57.614  1.00  0.00     0.226 C 
HETATM    4  O   UNL     1       8.657  25.757  58.171  1.00  0.00    -0.273 OA
HETATM    5  H   UNL     1       6.185  25.117  56.364  1.00  0.00     0.162 HD
BRANCH   3   6
HETATM    6  C   UNL     1       6.893  27.309  57.564  1.00  0.00     0.111 C 
HETATM    7  C   UNL     1       5.501  27.299  56.933  1.00  0.00     0.025 C 
BRANCH   6   8
HETATM    8  C   UNL     1       7.794  28.363  56.985  1.00  0.00     0.004 A 
HETATM    9  C   UNL     1       8.393  29.400  57.685  1.00  0.00     0.033 A 
HETATM   10  C   UNL     1       8.356  29.784  59.118  1.00  0.00     0.070 C 
HETATM   11  N   UNL     1       9.121  30.109  56.774  1.00  0.00    -0.282 N 
HETATM   12  H   UNL     1       9.695  30.933  56.928  1.00  0.00     0.189 HD
HETATM   13  N   UNL     1       9.036  29.622  55.532  1.00  0.00    -0.179 NA
HETATM   14  C   UNL     1       8.228  28.564  55.640  1.00  0.00     0.060 A 
HETATM   15  C   UNL     1       7.921  27.791  54.411  1.00  0.00     0.073 C 
ENDBRANCH   6   8
ENDBRANCH   3   6
ENDBRANCH   1   2
BRANCH   1  16
HETATM   16  C   UNL     1       8.497  23.549  55.471  1.00  0.00     0.238 C 
BRANCH  16  17
HETATM   17  N   UNL     1       9.059  22.153  55.171  1.00  0.00    -0.061 N 
HETATM   18  H   UNL     1      10.072  22.264  55.316  1.00  0.00     0.280 HD
HETATM   19  C   UNL     1       8.905  21.605  53.774  1.00  0.00     0.236 C 
HETATM   20  C   UNL     1       7.986  20.414  53.940  1.00  0.00     0.029 C 
HETATM   21  C   UNL     1       8.407  19.844  55.279  1.00  0.00     0.029 C 
HETATM   22  C   UNL     1       8.636  21.070  56.143  1.00  0.00     0.236 C 
ENDBRANCH  16  17
BRANCH  16  23
HETATM   23  C   UNL     1       7.777  24.090  54.239  1.00  0.00    -0.024 A 
HETATM   24  C   UNL     1       6.384  24.266  54.189  1.00  0.00     0.033 A 
HETATM   25  C   UNL     1       5.768  24.737  53.025  1.00  0.00     0.034 A 
HETATM   26 CL   UNL     1       4.060  24.936  52.997  1.00  0.00    -0.084 Cl
HETATM   27  C   UNL     1       6.521  25.037  51.896  1.00  0.00     0.024 A 
HETATM   28  C   UNL     1       7.903  24.865  51.927  1.00  0.00     0.002 A 
HETATM   29  C   UNL     1       8.526  24.392  53.085  1.00  0.00     0.009 A 
ENDBRANCH  16  23
ENDBRANCH   1  16
TORSDOF 6
ENDMDL
MODEL 9
REMARK VINA RESULT:      -7.8      3.101      5.230
REMARK  6 active torsions:
REMARK  status: ('A' for Active; 'I' for Inactive)
REMARK    1  A    between atoms: C_8  and  C_9 
REMARK    2  A    between atoms: C_9  and  C_10 
REMARK       I    between atoms: C_10  and  N_11 
REMARK    3  A    between atoms: N_11  and  C_12 
REMARK    4  A    between atoms: C_12  and  C_13 
REMARK    5  A    between atoms: C_13  and  N_14 
REMARK    6  A    between atoms: C_13  and  C_20 
ROOT
HETATM    1  C   UNL     1       5.643  27.518  53.181  1.00  0.00     0.160 C 
ENDROOT
BRANCH   1   2
HETATM    2  N   UNL     1       6.626  27.873  54.202  1.00  0.00    -0.358 N 
HETATM    3  C   UNL     1       6.551  27.287  55.454  1.00  0.00     0.226 C 
HETATM    4  O   UNL     1       5.525  26.705  55.805  1.00  0.00    -0.273 OA
HETATM    5  H   UNL     1       7.560  28.086  53.871  1.00  0.00     0.162 HD
BRANCH   3   6
HETATM    6  C   UNL     1       7.770  27.428  56.375  1.00  0.00     0.111 C 
HETATM    7  C   UNL     1       7.953  26.272  57.357  1.00  0.00     0.025 C 
BRANCH   6   8
HETATM    8  C   UNL     1       7.823  28.776  57.036  1.00  0.00     0.004 A 
HETATM    9  C   UNL     1       8.968  29.521  57.281  1.00  0.00     0.033 A 
HETATM   10  C   UNL     1      10.401  29.266  56.993  1.00  0.00     0.070 C 
HETATM   11  N   UNL     1       8.555  30.670  57.891  1.00  0.00    -0.282 N 
HETATM   12  H   UNL     1       9.120  31.452  58.211  1.00  0.00     0.189 HD
HETATM   13  N   UNL     1       7.233  30.729  58.073  1.00  0.00    -0.179 NA
HETATM   14  C   UNL     1       6.772  29.584  57.565  1.00  0.00     0.060 A 
HETATM   15  C   UNL     1       5.309  29.333  57.618  1.00  0.00     0.073 C 
ENDBRANCH   6   8
ENDBRANCH   3   6
ENDBRANCH   1   2
BRANCH   1  16
HETATM   16  C   UNL     1       6.177  26.866  51.860  1.00  0.00     0.238 C 
BRANCH  16  17
HETATM   17  N   UNL     1       6.358  25.344  51.938  1.00  0.00    -0.061 N 
HETATM   18  H   UNL     1       5.990  25.010  51.037  1.00  0.00     0.280 HD
HETATM   19  C   UNL     1       5.594  24.587  52.997  1.00  0.00     0.236 C 
HETATM   20  C   UNL     1       6.668  24.040  53.912  1.00  0.00     0.029 C 
HETATM   21  C   UNL     1       7.795  23.710  52.956  1.00  0.00     0.029 C 
HETATM   22  C   UNL     1       7.797  24.871  51.979  1.00  0.00     0.236 C 
ENDBRANCH  16  17
BRANCH  16  23
HETATM   23  C   UNL     1       5.339  27.223  50.636  1.00  0.00    -0.024 A 
HETATM   24  C   UNL     1       4.761  26.251  49.801  1.00  0.00     0.033 A 
HETATM   25  C   UNL     1       4.025  26.630  48.674  1.00  0.00     0.034 A 
HETATM   26 CL   UNL     1       3.335  25.414  47.671  1.00  0.00    -0.084 Cl
HETATM   27  C   UNL     1       3.855  27.971  48.355  1.00  0.00     0.024 A 
HETATM   28  C   UNL     1       4.425  28.948  49.170  1.00  0.00     0.002 A 
HETATM   29  C   UNL     1       5.164  28.578  50.297  1.00  0.00     0.009 A 
ENDBRANCH  16  23
ENDBRANCH   1  16
TORSDOF 6
ENDMDL
MODEL 10
REMARK VINA RESULT:      -7.8      1.891      2.811
REMARK  6 active torsions:
REMARK  status: ('A' for Active; 'I' for Inactive)
REMARK    1  A    between atoms: C_8  and  C_9 
REMARK    2  A    between atoms: C_9  and  C_10 
REMARK       I    between atoms: C_10  and  N_11 
REMARK    3  A    between atoms: N_11  and  C_12 
REMARK    4  A    between atoms: C_12  and  C_13 
REMARK    5  A    between atoms: C_13  and  N_14 
REMARK    6  A    between atoms: C_13  and  C_20 
ROOT
HETATM    1  C   UNL     1       5.264  27.341  54.028  1.00  0.00     0.160 C 
ENDROOT
BRANCH   1   2
HETATM    2  N   UNL     1       6.201  27.097  55.121  1.00  0.00    -0.358 N 
HETATM    3  C   UNL     1       7.406  27.778  55.153  1.00  0.00     0.226 C 
HETATM    4  O   UNL     1       7.815  28.358  54.147  1.00  0.00    -0.273 OA
HETATM    5  H   UNL     1       5.793  26.883  56.024  1.00  0.00     0.162 HD
BRANCH   3   6
HETATM    6  C   UNL     1       8.204  27.746  56.463  1.00  0.00     0.111 C 
HETATM    7  C   UNL     1       7.876  26.561  57.370  1.00  0.00     0.025 C 
BRANCH   6   8
HETATM    8  C   UNL     1       8.161  29.065  57.180  1.00  0.00     0.004 A 
HETATM    9  C   UNL     1       9.256  29.848  57.517  1.00  0.00     0.033 A 
HETATM   10  C   UNL     1      10.713  29.667  57.297  1.00  0.00     0.070 C 
HETATM   11  N   UNL     1       8.761  30.951  58.149  1.00  0.00    -0.282 N 
HETATM   12  H   UNL     1       9.272  31.742  58.531  1.00  0.00     0.189 HD
HETATM   13  N   UNL     1       7.429  30.946  58.261  1.00  0.00    -0.179 NA
HETATM   14  C   UNL     1       7.048  29.804  57.683  1.00  0.00     0.060 A 
HETATM   15  C   UNL     1       5.597  29.489  57.646  1.00  0.00     0.073 C 
ENDBRANCH   6   8
ENDBRANCH   3   6
ENDBRANCH   1   2
BRANCH   1  16
HETATM   16  C   UNL     1       5.304  26.358  52.809  1.00  0.00     0.238 C 
BRANCH  16  17
HETATM   17  N   UNL     1       5.525  27.045  51.455  1.00  0.00    -0.061 N 
HETATM   18  H   UNL     1       6.508  26.836  51.236  1.00  0.00     0.280 HD
HETATM   19  C   UNL     1       5.403  28.547  51.386  1.00  0.00     0.236 C 
HETATM   20  C   UNL     1       4.199  28.782  50.499  1.00  0.00     0.029 C 
HETATM   21  C   UNL     1       4.302  27.664  49.482  1.00  0.00     0.029 C 
HETATM   22  C   UNL     1       4.730  26.463  50.304  1.00  0.00     0.236 C 
ENDBRANCH  16  17
BRANCH  16  23
HETATM   23  C   UNL     1       6.315  25.228  52.985  1.00  0.00    -0.024 A 
HETATM   24  C   UNL     1       6.303  24.364  54.093  1.00  0.00     0.033 A 
HETATM   25  C   UNL     1       7.269  23.362  54.223  1.00  0.00     0.034 A 
HETATM   26 CL   UNL     1       7.228  22.324  55.594  1.00  0.00    -0.084 Cl
HETATM   27  C   UNL     1       8.261  23.204  53.263  1.00  0.00     0.024 A 
HETATM   28  C   UNL     1       8.290  24.055  52.159  1.00  0.00     0.002 A 
HETATM   29  C   UNL     1       7.329  25.060  52.023  1.00  0.00     0.009 A 
ENDBRANCH  16  23
ENDBRANCH   1  16
TORSDOF 6
ENDMDL
