MODEL 1
REMARK VINA RESULT:      -9.1      0.000      0.000
REMARK  5 active torsions:
REMARK  status: ('A' for Active; 'I' for Inactive)
REMARK    1  A    between atoms: C_8  and  C_9 
REMARK    2  A    between atoms: C_13  and  C_14 
REMARK    3  A    between atoms: C_14  and  O_15 
REMARK    4  A    between atoms: O_15  and  C_16 
REMARK    5  A    between atoms: C_27  and  N_28 
ROOT
HETATM    1  C   UNL     1       9.971  29.184  54.647  1.00  0.00     0.073 C 
HETATM    2  C   UNL     1       9.928  29.666  56.049  1.00  0.00     0.062 A 
HETATM    3  N   UNL     1      11.068  29.909  56.719  1.00  0.00    -0.177 NA
HETATM    4  N   UNL     1      10.657  30.312  57.940  1.00  0.00    -0.256 N 
HETATM    5  H   UNL     1      11.353  30.550  58.636  1.00  0.00     0.191 HD
HETATM    6  C   UNL     1       9.305  30.352  58.050  1.00  0.00     0.175 A 
HETATM    7  C   UNL     1       8.795  29.927  56.853  1.00  0.00     0.035 A 
HETATM    8  C   UNL     1       7.320  29.834  56.644  1.00  0.00     0.112 A 
HETATM    9  C   UNL     1       6.594  30.393  57.883  1.00  0.00     0.081 A 
HETATM   10  C   UNL     1       5.177  30.507  57.789  1.00  0.00     0.100 C 
HETATM   11  N   UNL     1       4.025  30.635  57.714  1.00  0.00    -0.191 NA
HETATM   12  C   UNL     1       7.241  30.787  59.015  1.00  0.00     0.140 A 
HETATM   13  O   UNL     1       8.641  30.741  59.129  1.00  0.00    -0.279 OA
ENDROOT
BRANCH   8  14
HETATM   14  C   UNL     1       6.912  28.411  56.307  1.00  0.00    -0.003 A 
HETATM   15  S   UNL     1       5.932  28.096  54.942  1.00  0.00    -0.098 SA
HETATM   16  C   UNL     1       5.923  26.412  55.239  1.00  0.00    -0.013 A 
HETATM   17  C   UNL     1       5.185  25.500  54.313  1.00  0.00     0.057 C 
HETATM   18  C   UNL     1       6.645  26.077  56.374  1.00  0.00    -0.020 A 
HETATM   19  C   UNL     1       7.219  27.244  56.978  1.00  0.00     0.026 A 
BRANCH  18  20
HETATM   20  C   UNL     1       6.828  24.683  56.912  1.00  0.00     0.215 C 
BRANCH  20  21
HETATM   21  O   UNL     1       8.077  24.147  56.472  1.00  0.00    -0.347 OA
BRANCH  21  22
HETATM   22  C   UNL     1       8.040  23.227  55.462  1.00  0.00     0.069 A 
HETATM   23  C   UNL     1       8.130  23.502  54.094  1.00  0.00     0.040 A 
HETATM   24  C   UNL     1       8.076  22.456  53.167  1.00  0.00     0.045 A 
HETATM   25  C   UNL     1       7.937  21.146  53.610  1.00  0.00     0.116 A 
HETATM   26  F   UNL     1       7.885  20.150  52.717  1.00  0.00    -0.206 F 
HETATM   27  C   UNL     1       7.851  20.858  54.965  1.00  0.00     0.045 A 
HETATM   28  C   UNL     1       7.904  21.902  55.889  1.00  0.00     0.040 A 
ENDBRANCH  21  22
ENDBRANCH  20  21
ENDBRANCH  18  20
ENDBRANCH   8  14
BRANCH  12  29
HETATM   29  N   UNL     1       6.637  31.280  60.149  1.00  0.00    -0.282 NA
HETATM   30  H   UNL     1       5.847  30.744  60.500  1.00  0.00     0.126 HD
HETATM   31  H   UNL     1       6.444  32.277  60.080  1.00  0.00     0.126 HD
ENDBRANCH  12  29
TORSDOF 5
ENDMDL
MODEL 2
REMARK VINA RESULT:      -8.9      4.606      8.246
REMARK  5 active torsions:
REMARK  status: ('A' for Active; 'I' for Inactive)
REMARK    1  A    between atoms: C_8  and  C_9 
REMARK    2  A    between atoms: C_13  and  C_14 
REMARK    3  A    between atoms: C_14  and  O_15 
REMARK    4  A    between atoms: O_15  and  C_16 
REMARK    5  A    between atoms: C_27  and  N_28 
ROOT
HETATM    1  C   UNL     1       7.034  24.092  56.487  1.00  0.00     0.073 C 
HETATM    2  C   UNL     1       6.745  24.238  55.039  1.00  0.00     0.062 A 
HETATM    3  N   UNL     1       7.088  23.265  54.176  1.00  0.00    -0.177 NA
HETATM    4  N   UNL     1       6.694  23.734  52.973  1.00  0.00    -0.256 N 
HETATM    5  H   UNL     1       6.856  23.165  52.150  1.00  0.00     0.191 HD
HETATM    6  C   UNL     1       6.098  24.950  53.055  1.00  0.00     0.175 A 
HETATM    7  C   UNL     1       6.125  25.319  54.373  1.00  0.00     0.035 A 
HETATM    8  C   UNL     1       5.560  26.631  54.808  1.00  0.00     0.112 A 
HETATM    9  C   UNL     1       4.895  27.323  53.603  1.00  0.00     0.081 A 
HETATM   10  C   UNL     1       4.182  28.526  53.878  1.00  0.00     0.100 C 
HETATM   11  N   UNL     1       3.570  29.489  54.093  1.00  0.00    -0.191 NA
HETATM   12  C   UNL     1       4.946  26.830  52.334  1.00  0.00     0.140 A 
HETATM   13  O   UNL     1       5.593  25.620  52.029  1.00  0.00    -0.279 OA
ENDROOT
BRANCH   8  14
HETATM   14  C   UNL     1       6.627  27.484  55.470  1.00  0.00    -0.003 A 
HETATM   15  S   UNL     1       7.941  28.082  54.555  1.00  0.00    -0.098 SA
HETATM   16  C   UNL     1       8.628  28.868  55.910  1.00  0.00    -0.013 A 
HETATM   17  C   UNL     1       9.894  29.646  55.752  1.00  0.00     0.057 C 
HETATM   18  C   UNL     1       7.882  28.674  57.062  1.00  0.00    -0.020 A 
HETATM   19  C   UNL     1       6.721  27.877  56.791  1.00  0.00     0.026 A 
BRANCH  18  20
HETATM   20  C   UNL     1       8.215  29.225  58.422  1.00  0.00     0.215 C 
BRANCH  20  21
HETATM   21  O   UNL     1       7.765  30.577  58.528  1.00  0.00    -0.347 OA
BRANCH  21  22
HETATM   22  C   UNL     1       7.851  31.170  59.756  1.00  0.00     0.069 A 
HETATM   23  C   UNL     1       6.962  32.113  60.279  1.00  0.00     0.040 A 
HETATM   24  C   UNL     1       7.175  32.641  61.557  1.00  0.00     0.045 A 
HETATM   25  C   UNL     1       8.270  32.221  62.304  1.00  0.00     0.116 A 
HETATM   26  F   UNL     1       8.468  32.730  63.527  1.00  0.00    -0.206 F 
HETATM   27  C   UNL     1       9.158  31.281  61.800  1.00  0.00     0.045 A 
HETATM   28  C   UNL     1       8.945  30.756  60.525  1.00  0.00     0.040 A 
ENDBRANCH  21  22
ENDBRANCH  20  21
ENDBRANCH  18  20
ENDBRANCH   8  14
BRANCH  12  29
HETATM   29  N   UNL     1       4.379  27.417  51.226  1.00  0.00    -0.282 NA
HETATM   30  H   UNL     1       4.783  28.306  50.939  1.00  0.00     0.126 HD
HETATM   31  H   UNL     1       3.363  27.440  51.279  1.00  0.00     0.126 HD
ENDBRANCH  12  29
TORSDOF 5
ENDMDL
MODEL 3
REMARK VINA RESULT:      -8.8      1.686      2.465
REMARK  5 active torsions:
REMARK  status: ('A' for Active; 'I' for Inactive)
REMARK    1  A    between atoms: C_8  and  C_9 
REMARK    2  A    between atoms: C_13  and  C_14 
REMARK    3  A    between atoms: C_14  and  O_15 
REMARK    4  A    between atoms: O_15  and  C_16 
REMARK    5  A    between atoms: C_27  and  N_28 
ROOT
HETATM    1  C   UNL     1       9.568  29.136  57.249  1.00  0.00     0.073 C 
HETATM    2  C   UNL     1       8.500  29.833  58.006  1.00  0.00     0.062 A 
HETATM    3  N   UNL     1       8.688  30.169  59.294  1.00  0.00    -0.177 NA
HETATM    4  N   UNL     1       7.531  30.760  59.657  1.00  0.00    -0.256 N 
HETATM    5  H   UNL     1       7.432  31.099  60.607  1.00  0.00     0.191 HD
HETATM    6  C   UNL     1       6.636  30.827  58.639  1.00  0.00     0.175 A 
HETATM    7  C   UNL     1       7.218  30.223  57.557  1.00  0.00     0.035 A 
HETATM    8  C   UNL     1       6.483  30.110  56.262  1.00  0.00     0.112 A 
HETATM    9  C   UNL     1       5.142  30.861  56.371  1.00  0.00     0.081 A 
HETATM   10  C   UNL     1       4.378  30.968  55.172  1.00  0.00     0.100 C 
HETATM   11  N   UNL     1       3.761  31.092  54.197  1.00  0.00    -0.191 NA
HETATM   12  C   UNL     1       4.690  31.422  57.526  1.00  0.00     0.140 A 
HETATM   13  O   UNL     1       5.436  31.384  58.717  1.00  0.00    -0.279 OA
ENDROOT
BRANCH   8  14
HETATM   14  C   UNL     1       6.320  28.655  55.862  1.00  0.00    -0.003 A 
HETATM   15  S   UNL     1       5.617  27.536  56.948  1.00  0.00    -0.098 SA
HETATM   16  C   UNL     1       5.786  26.240  55.845  1.00  0.00    -0.013 A 
HETATM   17  C   UNL     1       5.308  24.876  56.226  1.00  0.00     0.057 C 
HETATM   18  C   UNL     1       6.385  26.636  54.659  1.00  0.00    -0.020 A 
HETATM   19  C   UNL     1       6.682  28.039  54.679  1.00  0.00     0.026 A 
BRANCH  18  20
HETATM   20  C   UNL     1       6.683  25.738  53.489  1.00  0.00     0.215 C 
BRANCH  20  21
HETATM   21  O   UNL     1       7.990  25.178  53.619  1.00  0.00    -0.347 OA
BRANCH  21  22
HETATM   22  C   UNL     1       8.075  23.828  53.817  1.00  0.00     0.069 A 
HETATM   23  C   UNL     1       7.790  22.838  52.873  1.00  0.00     0.040 A 
HETATM   24  C   UNL     1       7.919  21.488  53.216  1.00  0.00     0.045 A 
HETATM   25  C   UNL     1       8.334  21.136  54.495  1.00  0.00     0.116 A 
HETATM   26  F   UNL     1       8.455  19.842  54.816  1.00  0.00    -0.206 F 
HETATM   27  C   UNL     1       8.625  22.109  55.441  1.00  0.00     0.045 A 
HETATM   28  C   UNL     1       8.495  23.455  55.099  1.00  0.00     0.040 A 
ENDBRANCH  21  22
ENDBRANCH  20  21
ENDBRANCH  18  20
ENDBRANCH   8  14
BRANCH  12  29
HETATM   29  N   UNL     1       3.496  32.091  57.675  1.00  0.00    -0.282 NA
HETATM   30  H   UNL     1       3.293  32.797  56.972  1.00  0.00     0.126 HD
HETATM   31  H   UNL     1       3.358  32.424  58.626  1.00  0.00     0.126 HD
ENDBRANCH  12  29
TORSDOF 5
ENDMDL
MODEL 4
REMARK VINA RESULT:      -8.4      2.889      4.661
REMARK  5 active torsions:
REMARK  status: ('A' for Active; 'I' for Inactive)
REMARK    1  A    between atoms: C_8  and  C_9 
REMARK    2  A    between atoms: C_13  and  C_14 
REMARK    3  A    between atoms: C_14  and  O_15 
REMARK    4  A    between atoms: O_15  and  C_16 
REMARK    5  A    between atoms: C_27  and  N_28 
ROOT
HETATM    1  C   UNL     1       9.478  31.906  61.770  1.00  0.00     0.073 C 
HETATM    2  C   UNL     1       8.010  31.903  61.984  1.00  0.00     0.062 A 
HETATM    3  N   UNL     1       7.502  31.677  63.208  1.00  0.00    -0.177 NA
HETATM    4  N   UNL     1       6.166  31.734  63.029  1.00  0.00    -0.256 N 
HETATM    5  H   UNL     1       5.559  31.585  63.826  1.00  0.00     0.191 HD
HETATM    6  C   UNL     1       5.821  32.010  61.746  1.00  0.00     0.175 A 
HETATM    7  C   UNL     1       6.985  32.112  61.033  1.00  0.00     0.035 A 
HETATM    8  C   UNL     1       6.959  32.394  59.567  1.00  0.00     0.112 A 
HETATM    9  C   UNL     1       5.506  32.654  59.126  1.00  0.00     0.081 A 
HETATM   10  C   UNL     1       5.320  33.078  57.778  1.00  0.00     0.100 C 
HETATM   11  N   UNL     1       5.157  33.455  56.692  1.00  0.00    -0.191 NA
HETATM   12  C   UNL     1       4.435  32.517  59.956  1.00  0.00     0.140 A 
HETATM   13  O   UNL     1       4.578  32.152  61.306  1.00  0.00    -0.279 OA
ENDROOT
BRANCH   8  14
HETATM   14  C   UNL     1       7.626  31.274  58.791  1.00  0.00    -0.003 A 
HETATM   15  S   UNL     1       9.299  31.342  58.445  1.00  0.00    -0.098 SA
HETATM   16  C   UNL     1       9.268  29.847  57.615  1.00  0.00    -0.013 A 
HETATM   17  C   UNL     1      10.530  29.298  57.032  1.00  0.00     0.057 C 
HETATM   18  C   UNL     1       7.998  29.293  57.580  1.00  0.00    -0.020 A 
HETATM   19  C   UNL     1       7.058  30.126  58.273  1.00  0.00     0.026 A 
BRANCH  18  20
HETATM   20  C   UNL     1       7.632  27.989  56.924  1.00  0.00     0.215 C 
BRANCH  20  21
HETATM   21  O   UNL     1       8.055  26.894  57.738  1.00  0.00    -0.347 OA
BRANCH  21  22
HETATM   22  C   UNL     1       7.963  25.642  57.197  1.00  0.00     0.069 A 
HETATM   23  C   UNL     1       8.830  24.573  57.444  1.00  0.00     0.040 A 
HETATM   24  C   UNL     1       8.616  23.342  56.816  1.00  0.00     0.045 A 
HETATM   25  C   UNL     1       7.539  23.185  55.951  1.00  0.00     0.116 A 
HETATM   26  F   UNL     1       7.340  22.003  55.354  1.00  0.00    -0.206 F 
HETATM   27  C   UNL     1       6.668  24.236  55.701  1.00  0.00     0.045 A 
HETATM   28  C   UNL     1       6.882  25.464  56.326  1.00  0.00     0.040 A 
ENDBRANCH  21  22
ENDBRANCH  20  21
ENDBRANCH  18  20
ENDBRANCH   8  14
BRANCH  12  29
HETATM   29  N   UNL     1       3.120  32.725  59.605  1.00  0.00    -0.282 NA
HETATM   30  H   UNL     1       2.708  32.024  58.994  1.00  0.00     0.126 HD
HETATM   31  H   UNL     1       2.952  33.678  59.290  1.00  0.00     0.126 HD
ENDBRANCH  12  29
TORSDOF 5
ENDMDL
MODEL 5
REMARK VINA RESULT:      -8.4      4.940      6.874
REMARK  5 active torsions:
REMARK  status: ('A' for Active; 'I' for Inactive)
REMARK    1  A    between atoms: C_8  and  C_9 
REMARK    2  A    between atoms: C_13  and  C_14 
REMARK    3  A    between atoms: C_14  and  O_15 
REMARK    4  A    between atoms: O_15  and  C_16 
REMARK    5  A    between atoms: C_27  and  N_28 
ROOT
HETATM    1  C   UNL     1       7.848  24.405  51.969  1.00  0.00     0.073 C 
HETATM    2  C   UNL     1       7.659  24.007  53.386  1.00  0.00     0.062 A 
HETATM    3  N   UNL     1       7.458  22.718  53.708  1.00  0.00    -0.177 NA
HETATM    4  N   UNL     1       7.317  22.728  55.050  1.00  0.00    -0.256 N 
HETATM    5  H   UNL     1       7.146  21.853  55.531  1.00  0.00     0.191 HD
HETATM    6  C   UNL     1       7.445  23.971  55.580  1.00  0.00     0.175 A 
HETATM    7  C   UNL     1       7.653  24.830  54.535  1.00  0.00     0.035 A 
HETATM    8  C   UNL     1       7.818  26.295  54.774  1.00  0.00     0.112 A 
HETATM    9  C   UNL     1       7.840  26.563  56.291  1.00  0.00     0.081 A 
HETATM   10  C   UNL     1       8.132  27.899  56.694  1.00  0.00     0.100 C 
HETATM   11  N   UNL     1       8.400  28.975  57.037  1.00  0.00    -0.191 NA
HETATM   12  C   UNL     1       7.620  25.597  57.226  1.00  0.00     0.140 A 
HETATM   13  O   UNL     1       7.381  24.257  56.873  1.00  0.00    -0.279 OA
ENDROOT
BRANCH   8  14
HETATM   14  C   UNL     1       6.744  27.084  54.046  1.00  0.00    -0.003 A 
HETATM   15  S   UNL     1       5.148  27.133  54.658  1.00  0.00    -0.098 SA
HETATM   16  C   UNL     1       4.606  28.130  53.379  1.00  0.00    -0.013 A 
HETATM   17  C   UNL     1       3.179  28.575  53.341  1.00  0.00     0.057 C 
HETATM   18  C   UNL     1       5.616  28.420  52.476  1.00  0.00    -0.020 A 
HETATM   19  C   UNL     1       6.852  27.814  52.879  1.00  0.00     0.026 A 
BRANCH  18  20
HETATM   20  C   UNL     1       5.467  29.265  51.239  1.00  0.00     0.215 C 
BRANCH  20  21
HETATM   21  O   UNL     1       5.627  28.459  50.071  1.00  0.00    -0.347 OA
BRANCH  21  22
HETATM   22  C   UNL     1       4.492  27.960  49.496  1.00  0.00     0.069 A 
HETATM   23  C   UNL     1       4.376  26.736  48.830  1.00  0.00     0.040 A 
HETATM   24  C   UNL     1       3.147  26.352  48.285  1.00  0.00     0.045 A 
HETATM   25  C   UNL     1       2.043  27.189  48.410  1.00  0.00     0.116 A 
HETATM   26  F   UNL     1       0.870  26.815  47.885  1.00  0.00    -0.206 F 
HETATM   27  C   UNL     1       2.143  28.404  49.072  1.00  0.00     0.045 A 
HETATM   28  C   UNL     1       3.370  28.787  49.615  1.00  0.00     0.040 A 
ENDBRANCH  21  22
ENDBRANCH  20  21
ENDBRANCH  18  20
ENDBRANCH   8  14
BRANCH  12  29
HETATM   29  N   UNL     1       7.618  25.789  58.589  1.00  0.00    -0.282 NA
HETATM   30  H   UNL     1       6.818  26.293  58.964  1.00  0.00     0.126 HD
HETATM   31  H   UNL     1       8.509  26.145  58.928  1.00  0.00     0.126 HD
ENDBRANCH  12  29
TORSDOF 5
ENDMDL
MODEL 6
REMARK VINA RESULT:      -8.2      6.044      7.971
REMARK  5 active torsions:
REMARK  status: ('A' for Active; 'I' for Inactive)
REMARK    1  A    between atoms: C_8  and  C_9 
REMARK    2  A    between atoms: C_13  and  C_14 
REMARK    3  A    between atoms: C_14  and  O_15 
REMARK    4  A    between atoms: O_15  and  C_16 
REMARK    5  A    between atoms: C_27  and  N_28 
ROOT
HETATM    1  C   UNL     1       5.834  30.891  49.561  1.00  0.00     0.073 C 
HETATM    2  C   UNL     1       4.394  30.704  49.257  1.00  0.00     0.062 A 
HETATM    3  N   UNL     1       3.573  31.766  49.177  1.00  0.00    -0.177 NA
HETATM    4  N   UNL     1       2.364  31.232  48.905  1.00  0.00    -0.256 N 
HETATM    5  H   UNL     1       1.568  31.851  48.803  1.00  0.00     0.191 HD
HETATM    6  C   UNL     1       2.403  29.881  48.790  1.00  0.00     0.175 A 
HETATM    7  C   UNL     1       3.695  29.498  49.026  1.00  0.00     0.035 A 
HETATM    8  C   UNL     1       4.080  28.055  48.994  1.00  0.00     0.112 A 
HETATM    9  C   UNL     1       2.867  27.215  48.549  1.00  0.00     0.081 A 
HETATM   10  C   UNL     1       3.105  25.827  48.331  1.00  0.00     0.100 C 
HETATM   11  N   UNL     1       3.291  24.701  48.118  1.00  0.00    -0.191 NA
HETATM   12  C   UNL     1       1.627  27.740  48.345  1.00  0.00     0.140 A 
HETATM   13  O   UNL     1       1.363  29.113  48.497  1.00  0.00    -0.279 OA
ENDROOT
BRANCH   8  14
HETATM   14  C   UNL     1       4.647  27.620  50.333  1.00  0.00    -0.003 A 
HETATM   15  S   UNL     1       3.943  28.176  51.788  1.00  0.00    -0.098 SA
HETATM   16  C   UNL     1       5.062  27.313  52.751  1.00  0.00    -0.013 A 
HETATM   17  C   UNL     1       4.966  27.382  54.241  1.00  0.00     0.057 C 
HETATM   18  C   UNL     1       5.982  26.613  51.986  1.00  0.00    -0.020 A 
HETATM   19  C   UNL     1       5.724  26.793  50.587  1.00  0.00     0.026 A 
BRANCH  18  20
HETATM   20  C   UNL     1       7.100  25.762  52.525  1.00  0.00     0.215 C 
BRANCH  20  21
HETATM   21  O   UNL     1       6.825  24.381  52.284  1.00  0.00    -0.347 OA
BRANCH  21  22
HETATM   22  C   UNL     1       7.181  23.493  53.260  1.00  0.00     0.069 A 
HETATM   23  C   UNL     1       7.739  22.228  53.058  1.00  0.00     0.040 A 
HETATM   24  C   UNL     1       8.054  21.420  54.156  1.00  0.00     0.045 A 
HETATM   25  C   UNL     1       7.814  21.882  55.445  1.00  0.00     0.116 A 
HETATM   26  F   UNL     1       8.118  21.103  56.491  1.00  0.00    -0.206 F 
HETATM   27  C   UNL     1       7.265  23.138  55.661  1.00  0.00     0.045 A 
HETATM   28  C   UNL     1       6.950  23.943  54.565  1.00  0.00     0.040 A 
ENDBRANCH  21  22
ENDBRANCH  20  21
ENDBRANCH  18  20
ENDBRANCH   8  14
BRANCH  12  29
HETATM   29  N   UNL     1       0.513  27.030  47.959  1.00  0.00    -0.282 NA
HETATM   30  H   UNL     1      -0.137  27.522  47.351  1.00  0.00     0.126 HD
HETATM   31  H   UNL     1       0.056  26.574  48.746  1.00  0.00     0.126 HD
ENDBRANCH  12  29
TORSDOF 5
ENDMDL
MODEL 7
REMARK VINA RESULT:      -7.9      2.601      3.613
REMARK  5 active torsions:
REMARK  status: ('A' for Active; 'I' for Inactive)
REMARK    1  A    between atoms: C_8  and  C_9 
REMARK    2  A    between atoms: C_13  and  C_14 
REMARK    3  A    between atoms: C_14  and  O_15 
REMARK    4  A    between atoms: O_15  and  C_16 
REMARK    5  A    between atoms: C_27  and  N_28 
ROOT
HETATM    1  C   UNL     1       8.813  30.590  59.884  1.00  0.00     0.073 C 
HETATM    2  C   UNL     1       7.552  31.293  60.222  1.00  0.00     0.062 A 
HETATM    3  N   UNL     1       7.246  31.563  61.503  1.00  0.00    -0.177 NA
HETATM    4  N   UNL     1       6.049  32.183  61.437  1.00  0.00    -0.256 N 
HETATM    5  H   UNL     1       5.605  32.482  62.297  1.00  0.00     0.191 HD
HETATM    6  C   UNL     1       5.607  32.332  60.163  1.00  0.00     0.175 A 
HETATM    7  C   UNL     1       6.543  31.755  59.347  1.00  0.00     0.035 A 
HETATM    8  C   UNL     1       6.350  31.730  57.866  1.00  0.00     0.112 A 
HETATM    9  C   UNL     1       5.082  32.528  57.505  1.00  0.00     0.081 A 
HETATM   10  C   UNL     1       4.830  32.721  56.116  1.00  0.00     0.100 C 
HETATM   11  N   UNL     1       4.629  32.913  54.989  1.00  0.00    -0.191 NA
HETATM   12  C   UNL     1       4.238  33.054  58.436  1.00  0.00     0.140 A 
HETATM   13  O   UNL     1       4.478  32.933  59.815  1.00  0.00    -0.279 OA
ENDROOT
BRANCH   8  14
HETATM   14  C   UNL     1       6.321  30.303  57.351  1.00  0.00    -0.003 A 
HETATM   15  S   UNL     1       4.920  29.343  57.551  1.00  0.00    -0.098 SA
HETATM   16  C   UNL     1       5.636  27.997  56.778  1.00  0.00    -0.013 A 
HETATM   17  C   UNL     1       4.852  26.735  56.610  1.00  0.00     0.057 C 
HETATM   18  C   UNL     1       6.938  28.254  56.377  1.00  0.00    -0.020 A 
HETATM   19  C   UNL     1       7.319  29.596  56.709  1.00  0.00     0.026 A 
BRANCH  18  20
HETATM   20  C   UNL     1       7.845  27.279  55.676  1.00  0.00     0.215 C 
BRANCH  20  21
HETATM   21  O   UNL     1       7.372  27.034  54.351  1.00  0.00    -0.347 OA
BRANCH  21  22
HETATM   22  C   UNL     1       7.469  25.755  53.879  1.00  0.00     0.069 A 
HETATM   23  C   UNL     1       7.815  25.381  52.578  1.00  0.00     0.040 A 
HETATM   24  C   UNL     1       7.874  24.027  52.232  1.00  0.00     0.045 A 
HETATM   25  C   UNL     1       7.591  23.057  53.187  1.00  0.00     0.116 A 
HETATM   26  F   UNL     1       7.649  21.763  52.849  1.00  0.00    -0.206 F 
HETATM   27  C   UNL     1       7.251  23.413  54.485  1.00  0.00     0.045 A 
HETATM   28  C   UNL     1       7.192  24.764  54.828  1.00  0.00     0.040 A 
ENDBRANCH  21  22
ENDBRANCH  20  21
ENDBRANCH  18  20
ENDBRANCH   8  14
BRANCH  12  29
HETATM   29  N   UNL     1       3.090  33.763  58.162  1.00  0.00    -0.282 NA
HETATM   30  H   UNL     1       3.013  34.672  58.612  1.00  0.00     0.126 HD
HETATM   31  H   UNL     1       2.252  33.195  58.266  1.00  0.00     0.126 HD
ENDBRANCH  12  29
TORSDOF 5
ENDMDL
MODEL 8
REMARK VINA RESULT:      -7.8      4.349      8.036
REMARK  5 active torsions:
REMARK  status: ('A' for Active; 'I' for Inactive)
REMARK    1  A    between atoms: C_8  and  C_9 
REMARK    2  A    between atoms: C_13  and  C_14 
REMARK    3  A    between atoms: C_14  and  O_15 
REMARK    4  A    between atoms: O_15  and  C_16 
REMARK    5  A    between atoms: C_27  and  N_28 
ROOT
HETATM    1  C   UNL     1       5.709  28.994  51.769  1.00  0.00     0.073 C 
HETATM    2  C   UNL     1       5.530  27.568  52.137  1.00  0.00     0.062 A 
HETATM    3  N   UNL     1       4.864  26.733  51.319  1.00  0.00    -0.177 NA
HETATM    4  N   UNL     1       4.884  25.549  51.965  1.00  0.00    -0.256 N 
HETATM    5  H   UNL     1       4.430  24.751  51.537  1.00  0.00     0.191 HD
HETATM    6  C   UNL     1       5.555  25.606  53.143  1.00  0.00     0.175 A 
HETATM    7  C   UNL     1       5.976  26.899  53.300  1.00  0.00     0.035 A 
HETATM    8  C   UNL     1       6.738  27.310  54.516  1.00  0.00     0.112 A 
HETATM    9  C   UNL     1       7.028  26.067  55.379  1.00  0.00     0.081 A 
HETATM   10  C   UNL     1       7.871  26.264  56.511  1.00  0.00     0.100 C 
HETATM   11  N   UNL     1       8.582  26.404  57.417  1.00  0.00    -0.191 NA
HETATM   12  C   UNL     1       6.541  24.827  55.093  1.00  0.00     0.140 A 
HETATM   13  O   UNL     1       5.750  24.579  53.958  1.00  0.00    -0.279 OA
ENDROOT
BRANCH   8  14
HETATM   14  C   UNL     1       5.998  28.399  55.272  1.00  0.00    -0.003 A 
HETATM   15  S   UNL     1       4.296  28.344  55.415  1.00  0.00    -0.098 SA
HETATM   16  C   UNL     1       4.246  29.795  56.318  1.00  0.00    -0.013 A 
HETATM   17  C   UNL     1       2.934  30.325  56.798  1.00  0.00     0.057 C 
HETATM   18  C   UNL     1       5.507  30.339  56.506  1.00  0.00    -0.020 A 
HETATM   19  C   UNL     1       6.514  29.515  55.902  1.00  0.00     0.026 A 
BRANCH  18  20
HETATM   20  C   UNL     1       5.809  31.611  57.251  1.00  0.00     0.215 C 
BRANCH  20  21
HETATM   21  O   UNL     1       5.786  31.373  58.659  1.00  0.00    -0.347 OA
BRANCH  21  22
HETATM   22  C   UNL     1       6.972  31.484  59.331  1.00  0.00     0.069 A 
HETATM   23  C   UNL     1       8.141  30.768  59.062  1.00  0.00     0.040 A 
HETATM   24  C   UNL     1       9.286  30.984  59.836  1.00  0.00     0.045 A 
HETATM   25  C   UNL     1       9.257  31.914  60.869  1.00  0.00     0.116 A 
HETATM   26  F   UNL     1      10.356  32.115  61.606  1.00  0.00    -0.206 F 
HETATM   27  C   UNL     1       8.104  32.636  61.145  1.00  0.00     0.045 A 
HETATM   28  C   UNL     1       6.962  32.419  60.372  1.00  0.00     0.040 A 
ENDBRANCH  21  22
ENDBRANCH  20  21
ENDBRANCH  18  20
ENDBRANCH   8  14
BRANCH  12  29
HETATM   29  N   UNL     1       6.762  23.691  55.838  1.00  0.00    -0.282 NA
HETATM   30  H   UNL     1       6.733  23.810  56.848  1.00  0.00     0.126 HD
HETATM   31  H   UNL     1       7.580  23.176  55.521  1.00  0.00     0.126 HD
ENDBRANCH  12  29
TORSDOF 5
ENDMDL
MODEL 9
REMARK VINA RESULT:      -7.6      3.448      5.701
REMARK  5 active torsions:
REMARK  status: ('A' for Active; 'I' for Inactive)
REMARK    1  A    between atoms: C_8  and  C_9 
REMARK    2  A    between atoms: C_13  and  C_14 
REMARK    3  A    between atoms: C_14  and  O_15 
REMARK    4  A    between atoms: O_15  and  C_16 
REMARK    5  A    between atoms: C_27  and  N_28 
ROOT
HETATM    1  C   UNL     1       6.261  31.878  62.145  1.00  0.00     0.073 C 
HETATM    2  C   UNL     1       4.931  32.385  61.728  1.00  0.00     0.062 A 
HETATM    3  N   UNL     1       3.908  32.405  62.600  1.00  0.00    -0.177 NA
HETATM    4  N   UNL     1       2.875  32.904  61.890  1.00  0.00    -0.256 N 
HETATM    5  H   UNL     1       1.975  33.010  62.343  1.00  0.00     0.191 HD
HETATM    6  C   UNL     1       3.219  33.218  60.615  1.00  0.00     0.175 A 
HETATM    7  C   UNL     1       4.538  32.882  60.465  1.00  0.00     0.035 A 
HETATM    8  C   UNL     1       5.231  33.085  59.158  1.00  0.00     0.112 A 
HETATM    9  C   UNL     1       4.277  33.801  58.182  1.00  0.00     0.081 A 
HETATM   10  C   UNL     1       4.833  34.196  56.931  1.00  0.00     0.100 C 
HETATM   11  N   UNL     1       5.280  34.553  55.920  1.00  0.00    -0.191 NA
HETATM   12  C   UNL     1       2.976  34.077  58.474  1.00  0.00     0.140 A 
HETATM   13  O   UNL     1       2.404  33.752  59.717  1.00  0.00    -0.279 OA
ENDROOT
BRANCH   8  14
HETATM   14  C   UNL     1       5.756  31.768  58.618  1.00  0.00    -0.003 A 
HETATM   15  S   UNL     1       7.412  31.370  58.776  1.00  0.00    -0.098 SA
HETATM   16  C   UNL     1       7.208  29.869  57.983  1.00  0.00    -0.013 A 
HETATM   17  C   UNL     1       8.383  28.963  57.798  1.00  0.00     0.057 C 
HETATM   18  C   UNL     1       5.898  29.663  57.580  1.00  0.00    -0.020 A 
HETATM   19  C   UNL     1       5.066  30.767  57.962  1.00  0.00     0.026 A 
BRANCH  18  20
HETATM   20  C   UNL     1       5.389  28.448  56.853  1.00  0.00     0.215 C 
BRANCH  20  21
HETATM   21  O   UNL     1       5.908  28.418  55.523  1.00  0.00    -0.347 OA
BRANCH  21  22
HETATM   22  C   UNL     1       6.499  27.258  55.108  1.00  0.00     0.069 A 
HETATM   23  C   UNL     1       6.676  26.103  55.876  1.00  0.00     0.040 A 
HETATM   24  C   UNL     1       7.303  24.984  55.320  1.00  0.00     0.045 A 
HETATM   25  C   UNL     1       7.745  25.022  54.003  1.00  0.00     0.116 A 
HETATM   26  F   UNL     1       8.345  23.947  53.477  1.00  0.00    -0.206 F 
HETATM   27  C   UNL     1       7.572  26.160  53.227  1.00  0.00     0.045 A 
HETATM   28  C   UNL     1       6.947  27.277  53.782  1.00  0.00     0.040 A 
ENDBRANCH  21  22
ENDBRANCH  20  21
ENDBRANCH  18  20
ENDBRANCH   8  14
BRANCH  12  29
HETATM   29  N   UNL     1       2.084  34.703  57.633  1.00  0.00    -0.282 NA
HETATM   30  H   UNL     1       1.175  34.256  57.539  1.00  0.00     0.126 HD
HETATM   31  H   UNL     1       2.504  34.946  56.739  1.00  0.00     0.126 HD
ENDBRANCH  12  29
TORSDOF 5
ENDMDL
MODEL 10
REMARK VINA RESULT:      -7.6      9.630     14.038
REMARK  5 active torsions:
REMARK  status: ('A' for Active; 'I' for Inactive)
REMARK    1  A    between atoms: C_8  and  C_9 
REMARK    2  A    between atoms: C_13  and  C_14 
REMARK    3  A    between atoms: C_14  and  O_15 
REMARK    4  A    between atoms: O_15  and  C_16 
REMARK    5  A    between atoms: C_27  and  N_28 
ROOT
HETATM    1  C   UNL     1       3.564  34.905  65.680  1.00  0.00     0.073 C 
HETATM    2  C   UNL     1       4.925  34.322  65.593  1.00  0.00     0.062 A 
HETATM    3  N   UNL     1       5.687  34.207  66.694  1.00  0.00    -0.177 NA
HETATM    4  N   UNL     1       6.837  33.660  66.248  1.00  0.00    -0.256 N 
HETATM    5  H   UNL     1       7.582  33.481  66.911  1.00  0.00     0.191 HD
HETATM    6  C   UNL     1       6.813  33.407  64.915  1.00  0.00     0.175 A 
HETATM    7  C   UNL     1       5.599  33.835  64.450  1.00  0.00     0.035 A 
HETATM    8  C   UNL     1       5.254  33.718  63.002  1.00  0.00     0.112 A 
HETATM    9  C   UNL     1       6.383  32.968  62.269  1.00  0.00     0.081 A 
HETATM   10  C   UNL     1       6.146  32.648  60.901  1.00  0.00     0.100 C 
HETATM   11  N   UNL     1       5.953  32.352  59.795  1.00  0.00    -0.191 NA
HETATM   12  C   UNL     1       7.548  32.596  62.870  1.00  0.00     0.140 A 
HETATM   13  O   UNL     1       7.799  32.845  64.230  1.00  0.00    -0.279 OA
ENDROOT
BRANCH   8  14
HETATM   14  C   UNL     1       4.963  35.083  62.406  1.00  0.00    -0.003 A 
HETATM   15  S   UNL     1       3.489  35.369  61.587  1.00  0.00    -0.098 SA
HETATM   16  C   UNL     1       3.902  36.993  61.246  1.00  0.00    -0.013 A 
HETATM   17  C   UNL     1       2.942  37.860  60.498  1.00  0.00     0.057 C 
HETATM   18  C   UNL     1       5.156  37.327  61.733  1.00  0.00    -0.020 A 
HETATM   19  C   UNL     1       5.756  36.214  62.410  1.00  0.00     0.026 A 
BRANCH  18  20
HETATM   20  C   UNL     1       5.816  38.673  61.595  1.00  0.00     0.215 C 
BRANCH  20  21
HETATM   21  O   UNL     1       6.973  38.740  62.431  1.00  0.00    -0.347 OA
BRANCH  21  22
HETATM   22  C   UNL     1       7.005  39.725  63.377  1.00  0.00     0.069 A 
HETATM   23  C   UNL     1       7.657  40.956  63.263  1.00  0.00     0.040 A 
HETATM   24  C   UNL     1       7.607  41.873  64.318  1.00  0.00     0.045 A 
HETATM   25  C   UNL     1       6.904  41.558  65.475  1.00  0.00     0.116 A 
HETATM   26  F   UNL     1       6.861  42.441  66.481  1.00  0.00    -0.206 F 
HETATM   27  C   UNL     1       6.248  40.342  65.601  1.00  0.00     0.045 A 
HETATM   28  C   UNL     1       6.299  39.427  64.549  1.00  0.00     0.040 A 
ENDBRANCH  21  22
ENDBRANCH  20  21
ENDBRANCH  18  20
ENDBRANCH   8  14
BRANCH  12  29
HETATM   29  N   UNL     1       8.588  31.936  62.256  1.00  0.00    -0.282 NA
HETATM   30  H   UNL     1       8.784  32.213  61.296  1.00  0.00     0.126 HD
HETATM   31  H   UNL     1       8.528  30.928  62.375  1.00  0.00     0.126 HD
ENDBRANCH  12  29
TORSDOF 5
ENDMDL
