MODEL 1
REMARK VINA RESULT:      -9.6      0.000      0.000
REMARK  7 active torsions:
REMARK  status: ('A' for Active; 'I' for Inactive)
REMARK    1  A    between atoms: C_2  and  C_3 
REMARK    2  A    between atoms: C_4  and  N_5 
REMARK       I    between atoms: N_5  and  C_6 
REMARK    3  A    between atoms: C_6  and  C_7 
REMARK    4  A    between atoms: C_8  and  N_9 
REMARK       I    between atoms: N_9  and  C_10 
REMARK    5  A    between atoms: C_10  and  C_11 
REMARK    6  A    between atoms: C_11  and  N_12 
REMARK    7  A    between atoms: C_25  and  C_26 
ROOT
HETATM    1  C   UNL     1       4.806  26.855  52.528  1.00  0.00     0.073 A 
HETATM    2  C   UNL     1       4.385  27.855  53.383  1.00  0.00     0.093 A 
HETATM    3  S   UNL     1       3.848  29.255  52.593  1.00  0.00    -0.075 SA
HETATM    4  C   UNL     1       4.319  28.635  51.087  1.00  0.00    -0.008 A 
HETATM    5  C   UNL     1       4.793  27.338  51.160  1.00  0.00    -0.026 A 
HETATM    6  C   UNL     1       5.110  26.551  49.920  1.00  0.00     0.041 C 
HETATM    7  C   UNL     1       5.024  27.385  48.627  1.00  0.00     0.010 C 
HETATM    8  C   UNL     1       3.964  28.525  48.600  1.00  0.00    -0.002 C 
HETATM    9  C   UNL     1       4.172  29.434  49.835  1.00  0.00     0.052 C 
ENDROOT
BRANCH   1  10
HETATM   10  C   UNL     1       5.070  25.481  52.968  1.00  0.00     0.259 C 
HETATM   11  N   UNL     1       6.292  25.320  53.587  1.00  0.00    -0.322 N 
HETATM   12  H   UNL     1       6.708  26.160  53.957  1.00  0.00     0.169 HD
HETATM   13  O   UNL     1       4.222  24.606  52.818  1.00  0.00    -0.267 OA
BRANCH  11  14
HETATM   14  C   UNL     1       6.925  24.090  53.876  1.00  0.00     0.041 A 
HETATM   15  C   UNL     1       7.160  23.714  55.216  1.00  0.00    -0.032 A 
HETATM   16  C   UNL     1       7.864  22.521  55.479  1.00  0.00     0.009 A 
HETATM   17  C   UNL     1       8.337  21.721  54.441  1.00  0.00     0.001 A 
HETATM   18  C   UNL     1       8.099  22.092  53.124  1.00  0.00     0.002 A 
HETATM   19  C   UNL     1       7.395  23.265  52.844  1.00  0.00     0.030 A 
BRANCH  15  20
HETATM   20  C   UNL     1       6.592  24.462  56.401  1.00  0.00     0.036 C 
HETATM   21  C   UNL     1       7.669  25.281  57.102  1.00  0.00     0.010 C 
ENDBRANCH  15  20
ENDBRANCH  11  14
ENDBRANCH   1  10
BRANCH   2  22
HETATM   22  N   UNL     1       4.322  27.977  54.753  1.00  0.00    -0.319 N 
HETATM   23  C   UNL     1       5.483  28.101  55.486  1.00  0.00     0.248 C 
HETATM   24  O   UNL     1       6.631  28.116  55.041  1.00  0.00    -0.271 OA
HETATM   25  H   UNL     1       3.453  28.368  55.098  1.00  0.00     0.169 HD
BRANCH  23  26
HETATM   26  C   UNL     1       5.265  28.484  56.949  1.00  0.00     0.337 C 
BRANCH  26  27
HETATM   27  N   UNL     1       6.317  29.513  57.371  1.00  0.00    -0.059 N 
HETATM   28  H   UNL     1       6.688  29.882  56.478  1.00  0.00     0.280 HD
HETATM   29  C   UNL     1       5.716  30.698  58.121  1.00  0.00     0.261 C 
HETATM   30  C   UNL     1       6.823  31.690  58.494  1.00  0.00     0.195 C 
HETATM   31  O   UNL     1       7.845  31.045  59.260  1.00  0.00    -0.388 OA
HETATM   32  C   UNL     1       8.474  29.992  58.522  1.00  0.00     0.195 C 
HETATM   33  C   UNL     1       7.462  28.901  58.152  1.00  0.00     0.261 C 
ENDBRANCH  26  27
ENDBRANCH  23  26
ENDBRANCH   2  22
BRANCH   8  34
HETATM   34  C   UNL     1       2.475  28.095  48.302  1.00  0.00    -0.047 C 
HETATM   35  C   UNL     1       2.273  26.589  48.071  1.00  0.00     0.015 C 
HETATM   36  C   UNL     1       1.546  28.513  49.467  1.00  0.00     0.015 C 
HETATM   37  C   UNL     1       1.972  28.836  47.040  1.00  0.00     0.015 C 
ENDBRANCH   8  34
TORSDOF 7
ENDMDL
MODEL 2
REMARK VINA RESULT:      -9.2      2.674      7.274
REMARK  7 active torsions:
REMARK  status: ('A' for Active; 'I' for Inactive)
REMARK    1  A    between atoms: C_2  and  C_3 
REMARK    2  A    between atoms: C_4  and  N_5 
REMARK       I    between atoms: N_5  and  C_6 
REMARK    3  A    between atoms: C_6  and  C_7 
REMARK    4  A    between atoms: C_8  and  N_9 
REMARK       I    between atoms: N_9  and  C_10 
REMARK    5  A    between atoms: C_10  and  C_11 
REMARK    6  A    between atoms: C_11  and  N_12 
REMARK    7  A    between atoms: C_25  and  C_26 
ROOT
HETATM    1  C   UNL     1       6.101  26.122  53.079  1.00  0.00     0.073 A 
HETATM    2  C   UNL     1       5.690  27.034  52.127  1.00  0.00     0.093 A 
HETATM    3  S   UNL     1       4.998  28.440  52.773  1.00  0.00    -0.075 SA
HETATM    4  C   UNL     1       5.070  27.802  54.343  1.00  0.00    -0.008 A 
HETATM    5  C   UNL     1       5.700  26.572  54.398  1.00  0.00    -0.026 A 
HETATM    6  C   UNL     1       6.010  25.912  55.712  1.00  0.00     0.041 C 
HETATM    7  C   UNL     1       5.404  26.647  56.924  1.00  0.00     0.010 C 
HETATM    8  C   UNL     1       5.289  28.196  56.817  1.00  0.00    -0.002 C 
HETATM    9  C   UNL     1       4.533  28.554  55.514  1.00  0.00     0.052 C 
ENDROOT
BRANCH   1  10
HETATM   10  C   UNL     1       6.946  24.964  52.770  1.00  0.00     0.259 C 
HETATM   11  N   UNL     1       6.713  23.873  53.581  1.00  0.00    -0.322 N 
HETATM   12  H   UNL     1       5.819  23.857  54.047  1.00  0.00     0.169 HD
HETATM   13  O   UNL     1       7.735  25.002  51.830  1.00  0.00    -0.267 OA
BRANCH  11  14
HETATM   14  C   UNL     1       7.532  22.727  53.695  1.00  0.00     0.041 A 
HETATM   15  C   UNL     1       8.582  22.699  54.638  1.00  0.00    -0.032 A 
HETATM   16  C   UNL     1       9.436  21.578  54.680  1.00  0.00     0.009 A 
HETATM   17  C   UNL     1       9.265  20.510  53.801  1.00  0.00     0.001 A 
HETATM   18  C   UNL     1       8.227  20.539  52.878  1.00  0.00     0.002 A 
HETATM   19  C   UNL     1       7.365  21.636  52.829  1.00  0.00     0.030 A 
BRANCH  15  20
HETATM   20  C   UNL     1       8.775  23.761  55.698  1.00  0.00     0.036 C 
HETATM   21  C   UNL     1       8.361  23.248  57.072  1.00  0.00     0.010 C 
ENDBRANCH  15  20
ENDBRANCH  11  14
ENDBRANCH   1  10
BRANCH   2  22
HETATM   22  N   UNL     1       5.700  27.048  50.750  1.00  0.00    -0.319 N 
HETATM   23  C   UNL     1       4.924  26.151  50.048  1.00  0.00     0.248 C 
HETATM   24  O   UNL     1       4.183  25.292  50.528  1.00  0.00    -0.271 OA
HETATM   25  H   UNL     1       5.944  27.944  50.343  1.00  0.00     0.169 HD
BRANCH  23  26
HETATM   26  C   UNL     1       4.828  26.439  48.550  1.00  0.00     0.337 C 
BRANCH  26  27
HETATM   27  N   UNL     1       3.514  27.164  48.251  1.00  0.00    -0.059 N 
HETATM   28  H   UNL     1       3.143  27.420  49.183  1.00  0.00     0.280 HD
HETATM   29  C   UNL     1       3.719  28.467  47.485  1.00  0.00     0.261 C 
HETATM   30  C   UNL     1       2.365  29.141  47.238  1.00  0.00     0.195 C 
HETATM   31  O   UNL     1       1.477  28.258  46.546  1.00  0.00    -0.388 OA
HETATM   32  C   UNL     1       1.210  27.075  47.306  1.00  0.00     0.195 C 
HETATM   33  C   UNL     1       2.497  26.281  47.555  1.00  0.00     0.261 C 
ENDBRANCH  26  27
ENDBRANCH  23  26
ENDBRANCH   2  22
BRANCH   8  34
HETATM   34  C   UNL     1       6.604  29.021  57.101  1.00  0.00    -0.047 C 
HETATM   35  C   UNL     1       7.406  29.407  55.848  1.00  0.00     0.015 C 
HETATM   36  C   UNL     1       6.272  30.328  57.859  1.00  0.00     0.015 C 
HETATM   37  C   UNL     1       7.536  28.195  58.020  1.00  0.00     0.015 C 
ENDBRANCH   8  34
TORSDOF 7
ENDMDL
MODEL 3
REMARK VINA RESULT:      -8.8      2.184      8.183
REMARK  7 active torsions:
REMARK  status: ('A' for Active; 'I' for Inactive)
REMARK    1  A    between atoms: C_2  and  C_3 
REMARK    2  A    between atoms: C_4  and  N_5 
REMARK       I    between atoms: N_5  and  C_6 
REMARK    3  A    between atoms: C_6  and  C_7 
REMARK    4  A    between atoms: C_8  and  N_9 
REMARK       I    between atoms: N_9  and  C_10 
REMARK    5  A    between atoms: C_10  and  C_11 
REMARK    6  A    between atoms: C_11  and  N_12 
REMARK    7  A    between atoms: C_25  and  C_26 
ROOT
HETATM    1  C   UNL     1       6.162  25.917  54.495  1.00  0.00     0.073 A 
HETATM    2  C   UNL     1       5.629  25.777  53.229  1.00  0.00     0.093 A 
HETATM    3  S   UNL     1       6.347  24.545  52.312  1.00  0.00    -0.075 SA
HETATM    4  C   UNL     1       7.509  24.272  53.517  1.00  0.00    -0.008 A 
HETATM    5  C   UNL     1       7.304  25.037  54.650  1.00  0.00    -0.026 A 
HETATM    6  C   UNL     1       8.125  24.830  55.892  1.00  0.00     0.041 C 
HETATM    7  C   UNL     1       9.288  23.837  55.698  1.00  0.00     0.010 C 
HETATM    8  C   UNL     1       9.053  22.672  54.692  1.00  0.00    -0.002 C 
HETATM    9  C   UNL     1       8.594  23.263  53.337  1.00  0.00     0.052 C 
ENDROOT
BRANCH   1  10
HETATM   10  C   UNL     1       5.539  26.734  55.542  1.00  0.00     0.259 C 
HETATM   11  N   UNL     1       5.571  28.089  55.283  1.00  0.00    -0.322 N 
HETATM   12  H   UNL     1       5.701  28.346  54.318  1.00  0.00     0.169 HD
HETATM   13  O   UNL     1       5.009  26.203  56.513  1.00  0.00    -0.267 OA
BRANCH  11  14
HETATM   14  C   UNL     1       5.292  29.122  56.207  1.00  0.00     0.041 A 
HETATM   15  C   UNL     1       6.341  29.720  56.938  1.00  0.00    -0.032 A 
HETATM   16  C   UNL     1       6.031  30.692  57.910  1.00  0.00     0.009 A 
HETATM   17  C   UNL     1       4.711  31.061  58.164  1.00  0.00     0.001 A 
HETATM   18  C   UNL     1       3.682  30.474  57.438  1.00  0.00     0.002 A 
HETATM   19  C   UNL     1       3.971  29.516  56.465  1.00  0.00     0.030 A 
BRANCH  15  20
HETATM   20  C   UNL     1       7.804  29.460  56.655  1.00  0.00     0.036 C 
HETATM   21  C   UNL     1       8.323  28.286  57.475  1.00  0.00     0.010 C 
ENDBRANCH  15  20
ENDBRANCH  11  14
ENDBRANCH   1  10
BRANCH   2  22
HETATM   22  N   UNL     1       4.643  26.436  52.529  1.00  0.00    -0.319 N 
HETATM   23  C   UNL     1       4.876  27.704  52.043  1.00  0.00     0.248 C 
HETATM   24  O   UNL     1       5.914  28.356  52.167  1.00  0.00    -0.271 OA
HETATM   25  H   UNL     1       3.978  25.825  52.069  1.00  0.00     0.169 HD
BRANCH  23  26
HETATM   26  C   UNL     1       3.809  28.214  51.075  1.00  0.00     0.337 C 
BRANCH  26  27
HETATM   27  N   UNL     1       3.759  27.305  49.844  1.00  0.00    -0.059 N 
HETATM   28  H   UNL     1       3.719  26.346  50.234  1.00  0.00     0.280 HD
HETATM   29  C   UNL     1       2.490  27.498  49.019  1.00  0.00     0.261 C 
HETATM   30  C   UNL     1       2.504  26.546  47.818  1.00  0.00     0.195 C 
HETATM   31  O   UNL     1       3.680  26.743  47.028  1.00  0.00    -0.388 OA
HETATM   32  C   UNL     1       4.871  26.471  47.776  1.00  0.00     0.195 C 
HETATM   33  C   UNL     1       4.994  27.420  48.974  1.00  0.00     0.261 C 
ENDBRANCH  26  27
ENDBRANCH  23  26
ENDBRANCH   2  22
BRANCH   8  34
HETATM   34  C   UNL     1       8.222  21.440  55.225  1.00  0.00    -0.047 C 
HETATM   35  C   UNL     1       7.083  21.799  56.191  1.00  0.00     0.015 C 
HETATM   36  C   UNL     1       7.599  20.655  54.045  1.00  0.00     0.015 C 
HETATM   37  C   UNL     1       9.172  20.463  55.959  1.00  0.00     0.015 C 
ENDBRANCH   8  34
TORSDOF 7
ENDMDL
MODEL 4
REMARK VINA RESULT:      -8.7      2.154      7.060
REMARK  7 active torsions:
REMARK  status: ('A' for Active; 'I' for Inactive)
REMARK    1  A    between atoms: C_2  and  C_3 
REMARK    2  A    between atoms: C_4  and  N_5 
REMARK       I    between atoms: N_5  and  C_6 
REMARK    3  A    between atoms: C_6  and  C_7 
REMARK    4  A    between atoms: C_8  and  N_9 
REMARK       I    between atoms: N_9  and  C_10 
REMARK    5  A    between atoms: C_10  and  C_11 
REMARK    6  A    between atoms: C_11  and  N_12 
REMARK    7  A    between atoms: C_25  and  C_26 
ROOT
HETATM    1  C   UNL     1       5.254  27.626  53.781  1.00  0.00     0.073 A 
HETATM    2  C   UNL     1       4.588  28.268  52.756  1.00  0.00     0.093 A 
HETATM    3  S   UNL     1       3.662  29.595  53.260  1.00  0.00    -0.075 SA
HETATM    4  C   UNL     1       3.985  29.253  54.889  1.00  0.00    -0.008 A 
HETATM    5  C   UNL     1       4.865  28.199  55.056  1.00  0.00    -0.026 A 
HETATM    6  C   UNL     1       5.407  27.841  56.411  1.00  0.00     0.041 C 
HETATM    7  C   UNL     1       4.750  28.631  57.561  1.00  0.00     0.010 C 
HETATM    8  C   UNL     1       4.299  30.086  57.241  1.00  0.00    -0.002 C 
HETATM    9  C   UNL     1       3.389  30.067  55.988  1.00  0.00     0.052 C 
ENDROOT
BRANCH   1  10
HETATM   10  C   UNL     1       6.301  26.624  53.555  1.00  0.00     0.259 C 
HETATM   11  N   UNL     1       5.954  25.355  53.970  1.00  0.00    -0.322 N 
HETATM   12  H   UNL     1       4.966  25.181  54.065  1.00  0.00     0.169 HD
HETATM   13  O   UNL     1       7.349  26.935  52.998  1.00  0.00    -0.267 OA
BRANCH  11  14
HETATM   14  C   UNL     1       6.832  24.258  54.122  1.00  0.00     0.041 A 
HETATM   15  C   UNL     1       7.402  23.977  55.382  1.00  0.00    -0.032 A 
HETATM   16  C   UNL     1       8.336  22.927  55.493  1.00  0.00     0.009 A 
HETATM   17  C   UNL     1       8.709  22.175  54.381  1.00  0.00     0.001 A 
HETATM   18  C   UNL     1       8.142  22.451  53.143  1.00  0.00     0.002 A 
HETATM   19  C   UNL     1       7.208  23.481  53.016  1.00  0.00     0.030 A 
BRANCH  15  20
HETATM   20  C   UNL     1       6.977  24.667  56.659  1.00  0.00     0.036 C 
HETATM   21  C   UNL     1       8.128  25.461  57.264  1.00  0.00     0.010 C 
ENDBRANCH  15  20
ENDBRANCH  11  14
ENDBRANCH   1  10
BRANCH   2  22
HETATM   22  N   UNL     1       4.491  28.055  51.399  1.00  0.00    -0.319 N 
HETATM   23  C   UNL     1       5.247  28.812  50.529  1.00  0.00     0.248 C 
HETATM   24  O   UNL     1       6.040  29.704  50.834  1.00  0.00    -0.271 OA
HETATM   25  H   UNL     1       4.197  27.120  51.142  1.00  0.00     0.169 HD
BRANCH  23  26
HETATM   26  C   UNL     1       5.241  28.308  49.087  1.00  0.00     0.337 C 
BRANCH  26  27
HETATM   27  N   UNL     1       3.985  27.466  48.844  1.00  0.00    -0.059 N 
HETATM   28  H   UNL     1       3.716  27.128  49.785  1.00  0.00     0.280 HD
HETATM   29  C   UNL     1       2.813  28.291  48.322  1.00  0.00     0.261 C 
HETATM   30  C   UNL     1       1.592  27.387  48.120  1.00  0.00     0.195 C 
HETATM   31  O   UNL     1       1.905  26.301  47.242  1.00  0.00    -0.388 OA
HETATM   32  C   UNL     1       2.942  25.471  47.776  1.00  0.00     0.195 C 
HETATM   33  C   UNL     1       4.241  26.266  47.956  1.00  0.00     0.261 C 
ENDBRANCH  26  27
ENDBRANCH  23  26
ENDBRANCH   2  22
BRANCH   8  34
HETATM   34  C   UNL     1       5.426  31.192  57.258  1.00  0.00    -0.047 C 
HETATM   35  C   UNL     1       5.353  32.205  56.104  1.00  0.00     0.015 C 
HETATM   36  C   UNL     1       5.379  31.993  58.581  1.00  0.00     0.015 C 
HETATM   37  C   UNL     1       6.813  30.508  57.197  1.00  0.00     0.015 C 
ENDBRANCH   8  34
TORSDOF 7
ENDMDL
MODEL 5
REMARK VINA RESULT:      -8.6      5.004      9.042
REMARK  7 active torsions:
REMARK  status: ('A' for Active; 'I' for Inactive)
REMARK    1  A    between atoms: C_2  and  C_3 
REMARK    2  A    between atoms: C_4  and  N_5 
REMARK       I    between atoms: N_5  and  C_6 
REMARK    3  A    between atoms: C_6  and  C_7 
REMARK    4  A    between atoms: C_8  and  N_9 
REMARK       I    between atoms: N_9  and  C_10 
REMARK    5  A    between atoms: C_10  and  C_11 
REMARK    6  A    between atoms: C_11  and  N_12 
REMARK    7  A    between atoms: C_25  and  C_26 
ROOT
HETATM    1  C   UNL     1       6.412  31.149  58.038  1.00  0.00     0.073 A 
HETATM    2  C   UNL     1       5.074  31.398  57.809  1.00  0.00     0.093 A 
HETATM    3  S   UNL     1       4.374  30.384  56.645  1.00  0.00    -0.075 SA
HETATM    4  C   UNL     1       5.879  29.691  56.286  1.00  0.00    -0.008 A 
HETATM    5  C   UNL     1       6.895  30.151  57.104  1.00  0.00    -0.026 A 
HETATM    6  C   UNL     1       8.270  29.545  57.057  1.00  0.00     0.041 C 
HETATM    7  C   UNL     1       8.452  28.527  55.914  1.00  0.00     0.010 C 
HETATM    8  C   UNL     1       7.199  27.694  55.513  1.00  0.00    -0.002 C 
HETATM    9  C   UNL     1       6.027  28.661  55.216  1.00  0.00     0.052 C 
ENDROOT
BRANCH   1  10
HETATM   10  C   UNL     1       7.154  31.722  59.167  1.00  0.00     0.259 C 
HETATM   11  N   UNL     1       6.504  31.600  60.377  1.00  0.00    -0.322 N 
HETATM   12  H   UNL     1       5.798  30.883  60.424  1.00  0.00     0.169 HD
HETATM   13  O   UNL     1       8.268  32.207  58.997  1.00  0.00    -0.267 OA
BRANCH  11  14
HETATM   14  C   UNL     1       6.838  32.272  61.575  1.00  0.00     0.041 A 
HETATM   15  C   UNL     1       7.720  31.673  62.500  1.00  0.00    -0.032 A 
HETATM   16  C   UNL     1       7.977  32.325  63.723  1.00  0.00     0.009 A 
HETATM   17  C   UNL     1       7.367  33.539  64.033  1.00  0.00     0.001 A 
HETATM   18  C   UNL     1       6.504  34.128  63.118  1.00  0.00     0.002 A 
HETATM   19  C   UNL     1       6.246  33.502  61.897  1.00  0.00     0.030 A 
BRANCH  15  20
HETATM   20  C   UNL     1       8.507  30.415  62.204  1.00  0.00     0.036 C 
HETATM   21  C   UNL     1       9.874  30.747  61.618  1.00  0.00     0.010 C 
ENDBRANCH  15  20
ENDBRANCH  11  14
ENDBRANCH   1  10
BRANCH   2  22
HETATM   22  N   UNL     1       4.173  32.312  58.308  1.00  0.00    -0.319 N 
HETATM   23  C   UNL     1       4.275  33.641  57.956  1.00  0.00     0.248 C 
HETATM   24  O   UNL     1       5.121  34.138  57.211  1.00  0.00    -0.271 OA
HETATM   25  H   UNL     1       3.275  31.917  58.563  1.00  0.00     0.169 HD
BRANCH  23  26
HETATM   26  C   UNL     1       3.076  34.495  58.366  1.00  0.00     0.337 C 
BRANCH  26  27
HETATM   27  N   UNL     1       3.129  34.764  59.872  1.00  0.00    -0.059 N 
HETATM   28  H   UNL     1       3.778  34.045  60.239  1.00  0.00     0.280 HD
HETATM   29  C   UNL     1       3.741  36.120  60.209  1.00  0.00     0.261 C 
HETATM   30  C   UNL     1       3.776  36.310  61.729  1.00  0.00     0.195 C 
HETATM   31  O   UNL     1       2.466  36.169  62.288  1.00  0.00    -0.388 OA
HETATM   32  C   UNL     1       1.929  34.863  62.053  1.00  0.00     0.195 C 
HETATM   33  C   UNL     1       1.786  34.591  60.551  1.00  0.00     0.261 C 
ENDBRANCH  26  27
ENDBRANCH  23  26
ENDBRANCH   2  22
BRANCH   8  34
HETATM   34  C   UNL     1       6.855  26.455  56.428  1.00  0.00    -0.047 C 
HETATM   35  C   UNL     1       7.648  26.384  57.742  1.00  0.00     0.015 C 
HETATM   36  C   UNL     1       5.351  26.451  56.794  1.00  0.00     0.015 C 
HETATM   37  C   UNL     1       7.128  25.150  55.642  1.00  0.00     0.015 C 
ENDBRANCH   8  34
TORSDOF 7
ENDMDL
MODEL 6
REMARK VINA RESULT:      -8.3      2.389      7.151
REMARK  7 active torsions:
REMARK  status: ('A' for Active; 'I' for Inactive)
REMARK    1  A    between atoms: C_2  and  C_3 
REMARK    2  A    between atoms: C_4  and  N_5 
REMARK       I    between atoms: N_5  and  C_6 
REMARK    3  A    between atoms: C_6  and  C_7 
REMARK    4  A    between atoms: C_8  and  N_9 
REMARK       I    between atoms: N_9  and  C_10 
REMARK    5  A    between atoms: C_10  and  C_11 
REMARK    6  A    between atoms: C_11  and  N_12 
REMARK    7  A    between atoms: C_25  and  C_26 
ROOT
HETATM    1  C   UNL     1       6.635  28.196  55.547  1.00  0.00     0.073 A 
HETATM    2  C   UNL     1       6.933  26.894  55.196  1.00  0.00     0.093 A 
HETATM    3  S   UNL     1       5.914  26.252  54.003  1.00  0.00    -0.075 SA
HETATM    4  C   UNL     1       4.935  27.636  54.039  1.00  0.00    -0.008 A 
HETATM    5  C   UNL     1       5.422  28.623  54.876  1.00  0.00    -0.026 A 
HETATM    6  C   UNL     1       4.792  29.986  54.927  1.00  0.00     0.041 C 
HETATM    7  C   UNL     1       3.487  30.087  54.112  1.00  0.00     0.010 C 
HETATM    8  C   UNL     1       3.395  29.213  52.828  1.00  0.00    -0.002 C 
HETATM    9  C   UNL     1       3.707  27.743  53.197  1.00  0.00     0.052 C 
ENDROOT
BRANCH   1  10
HETATM   10  C   UNL     1       7.525  29.032  56.361  1.00  0.00     0.259 C 
HETATM   11  N   UNL     1       7.058  29.260  57.639  1.00  0.00    -0.322 N 
HETATM   12  H   UNL     1       6.374  28.602  57.978  1.00  0.00     0.169 HD
HETATM   13  O   UNL     1       8.597  29.422  55.910  1.00  0.00    -0.267 OA
BRANCH  11  14
HETATM   14  C   UNL     1       7.553  30.221  58.549  1.00  0.00     0.041 A 
HETATM   15  C   UNL     1       6.811  31.391  58.816  1.00  0.00    -0.032 A 
HETATM   16  C   UNL     1       7.361  32.372  59.666  1.00  0.00     0.009 A 
HETATM   17  C   UNL     1       8.623  32.207  60.234  1.00  0.00     0.001 A 
HETATM   18  C   UNL     1       9.348  31.051  59.973  1.00  0.00     0.002 A 
HETATM   19  C   UNL     1       8.816  30.064  59.141  1.00  0.00     0.030 A 
BRANCH  15  20
HETATM   20  C   UNL     1       5.394  31.604  58.332  1.00  0.00     0.036 C 
HETATM   21  C   UNL     1       4.969  33.058  58.501  1.00  0.00     0.010 C 
ENDBRANCH  15  20
ENDBRANCH  11  14
ENDBRANCH   1  10
BRANCH   2  22
HETATM   22  N   UNL     1       7.874  25.982  55.618  1.00  0.00    -0.319 N 
HETATM   23  C   UNL     1       7.602  25.160  56.690  1.00  0.00     0.248 C 
HETATM   24  O   UNL     1       6.564  25.141  57.353  1.00  0.00    -0.271 OA
HETATM   25  H   UNL     1       8.523  25.687  54.897  1.00  0.00     0.169 HD
BRANCH  23  26
HETATM   26  C   UNL     1       8.613  24.032  56.891  1.00  0.00     0.337 C 
BRANCH  26  27
HETATM   27  N   UNL     1       8.190  22.813  56.067  1.00  0.00    -0.059 N 
HETATM   28  H   UNL     1       7.204  23.003  55.814  1.00  0.00     0.280 HD
HETATM   29  C   UNL     1       8.964  22.688  54.758  1.00  0.00     0.261 C 
HETATM   30  C   UNL     1       8.475  21.459  53.983  1.00  0.00     0.195 C 
HETATM   31  O   UNL     1       8.594  20.277  54.780  1.00  0.00    -0.388 OA
HETATM   32  C   UNL     1       7.795  20.355  55.965  1.00  0.00     0.195 C 
HETATM   33  C   UNL     1       8.245  21.520  56.854  1.00  0.00     0.261 C 
ENDBRANCH  26  27
ENDBRANCH  23  26
ENDBRANCH   2  22
BRANCH   8  34
HETATM   34  C   UNL     1       4.123  29.771  51.543  1.00  0.00    -0.047 C 
HETATM   35  C   UNL     1       5.552  29.247  51.332  1.00  0.00     0.015 C 
HETATM   36  C   UNL     1       3.312  29.430  50.269  1.00  0.00     0.015 C 
HETATM   37  C   UNL     1       4.194  31.315  51.627  1.00  0.00     0.015 C 
ENDBRANCH   8  34
TORSDOF 7
ENDMDL
MODEL 7
REMARK VINA RESULT:      -8.3      2.728      6.819
REMARK  7 active torsions:
REMARK  status: ('A' for Active; 'I' for Inactive)
REMARK    1  A    between atoms: C_2  and  C_3 
REMARK    2  A    between atoms: C_4  and  N_5 
REMARK       I    between atoms: N_5  and  C_6 
REMARK    3  A    between atoms: C_6  and  C_7 
REMARK    4  A    between atoms: C_8  and  N_9 
REMARK       I    between atoms: N_9  and  C_10 
REMARK    5  A    between atoms: C_10  and  C_11 
REMARK    6  A    between atoms: C_11  and  N_12 
REMARK    7  A    between atoms: C_25  and  C_26 
ROOT
HETATM    1  C   UNL     1       5.074  28.528  52.503  1.00  0.00     0.073 A 
HETATM    2  C   UNL     1       5.161  29.119  53.748  1.00  0.00     0.093 A 
HETATM    3  S   UNL     1       5.410  28.022  55.016  1.00  0.00    -0.075 SA
HETATM    4  C   UNL     1       5.240  26.705  53.962  1.00  0.00    -0.008 A 
HETATM    5  C   UNL     1       5.091  27.085  52.641  1.00  0.00    -0.026 A 
HETATM    6  C   UNL     1       5.087  26.070  51.532  1.00  0.00     0.041 C 
HETATM    7  C   UNL     1       5.082  24.613  52.035  1.00  0.00     0.010 C 
HETATM    8  C   UNL     1       5.831  24.333  53.371  1.00  0.00    -0.002 C 
HETATM    9  C   UNL     1       5.300  25.298  54.458  1.00  0.00     0.052 C 
ENDROOT
BRANCH   1  10
HETATM   10  C   UNL     1       5.114  29.288  51.249  1.00  0.00     0.259 C 
HETATM   11  N   UNL     1       3.872  29.499  50.687  1.00  0.00    -0.322 N 
HETATM   12  H   UNL     1       3.088  29.417  51.316  1.00  0.00     0.169 HD
HETATM   13  O   UNL     1       6.179  29.715  50.814  1.00  0.00    -0.267 OA
BRANCH  11  14
HETATM   14  C   UNL     1       3.617  29.960  49.376  1.00  0.00     0.041 A 
HETATM   15  C   UNL     1       3.514  29.039  48.310  1.00  0.00    -0.032 A 
HETATM   16  C   UNL     1       3.339  29.526  46.999  1.00  0.00     0.009 A 
HETATM   17  C   UNL     1       3.276  30.894  46.742  1.00  0.00     0.001 A 
HETATM   18  C   UNL     1       3.371  31.797  47.794  1.00  0.00     0.002 A 
HETATM   19  C   UNL     1       3.535  31.333  49.100  1.00  0.00     0.030 A 
BRANCH  15  20
HETATM   20  C   UNL     1       3.464  27.541  48.509  1.00  0.00     0.036 C 
HETATM   21  C   UNL     1       4.720  26.871  47.965  1.00  0.00     0.010 C 
ENDBRANCH  15  20
ENDBRANCH  11  14
ENDBRANCH   1  10
BRANCH   2  22
HETATM   22  N   UNL     1       5.069  30.417  54.198  1.00  0.00    -0.319 N 
HETATM   23  C   UNL     1       3.909  31.134  53.999  1.00  0.00     0.248 C 
HETATM   24  O   UNL     1       2.889  30.734  53.437  1.00  0.00    -0.271 OA
HETATM   25  H   UNL     1       5.677  30.632  54.981  1.00  0.00     0.169 HD
BRANCH  23  26
HETATM   26  C   UNL     1       3.846  32.455  54.764  1.00  0.00     0.337 C 
BRANCH  26  27
HETATM   27  N   UNL     1       4.075  32.195  56.255  1.00  0.00    -0.059 N 
HETATM   28  H   UNL     1       5.070  31.916  56.318  1.00  0.00     0.280 HD
HETATM   29  C   UNL     1       3.916  33.452  57.105  1.00  0.00     0.261 C 
HETATM   30  C   UNL     1       4.176  33.118  58.578  1.00  0.00     0.195 C 
HETATM   31  O   UNL     1       3.308  32.070  59.021  1.00  0.00    -0.388 OA
HETATM   32  C   UNL     1       3.522  30.860  58.285  1.00  0.00     0.195 C 
HETATM   33  C   UNL     1       3.223  31.065  56.796  1.00  0.00     0.261 C 
ENDBRANCH  26  27
ENDBRANCH  23  26
ENDBRANCH   2  22
BRANCH   8  34
HETATM   34  C   UNL     1       7.401  24.192  53.281  1.00  0.00    -0.047 C 
HETATM   35  C   UNL     1       8.073  25.107  52.245  1.00  0.00     0.015 C 
HETATM   36  C   UNL     1       8.052  24.491  54.653  1.00  0.00     0.015 C 
HETATM   37  C   UNL     1       7.762  22.730  52.924  1.00  0.00     0.015 C 
ENDBRANCH   8  34
TORSDOF 7
ENDMDL
MODEL 8
REMARK VINA RESULT:      -8.1      2.381      7.795
REMARK  7 active torsions:
REMARK  status: ('A' for Active; 'I' for Inactive)
REMARK    1  A    between atoms: C_2  and  C_3 
REMARK    2  A    between atoms: C_4  and  N_5 
REMARK       I    between atoms: N_5  and  C_6 
REMARK    3  A    between atoms: C_6  and  C_7 
REMARK    4  A    between atoms: C_8  and  N_9 
REMARK       I    between atoms: N_9  and  C_10 
REMARK    5  A    between atoms: C_10  and  C_11 
REMARK    6  A    between atoms: C_11  and  N_12 
REMARK    7  A    between atoms: C_25  and  C_26 
ROOT
HETATM    1  C   UNL     1       6.690  25.932  55.284  1.00  0.00     0.073 A 
HETATM    2  C   UNL     1       5.800  25.745  54.246  1.00  0.00     0.093 A 
HETATM    3  S   UNL     1       6.099  24.356  53.323  1.00  0.00    -0.075 SA
HETATM    4  C   UNL     1       7.532  24.049  54.178  1.00  0.00    -0.008 A 
HETATM    5  C   UNL     1       7.740  24.934  55.219  1.00  0.00    -0.026 A 
HETATM    6  C   UNL     1       8.864  24.738  56.198  1.00  0.00     0.041 C 
HETATM    7  C   UNL     1       9.821  23.594  55.809  1.00  0.00     0.010 C 
HETATM    8  C   UNL     1       9.194  22.381  55.061  1.00  0.00    -0.002 C 
HETATM    9  C   UNL     1       8.416  22.899  53.827  1.00  0.00     0.052 C 
ENDROOT
BRANCH   1  10
HETATM   10  C   UNL     1       6.480  26.913  56.355  1.00  0.00     0.259 C 
HETATM   11  N   UNL     1       6.885  28.190  56.027  1.00  0.00    -0.322 N 
HETATM   12  H   UNL     1       6.963  28.384  55.041  1.00  0.00     0.169 HD
HETATM   13  O   UNL     1       5.943  26.580  57.407  1.00  0.00    -0.267 OA
BRANCH  11  14
HETATM   14  C   UNL     1       7.050  29.270  56.924  1.00  0.00     0.041 A 
HETATM   15  C   UNL     1       8.313  29.524  57.501  1.00  0.00    -0.032 A 
HETATM   16  C   UNL     1       8.435  30.556  58.453  1.00  0.00     0.009 A 
HETATM   17  C   UNL     1       7.332  31.317  58.836  1.00  0.00     0.001 A 
HETATM   18  C   UNL     1       6.092  31.067  58.262  1.00  0.00     0.002 A 
HETATM   19  C   UNL     1       5.953  30.055  57.310  1.00  0.00     0.030 A 
BRANCH  15  20
HETATM   20  C   UNL     1       9.580  28.823  57.067  1.00  0.00     0.036 C 
HETATM   21  C   UNL     1      10.748  29.799  56.986  1.00  0.00     0.010 C 
ENDBRANCH  15  20
ENDBRANCH  11  14
ENDBRANCH   1  10
BRANCH   2  22
HETATM   22  N   UNL     1       4.719  26.456  53.774  1.00  0.00    -0.319 N 
HETATM   23  C   UNL     1       4.912  27.679  53.168  1.00  0.00     0.248 C 
HETATM   24  O   UNL     1       5.992  28.245  52.989  1.00  0.00    -0.271 OA
HETATM   25  H   UNL     1       3.917  25.886  53.533  1.00  0.00     0.169 HD
BRANCH  23  26
HETATM   26  C   UNL     1       3.674  28.238  52.468  1.00  0.00     0.337 C 
BRANCH  26  27
HETATM   27  N   UNL     1       4.020  29.573  51.804  1.00  0.00    -0.059 N 
HETATM   28  H   UNL     1       5.055  29.586  51.775  1.00  0.00     0.280 HD
HETATM   29  C   UNL     1       3.538  29.658  50.359  1.00  0.00     0.261 C 
HETATM   30  C   UNL     1       3.934  31.011  49.759  1.00  0.00     0.195 C 
HETATM   31  O   UNL     1       3.419  32.087  50.550  1.00  0.00    -0.388 OA
HETATM   32  C   UNL     1       3.944  32.063  51.882  1.00  0.00     0.195 C 
HETATM   33  C   UNL     1       3.547  30.770  52.604  1.00  0.00     0.261 C 
ENDBRANCH  26  27
ENDBRANCH  23  26
ENDBRANCH   2  22
BRANCH   8  34
HETATM   34  C   UNL     1       8.443  21.316  55.953  1.00  0.00    -0.047 C 
HETATM   35  C   UNL     1       7.125  20.793  55.360  1.00  0.00     0.015 C 
HETATM   36  C   UNL     1       9.352  20.091  56.214  1.00  0.00     0.015 C 
HETATM   37  C   UNL     1       8.126  21.939  57.333  1.00  0.00     0.015 C 
ENDBRANCH   8  34
TORSDOF 7
ENDMDL
MODEL 9
REMARK VINA RESULT:      -8.0      3.665      7.375
REMARK  7 active torsions:
REMARK  status: ('A' for Active; 'I' for Inactive)
REMARK    1  A    between atoms: C_2  and  C_3 
REMARK    2  A    between atoms: C_4  and  N_5 
REMARK       I    between atoms: N_5  and  C_6 
REMARK    3  A    between atoms: C_6  and  C_7 
REMARK    4  A    between atoms: C_8  and  N_9 
REMARK       I    between atoms: N_9  and  C_10 
REMARK    5  A    between atoms: C_10  and  C_11 
REMARK    6  A    between atoms: C_11  and  N_12 
REMARK    7  A    between atoms: C_25  and  C_26 
ROOT
HETATM    1  C   UNL     1       7.407  25.999  55.995  1.00  0.00     0.073 A 
HETATM    2  C   UNL     1       6.119  26.043  55.498  1.00  0.00     0.093 A 
HETATM    3  S   UNL     1       5.665  24.654  54.638  1.00  0.00    -0.075 SA
HETATM    4  C   UNL     1       7.233  24.020  54.757  1.00  0.00    -0.008 A 
HETATM    5  C   UNL     1       8.077  24.803  55.523  1.00  0.00    -0.026 A 
HETATM    6  C   UNL     1       9.460  24.338  55.885  1.00  0.00     0.041 C 
HETATM    7  C   UNL     1       9.871  23.031  55.179  1.00  0.00     0.010 C 
HETATM    8  C   UNL     1       8.735  22.007  54.888  1.00  0.00    -0.002 C 
HETATM    9  C   UNL     1       7.598  22.721  54.118  1.00  0.00     0.052 C 
ENDROOT
BRANCH   1  10
HETATM   10  C   UNL     1       7.923  26.963  56.973  1.00  0.00     0.259 C 
HETATM   11  N   UNL     1       8.340  28.153  56.413  1.00  0.00    -0.322 N 
HETATM   12  H   UNL     1       7.964  28.364  55.502  1.00  0.00     0.169 HD
HETATM   13  O   UNL     1       7.913  26.700  58.171  1.00  0.00    -0.267 OA
BRANCH  11  14
HETATM   14  C   UNL     1       9.111  29.151  57.052  1.00  0.00     0.041 A 
HETATM   15  C   UNL     1       8.475  30.167  57.796  1.00  0.00    -0.032 A 
HETATM   16  C   UNL     1       9.257  31.197  58.358  1.00  0.00     0.009 A 
HETATM   17  C   UNL     1      10.639  31.229  58.180  1.00  0.00     0.001 A 
HETATM   18  C   UNL     1      11.262  30.223  57.452  1.00  0.00     0.002 A 
HETATM   19  C   UNL     1      10.504  29.191  56.896  1.00  0.00     0.030 A 
BRANCH  15  20
HETATM   20  C   UNL     1       7.000  30.153  58.130  1.00  0.00     0.036 C 
HETATM   21  C   UNL     1       6.577  31.452  58.807  1.00  0.00     0.010 C 
ENDBRANCH  15  20
ENDBRANCH  11  14
ENDBRANCH   1  10
BRANCH   2  22
HETATM   22  N   UNL     1       5.114  26.983  55.529  1.00  0.00    -0.319 N 
HETATM   23  C   UNL     1       5.147  28.053  54.661  1.00  0.00     0.248 C 
HETATM   24  O   UNL     1       6.013  28.283  53.815  1.00  0.00    -0.271 OA
HETATM   25  H   UNL     1       4.230  26.638  55.885  1.00  0.00     0.169 HD
BRANCH  23  26
HETATM   26  C   UNL     1       3.858  28.872  54.622  1.00  0.00     0.337 C 
BRANCH  26  27
HETATM   27  N   UNL     1       3.997  30.091  55.538  1.00  0.00    -0.059 N 
HETATM   28  H   UNL     1       5.010  30.137  55.752  1.00  0.00     0.280 HD
HETATM   29  C   UNL     1       3.634  31.398  54.842  1.00  0.00     0.261 C 
HETATM   30  C   UNL     1       3.815  32.570  55.813  1.00  0.00     0.195 C 
HETATM   31  O   UNL     1       3.037  32.371  56.998  1.00  0.00    -0.388 OA
HETATM   32  C   UNL     1       3.441  31.192  57.703  1.00  0.00     0.195 C 
HETATM   33  C   UNL     1       3.237  29.941  56.840  1.00  0.00     0.261 C 
ENDBRANCH  26  27
ENDBRANCH  23  26
ENDBRANCH   2  22
BRANCH   8  34
HETATM   34  C   UNL     1       8.284  21.095  56.095  1.00  0.00    -0.047 C 
HETATM   35  C   UNL     1       8.069  21.841  57.422  1.00  0.00     0.015 C 
HETATM   36  C   UNL     1       6.963  20.363  55.758  1.00  0.00     0.015 C 
HETATM   37  C   UNL     1       9.352  20.002  56.337  1.00  0.00     0.015 C 
ENDBRANCH   8  34
TORSDOF 7
ENDMDL
MODEL 10
REMARK VINA RESULT:      -7.9      6.318      9.945
REMARK  7 active torsions:
REMARK  status: ('A' for Active; 'I' for Inactive)
REMARK    1  A    between atoms: C_2  and  C_3 
REMARK    2  A    between atoms: C_4  and  N_5 
REMARK       I    between atoms: N_5  and  C_6 
REMARK    3  A    between atoms: C_6  and  C_7 
REMARK    4  A    between atoms: C_8  and  N_9 
REMARK       I    between atoms: N_9  and  C_10 
REMARK    5  A    between atoms: C_10  and  C_11 
REMARK    6  A    between atoms: C_11  and  N_12 
REMARK    7  A    between atoms: C_25  and  C_26 
ROOT
HETATM    1  C   UNL     1       4.454  33.015  58.975  1.00  0.00     0.073 A 
HETATM    2  C   UNL     1       5.185  32.347  58.013  1.00  0.00     0.093 A 
HETATM    3  S   UNL     1       4.926  32.912  56.436  1.00  0.00    -0.075 SA
HETATM    4  C   UNL     1       3.700  33.956  56.968  1.00  0.00    -0.008 A 
HETATM    5  C   UNL     1       3.546  33.953  58.342  1.00  0.00    -0.026 A 
HETATM    6  C   UNL     1       2.627  34.925  59.027  1.00  0.00     0.041 C 
HETATM    7  C   UNL     1       1.778  35.758  58.048  1.00  0.00     0.010 C 
HETATM    8  C   UNL     1       2.431  36.107  56.678  1.00  0.00    -0.002 C 
HETATM    9  C   UNL     1       2.928  34.802  56.011  1.00  0.00     0.052 C 
ENDROOT
BRANCH   1  10
HETATM   10  C   UNL     1       4.701  32.873  60.414  1.00  0.00     0.259 C 
HETATM   11  N   UNL     1       5.645  33.751  60.905  1.00  0.00    -0.322 N 
HETATM   12  H   UNL     1       5.812  34.572  60.344  1.00  0.00     0.169 HD
HETATM   13  O   UNL     1       4.061  32.065  61.079  1.00  0.00    -0.267 OA
BRANCH  11  14
HETATM   14  C   UNL     1       6.274  33.681  62.169  1.00  0.00     0.041 A 
HETATM   15  C   UNL     1       7.402  32.853  62.353  1.00  0.00    -0.032 A 
HETATM   16  C   UNL     1       7.963  32.736  63.640  1.00  0.00     0.009 A 
HETATM   17  C   UNL     1       7.417  33.415  64.728  1.00  0.00     0.001 A 
HETATM   18  C   UNL     1       6.310  34.234  64.542  1.00  0.00     0.002 A 
HETATM   19  C   UNL     1       5.746  34.369  63.272  1.00  0.00     0.030 A 
BRANCH  15  20
HETATM   20  C   UNL     1       8.123  32.167  61.214  1.00  0.00     0.036 C 
HETATM   21  C   UNL     1       9.564  31.843  61.592  1.00  0.00     0.010 C 
ENDBRANCH  15  20
ENDBRANCH  11  14
ENDBRANCH   1  10
BRANCH   2  22
HETATM   22  N   UNL     1       6.074  31.297  58.047  1.00  0.00    -0.319 N 
HETATM   23  C   UNL     1       5.638  30.017  57.779  1.00  0.00     0.248 C 
HETATM   24  O   UNL     1       4.487  29.680  57.499  1.00  0.00    -0.271 OA
HETATM   25  H   UNL     1       7.037  31.559  57.866  1.00  0.00     0.169 HD
BRANCH  23  26
HETATM   26  C   UNL     1       6.759  28.995  57.598  1.00  0.00     0.337 C 
BRANCH  26  27
HETATM   27  N   UNL     1       8.052  29.716  57.207  1.00  0.00    -0.059 N 
HETATM   28  H   UNL     1       7.736  30.637  56.854  1.00  0.00     0.280 HD
HETATM   29  C   UNL     1       8.960  29.991  58.401  1.00  0.00     0.261 C 
HETATM   30  C   UNL     1      10.220  30.727  57.936  1.00  0.00     0.195 C 
HETATM   31  O   UNL     1      10.898  29.981  56.920  1.00  0.00    -0.388 OA
HETATM   32  C   UNL     1      10.079  29.803  55.759  1.00  0.00     0.195 C 
HETATM   33  C   UNL     1       8.810  29.011  56.100  1.00  0.00     0.261 C 
ENDBRANCH  26  27
ENDBRANCH  23  26
ENDBRANCH   2  22
BRANCH   8  34
HETATM   34  C   UNL     1       3.446  37.316  56.670  1.00  0.00    -0.047 C 
HETATM   35  C   UNL     1       4.926  36.917  56.779  1.00  0.00     0.015 C 
HETATM   36  C   UNL     1       3.286  38.150  55.376  1.00  0.00     0.015 C 
HETATM   37  C   UNL     1       3.124  38.261  57.853  1.00  0.00     0.015 C 
ENDBRANCH   8  34
TORSDOF 7
ENDMDL
