MODEL 1
REMARK VINA RESULT:      -8.7      0.000      0.000
REMARK  2 active torsions:
REMARK  status: ('A' for Active; 'I' for Inactive)
REMARK    1  A    between atoms: C_6  and  N_7 
REMARK       I    between atoms: N_7  and  C_8 
REMARK       I    between atoms: C_8  and  N_9 
REMARK    2  A    between atoms: N_9  and  C_10 
ROOT
HETATM    1  N   UNL     1       6.908  27.845  57.068  1.00  0.00    -0.306 N 
HETATM    2  C   UNL     1       6.657  26.539  56.774  1.00  0.00     0.321 C 
HETATM    3  N   UNL     1       7.671  25.782  56.280  1.00  0.00    -0.338 N 
HETATM    4  O   UNL     1       5.572  26.051  57.083  1.00  0.00    -0.247 OA
HETATM    5  H   UNL     1       6.195  28.204  57.693  1.00  0.00     0.171 HD
HETATM    6  H   UNL     1       8.398  26.275  55.781  1.00  0.00     0.164 HD
ENDROOT
BRANCH   3   7
HETATM    7  C   UNL     1       7.580  24.351  56.035  1.00  0.00     0.089 C 
HETATM    8  C   UNL     1       7.753  24.017  54.542  1.00  0.00     0.058 C 
HETATM    9  C   UNL     1       7.597  22.525  54.348  1.00  0.00     0.190 C 
HETATM   10  N   UNL     1       8.631  21.822  55.187  1.00  0.00    -0.067 N 
HETATM   11  C   UNL     1       7.902  21.969  52.973  1.00  0.00     0.035 C 
HETATM   12  H   UNL     1       9.551  22.229  54.954  1.00  0.00     0.280 HD
HETATM   13  C   UNL     1       8.423  22.032  56.654  1.00  0.00     0.237 C 
HETATM   14  C   UNL     1       8.658  20.400  54.689  1.00  0.00     0.235 C 
HETATM   15  C   UNL     1       8.515  23.527  56.940  1.00  0.00     0.053 C 
HETATM   16  C   UNL     1       8.117  20.485  53.261  1.00  0.00     0.030 C 
ENDBRANCH   3   7
BRANCH   1  17
HETATM   17  C   UNL     1       8.051  28.658  56.893  1.00  0.00     0.077 A 
HETATM   18  C   UNL     1       8.752  28.919  55.711  1.00  0.00     0.152 A 
HETATM   19  N   UNL     1       9.884  29.659  55.632  1.00  0.00    -0.247 NA
HETATM   20 CL   UNL     1       8.193  28.474  54.142  1.00  0.00    -0.060 Cl
HETATM   21  C   UNL     1      10.328  30.217  56.775  1.00  0.00     0.118 A 
HETATM   22  C   UNL     1       9.678  30.086  57.989  1.00  0.00     0.022 A 
HETATM   23  C   UNL     1       8.522  29.308  58.041  1.00  0.00     0.034 A 
ENDBRANCH   1  17
TORSDOF 2
ENDMDL
MODEL 2
REMARK VINA RESULT:      -8.0      1.760      1.968
REMARK  2 active torsions:
REMARK  status: ('A' for Active; 'I' for Inactive)
REMARK    1  A    between atoms: C_6  and  N_7 
REMARK       I    between atoms: N_7  and  C_8 
REMARK       I    between atoms: C_8  and  N_9 
REMARK    2  A    between atoms: N_9  and  C_10 
ROOT
HETATM    1  N   UNL     1       7.191  28.682  57.467  1.00  0.00    -0.306 N 
HETATM    2  C   UNL     1       6.867  27.423  57.067  1.00  0.00     0.321 C 
HETATM    3  N   UNL     1       7.871  26.581  56.709  1.00  0.00    -0.338 N 
HETATM    4  O   UNL     1       5.702  27.041  57.164  1.00  0.00    -0.247 OA
HETATM    5  H   UNL     1       6.420  29.093  57.983  1.00  0.00     0.171 HD
HETATM    6  H   UNL     1       8.718  27.012  56.365  1.00  0.00     0.164 HD
ENDROOT
BRANCH   3   7
HETATM    7  C   UNL     1       7.683  25.177  56.376  1.00  0.00     0.089 C 
HETATM    8  C   UNL     1       7.753  24.938  54.857  1.00  0.00     0.058 C 
HETATM    9  C   UNL     1       7.500  23.474  54.574  1.00  0.00     0.190 C 
HETATM   10  N   UNL     1       8.537  22.660  55.303  1.00  0.00    -0.067 N 
HETATM   11  C   UNL     1       7.696  22.998  53.151  1.00  0.00     0.035 C 
HETATM   12  H   UNL     1       9.465  23.031  55.042  1.00  0.00     0.280 HD
HETATM   13  C   UNL     1       8.423  22.778  56.790  1.00  0.00     0.237 C 
HETATM   14  C   UNL     1       8.454  21.275  54.712  1.00  0.00     0.235 C 
HETATM   15  C   UNL     1       8.618  24.243  57.168  1.00  0.00     0.053 C 
HETATM   16  C   UNL     1       7.839  21.488  53.327  1.00  0.00     0.030 C 
ENDBRANCH   3   7
BRANCH   1  17
HETATM   17  C   UNL     1       8.421  29.377  57.529  1.00  0.00     0.077 A 
HETATM   18  C   UNL     1       8.842  30.302  58.491  1.00  0.00     0.152 A 
HETATM   19  N   UNL     1      10.014  30.979  58.448  1.00  0.00    -0.247 NA
HETATM   20 CL   UNL     1       8.007  30.602  59.969  1.00  0.00    -0.060 Cl
HETATM   21  C   UNL     1      10.844  30.697  57.425  1.00  0.00     0.118 A 
HETATM   22  C   UNL     1      10.564  29.752  56.456  1.00  0.00     0.022 A 
HETATM   23  C   UNL     1       9.345  29.078  56.520  1.00  0.00     0.034 A 
ENDBRANCH   1  17
TORSDOF 2
ENDMDL
MODEL 3
REMARK VINA RESULT:      -7.5      3.413      5.243
REMARK  2 active torsions:
REMARK  status: ('A' for Active; 'I' for Inactive)
REMARK    1  A    between atoms: C_6  and  N_7 
REMARK       I    between atoms: N_7  and  C_8 
REMARK       I    between atoms: C_8  and  N_9 
REMARK    2  A    between atoms: N_9  and  C_10 
ROOT
HETATM    1  N   UNL     1       9.701  31.509  58.762  1.00  0.00    -0.306 N 
HETATM    2  C   UNL     1       9.722  30.487  57.864  1.00  0.00     0.321 C 
HETATM    3  N   UNL     1       8.728  29.561  57.917  1.00  0.00    -0.338 N 
HETATM    4  O   UNL     1      10.551  30.500  56.956  1.00  0.00    -0.247 OA
HETATM    5  H   UNL     1      10.288  32.269  58.438  1.00  0.00     0.171 HD
HETATM    6  H   UNL     1       8.286  29.427  58.815  1.00  0.00     0.164 HD
ENDROOT
BRANCH   3   7
HETATM    7  C   UNL     1       8.558  28.488  56.949  1.00  0.00     0.089 C 
HETATM    8  C   UNL     1       7.904  27.247  57.585  1.00  0.00     0.058 C 
HETATM    9  C   UNL     1       7.802  26.154  56.545  1.00  0.00     0.190 C 
HETATM   10  N   UNL     1       6.986  26.668  55.389  1.00  0.00    -0.067 N 
HETATM   11  C   UNL     1       7.030  24.907  56.922  1.00  0.00     0.035 C 
HETATM   12  H   UNL     1       6.098  27.032  55.772  1.00  0.00     0.280 HD
HETATM   13  C   UNL     1       7.648  27.803  54.674  1.00  0.00     0.237 C 
HETATM   14  C   UNL     1       6.628  25.452  54.573  1.00  0.00     0.235 C 
HETATM   15  C   UNL     1       7.839  28.946  55.667  1.00  0.00     0.053 C 
HETATM   16  C   UNL     1       6.723  24.288  55.561  1.00  0.00     0.030 C 
ENDBRANCH   3   7
BRANCH   1  17
HETATM   17  C   UNL     1       8.855  31.799  59.857  1.00  0.00     0.077 A 
HETATM   18  C   UNL     1       7.490  32.105  59.836  1.00  0.00     0.152 A 
HETATM   19  N   UNL     1       6.757  32.438  60.925  1.00  0.00    -0.247 NA
HETATM   20 CL   UNL     1       6.490  31.944  58.441  1.00  0.00    -0.060 Cl
HETATM   21  C   UNL     1       7.391  32.425  62.114  1.00  0.00     0.118 A 
HETATM   22  C   UNL     1       8.719  32.071  62.264  1.00  0.00     0.022 A 
HETATM   23  C   UNL     1       9.451  31.743  61.123  1.00  0.00     0.034 A 
ENDBRANCH   1  17
TORSDOF 2
ENDMDL
MODEL 4
REMARK VINA RESULT:      -7.5      1.881      7.365
REMARK  2 active torsions:
REMARK  status: ('A' for Active; 'I' for Inactive)
REMARK    1  A    between atoms: C_6  and  N_7 
REMARK       I    between atoms: N_7  and  C_8 
REMARK       I    between atoms: C_8  and  N_9 
REMARK    2  A    between atoms: N_9  and  C_10 
ROOT
HETATM    1  N   UNL     1       6.609  25.970  55.200  1.00  0.00    -0.306 N 
HETATM    2  C   UNL     1       6.806  27.228  55.679  1.00  0.00     0.321 C 
HETATM    3  N   UNL     1       7.981  27.505  56.303  1.00  0.00    -0.338 N 
HETATM    4  O   UNL     1       5.984  28.106  55.423  1.00  0.00    -0.247 OA
HETATM    5  H   UNL     1       5.863  25.972  54.513  1.00  0.00     0.171 HD
HETATM    6  H   UNL     1       8.453  26.725  56.738  1.00  0.00     0.164 HD
ENDROOT
BRANCH   3   7
HETATM    7  C   UNL     1       8.375  28.830  56.756  1.00  0.00     0.089 C 
HETATM    8  C   UNL     1       7.751  29.173  58.121  1.00  0.00     0.058 C 
HETATM    9  C   UNL     1       8.156  30.577  58.511  1.00  0.00     0.190 C 
HETATM   10  N   UNL     1       9.659  30.643  58.567  1.00  0.00    -0.067 N 
HETATM   11  C   UNL     1       7.786  31.044  59.903  1.00  0.00     0.035 C 
HETATM   12  H   UNL     1       9.982  29.877  59.181  1.00  0.00     0.280 HD
HETATM   13  C   UNL     1      10.297  30.428  57.231  1.00  0.00     0.237 C 
HETATM   14  C   UNL     1       9.981  31.927  59.288  1.00  0.00     0.235 C 
HETATM   15  C   UNL     1       9.900  29.043  56.731  1.00  0.00     0.053 C 
HETATM   16  C   UNL     1       8.728  32.227  60.111  1.00  0.00     0.030 C 
ENDBRANCH   3   7
BRANCH   1  17
HETATM   17  C   UNL     1       7.382  24.788  55.276  1.00  0.00     0.077 A 
HETATM   18  C   UNL     1       8.002  24.095  54.231  1.00  0.00     0.152 A 
HETATM   19  N   UNL     1       8.674  22.927  54.372  1.00  0.00    -0.247 NA
HETATM   20 CL   UNL     1       8.149  24.704  52.625  1.00  0.00    -0.060 Cl
HETATM   21  C   UNL     1       8.785  22.435  55.622  1.00  0.00     0.118 A 
HETATM   22  C   UNL     1       8.273  23.070  56.738  1.00  0.00     0.022 A 
HETATM   23  C   UNL     1       7.576  24.265  56.560  1.00  0.00     0.034 A 
ENDBRANCH   1  17
TORSDOF 2
ENDMDL
MODEL 5
REMARK VINA RESULT:      -7.3      5.447      7.490
REMARK  2 active torsions:
REMARK  status: ('A' for Active; 'I' for Inactive)
REMARK    1  A    between atoms: C_6  and  N_7 
REMARK       I    between atoms: N_7  and  C_8 
REMARK       I    between atoms: C_8  and  N_9 
REMARK    2  A    between atoms: N_9  and  C_10 
ROOT
HETATM    1  N   UNL     1       7.610  26.240  54.020  1.00  0.00    -0.306 N 
HETATM    2  C   UNL     1       7.003  27.045  53.105  1.00  0.00     0.321 C 
HETATM    3  N   UNL     1       6.145  26.480  52.216  1.00  0.00    -0.338 N 
HETATM    4  O   UNL     1       7.141  28.264  53.190  1.00  0.00    -0.247 OA
HETATM    5  H   UNL     1       7.966  26.796  54.790  1.00  0.00     0.171 HD
HETATM    6  H   UNL     1       6.301  25.506  51.998  1.00  0.00     0.164 HD
ENDROOT
BRANCH   3   7
HETATM    7  C   UNL     1       5.339  27.230  51.265  1.00  0.00     0.089 C 
HETATM    8  C   UNL     1       4.851  26.342  50.107  1.00  0.00     0.058 C 
HETATM    9  C   UNL     1       4.065  27.189  49.130  1.00  0.00     0.190 C 
HETATM   10  N   UNL     1       2.908  27.814  49.863  1.00  0.00    -0.067 N 
HETATM   11  C   UNL     1       3.351  26.470  48.006  1.00  0.00     0.035 C 
HETATM   12  H   UNL     1       2.394  27.055  50.340  1.00  0.00     0.280 HD
HETATM   13  C   UNL     1       3.346  28.774  50.923  1.00  0.00     0.237 C 
HETATM   14  C   UNL     1       1.987  28.340  48.792  1.00  0.00     0.235 C 
HETATM   15  C   UNL     1       4.194  28.012  51.936  1.00  0.00     0.053 C 
HETATM   16  C   UNL     1       2.325  27.506  47.555  1.00  0.00     0.030 C 
ENDBRANCH   3   7
BRANCH   1  17
HETATM   17  C   UNL     1       7.596  24.840  54.215  1.00  0.00     0.077 A 
HETATM   18  C   UNL     1       7.189  24.131  55.350  1.00  0.00     0.152 A 
HETATM   19  N   UNL     1       7.268  22.786  55.490  1.00  0.00    -0.247 NA
HETATM   20 CL   UNL     1       6.369  24.845  56.689  1.00  0.00    -0.060 Cl
HETATM   21  C   UNL     1       7.730  22.090  54.432  1.00  0.00     0.118 A 
HETATM   22  C   UNL     1       8.096  22.678  53.236  1.00  0.00     0.022 A 
HETATM   23  C   UNL     1       8.014  24.065  53.126  1.00  0.00     0.034 A 
ENDBRANCH   1  17
TORSDOF 2
ENDMDL
MODEL 6
REMARK VINA RESULT:      -7.3      4.966      6.048
REMARK  2 active torsions:
REMARK  status: ('A' for Active; 'I' for Inactive)
REMARK    1  A    between atoms: C_6  and  N_7 
REMARK       I    between atoms: N_7  and  C_8 
REMARK       I    between atoms: C_8  and  N_9 
REMARK    2  A    between atoms: N_9  and  C_10 
ROOT
HETATM    1  N   UNL     1       4.228  27.733  51.431  1.00  0.00    -0.306 N 
HETATM    2  C   UNL     1       4.604  26.953  52.481  1.00  0.00     0.321 C 
HETATM    3  N   UNL     1       5.581  26.029  52.282  1.00  0.00    -0.338 N 
HETATM    4  O   UNL     1       4.153  27.190  53.600  1.00  0.00    -0.247 OA
HETATM    5  H   UNL     1       3.739  28.555  51.767  1.00  0.00     0.171 HD
HETATM    6  H   UNL     1       5.684  25.681  51.339  1.00  0.00     0.164 HD
ENDROOT
BRANCH   3   7
HETATM    7  C   UNL     1       6.163  25.213  53.336  1.00  0.00     0.089 C 
HETATM    8  C   UNL     1       6.803  23.930  52.775  1.00  0.00     0.058 C 
HETATM    9  C   UNL     1       7.343  23.104  53.921  1.00  0.00     0.190 C 
HETATM   10  N   UNL     1       8.351  23.932  54.674  1.00  0.00    -0.067 N 
HETATM   11  C   UNL     1       8.165  21.883  53.570  1.00  0.00     0.035 C 
HETATM   12  H   UNL     1       9.039  24.284  53.988  1.00  0.00     0.280 HD
HETATM   13  C   UNL     1       7.740  25.129  55.331  1.00  0.00     0.237 C 
HETATM   14  C   UNL     1       9.093  22.962  55.557  1.00  0.00     0.235 C 
HETATM   15  C   UNL     1       7.121  26.005  54.246  1.00  0.00     0.053 C 
HETATM   16  C   UNL     1       8.914  21.607  54.871  1.00  0.00     0.030 C 
ENDBRANCH   3   7
BRANCH   1  17
HETATM   17  C   UNL     1       4.606  27.745  50.069  1.00  0.00     0.077 A 
HETATM   18  C   UNL     1       5.229  28.775  49.356  1.00  0.00     0.152 A 
HETATM   19  N   UNL     1       5.501  28.740  48.030  1.00  0.00    -0.247 NA
HETATM   20 CL   UNL     1       5.896  30.186  50.088  1.00  0.00    -0.060 Cl
HETATM   21  C   UNL     1       5.187  27.606  47.373  1.00  0.00     0.118 A 
HETATM   22  C   UNL     1       4.632  26.499  47.988  1.00  0.00     0.022 A 
HETATM   23  C   UNL     1       4.353  26.569  49.352  1.00  0.00     0.034 A 
ENDBRANCH   1  17
TORSDOF 2
ENDMDL
MODEL 7
REMARK VINA RESULT:      -7.2      6.347      7.750
REMARK  2 active torsions:
REMARK  status: ('A' for Active; 'I' for Inactive)
REMARK    1  A    between atoms: C_6  and  N_7 
REMARK       I    between atoms: N_7  and  C_8 
REMARK       I    between atoms: C_8  and  N_9 
REMARK    2  A    between atoms: N_9  and  C_10 
ROOT
HETATM    1  N   UNL     1       4.429  28.806  49.657  1.00  0.00    -0.306 N 
HETATM    2  C   UNL     1       5.173  28.462  50.744  1.00  0.00     0.321 C 
HETATM    3  N   UNL     1       5.217  27.153  51.107  1.00  0.00    -0.338 N 
HETATM    4  O   UNL     1       5.881  29.310  51.282  1.00  0.00    -0.247 OA
HETATM    5  H   UNL     1       4.714  29.718  49.316  1.00  0.00     0.171 HD
HETATM    6  H   UNL     1       4.421  26.587  50.846  1.00  0.00     0.164 HD
ENDROOT
BRANCH   3   7
HETATM    7  C   UNL     1       6.060  26.626  52.169  1.00  0.00     0.089 C 
HETATM    8  C   UNL     1       5.258  26.366  53.457  1.00  0.00     0.058 C 
HETATM    9  C   UNL     1       6.197  25.870  54.534  1.00  0.00     0.190 C 
HETATM   10  N   UNL     1       6.865  24.612  54.044  1.00  0.00    -0.067 N 
HETATM   11  C   UNL     1       5.577  25.392  55.829  1.00  0.00     0.035 C 
HETATM   12  H   UNL     1       6.121  23.963  53.739  1.00  0.00     0.280 HD
HETATM   13  C   UNL     1       7.747  24.851  52.859  1.00  0.00     0.237 C 
HETATM   14  C   UNL     1       7.497  23.989  55.262  1.00  0.00     0.235 C 
HETATM   15  C   UNL     1       6.886  25.403  51.727  1.00  0.00     0.053 C 
HETATM   16  C   UNL     1       6.698  24.553  56.437  1.00  0.00     0.030 C 
ENDBRANCH   3   7
BRANCH   1  17
HETATM   17  C   UNL     1       3.579  28.061  48.808  1.00  0.00     0.077 A 
HETATM   18  C   UNL     1       3.937  27.236  47.737  1.00  0.00     0.152 A 
HETATM   19  N   UNL     1       3.058  26.603  46.923  1.00  0.00    -0.247 NA
HETATM   20 CL   UNL     1       5.558  26.763  47.385  1.00  0.00    -0.060 Cl
HETATM   21  C   UNL     1       1.750  26.751  47.207  1.00  0.00     0.118 A 
HETATM   22  C   UNL     1       1.282  27.485  48.281  1.00  0.00     0.022 A 
HETATM   23  C   UNL     1       2.210  28.134  49.095  1.00  0.00     0.034 A 
ENDBRANCH   1  17
TORSDOF 2
ENDMDL
MODEL 8
REMARK VINA RESULT:      -7.2      5.833      7.342
REMARK  2 active torsions:
REMARK  status: ('A' for Active; 'I' for Inactive)
REMARK    1  A    between atoms: C_6  and  N_7 
REMARK       I    between atoms: N_7  and  C_8 
REMARK       I    between atoms: C_8  and  N_9 
REMARK    2  A    between atoms: N_9  and  C_10 
ROOT
HETATM    1  N   UNL     1       4.753  27.731  50.109  1.00  0.00    -0.306 N 
HETATM    2  C   UNL     1       5.192  27.181  51.274  1.00  0.00     0.321 C 
HETATM    3  N   UNL     1       4.706  25.965  51.637  1.00  0.00    -0.338 N 
HETATM    4  O   UNL     1       6.102  27.728  51.893  1.00  0.00    -0.247 OA
HETATM    5  H   UNL     1       5.392  28.458  49.806  1.00  0.00     0.171 HD
HETATM    6  H   UNL     1       3.791  25.723  51.284  1.00  0.00     0.164 HD
ENDROOT
BRANCH   3   7
HETATM    7  C   UNL     1       5.172  25.208  52.788  1.00  0.00     0.089 C 
HETATM    8  C   UNL     1       6.508  24.498  52.500  1.00  0.00     0.058 C 
HETATM    9  C   UNL     1       6.911  23.691  53.714  1.00  0.00     0.190 C 
HETATM   10  N   UNL     1       7.032  24.623  54.890  1.00  0.00    -0.067 N 
HETATM   11  C   UNL     1       8.284  23.053  53.698  1.00  0.00     0.035 C 
HETATM   12  H   UNL     1       7.660  25.394  54.614  1.00  0.00     0.280 HD
HETATM   13  C   UNL     1       5.725  25.243  55.271  1.00  0.00     0.237 C 
HETATM   14  C   UNL     1       7.762  23.841  55.953  1.00  0.00     0.235 C 
HETATM   15  C   UNL     1       5.212  26.046  54.080  1.00  0.00     0.053 C 
HETATM   16  C   UNL     1       8.530  22.769  55.178  1.00  0.00     0.030 C 
ENDBRANCH   3   7
BRANCH   1  17
HETATM   17  C   UNL     1       3.785  27.319  49.165  1.00  0.00     0.077 A 
HETATM   18  C   UNL     1       2.459  27.750  49.045  1.00  0.00     0.152 A 
HETATM   19  N   UNL     1       1.566  27.259  48.153  1.00  0.00    -0.247 NA
HETATM   20 CL   UNL     1       1.801  29.092  49.906  1.00  0.00    -0.060 Cl
HETATM   21  C   UNL     1       2.014  26.322  47.295  1.00  0.00     0.118 A 
HETATM   22  C   UNL     1       3.321  25.871  47.276  1.00  0.00     0.022 A 
HETATM   23  C   UNL     1       4.214  26.387  48.213  1.00  0.00     0.034 A 
ENDBRANCH   1  17
TORSDOF 2
ENDMDL
MODEL 9
REMARK VINA RESULT:      -7.1      3.476      7.243
REMARK  2 active torsions:
REMARK  status: ('A' for Active; 'I' for Inactive)
REMARK    1  A    between atoms: C_6  and  N_7 
REMARK       I    between atoms: N_7  and  C_8 
REMARK       I    between atoms: C_8  and  N_9 
REMARK    2  A    between atoms: N_9  and  C_10 
ROOT
HETATM    1  N   UNL     1       8.383  23.492  53.160  1.00  0.00    -0.306 N 
HETATM    2  C   UNL     1       7.934  24.771  53.040  1.00  0.00     0.321 C 
HETATM    3  N   UNL     1       7.379  25.365  54.129  1.00  0.00    -0.338 N 
HETATM    4  O   UNL     1       8.158  25.392  52.003  1.00  0.00    -0.247 OA
HETATM    5  H   UNL     1       9.028  23.277  52.408  1.00  0.00     0.171 HD
HETATM    6  H   UNL     1       6.958  24.751  54.811  1.00  0.00     0.164 HD
ENDROOT
BRANCH   3   7
HETATM    7  C   UNL     1       6.968  26.760  54.179  1.00  0.00     0.089 C 
HETATM    8  C   UNL     1       5.506  26.938  53.729  1.00  0.00     0.058 C 
HETATM    9  C   UNL     1       5.156  28.410  53.755  1.00  0.00     0.190 C 
HETATM   10  N   UNL     1       5.363  28.927  55.154  1.00  0.00    -0.067 N 
HETATM   11  C   UNL     1       3.710  28.784  53.511  1.00  0.00     0.035 C 
HETATM   12  H   UNL     1       4.837  28.311  55.795  1.00  0.00     0.280 HD
HETATM   13  C   UNL     1       6.796  28.875  55.582  1.00  0.00     0.237 C 
HETATM   14  C   UNL     1       4.678  30.268  55.196  1.00  0.00     0.235 C 
HETATM   15  C   UNL     1       7.255  27.421  55.540  1.00  0.00     0.053 C 
HETATM   16  C   UNL     1       3.639  30.201  54.074  1.00  0.00     0.030 C 
ENDBRANCH   3   7
BRANCH   1  17
HETATM   17  C   UNL     1       8.331  22.559  54.222  1.00  0.00     0.077 A 
HETATM   18  C   UNL     1       8.145  21.174  54.145  1.00  0.00     0.152 A 
HETATM   19  N   UNL     1       8.040  20.350  55.214  1.00  0.00    -0.247 NA
HETATM   20 CL   UNL     1       8.187  20.277  52.673  1.00  0.00    -0.060 Cl
HETATM   21  C   UNL     1       8.171  20.911  56.432  1.00  0.00     0.118 A 
HETATM   22  C   UNL     1       8.427  22.256  56.626  1.00  0.00     0.022 A 
HETATM   23  C   UNL     1       8.519  23.082  55.507  1.00  0.00     0.034 A 
ENDBRANCH   1  17
TORSDOF 2
ENDMDL
MODEL 10
REMARK VINA RESULT:      -6.9      3.240      4.302
REMARK  2 active torsions:
REMARK  status: ('A' for Active; 'I' for Inactive)
REMARK    1  A    between atoms: C_6  and  N_7 
REMARK       I    between atoms: N_7  and  C_8 
REMARK       I    between atoms: C_8  and  N_9 
REMARK    2  A    between atoms: N_9  and  C_10 
ROOT
HETATM    1  N   UNL     1       8.860  30.176  58.416  1.00  0.00    -0.306 N 
HETATM    2  C   UNL     1       8.709  28.996  57.755  1.00  0.00     0.321 C 
HETATM    3  N   UNL     1       7.506  28.366  57.824  1.00  0.00    -0.338 N 
HETATM    4  O   UNL     1       9.607  28.601  57.014  1.00  0.00    -0.247 OA
HETATM    5  H   UNL     1       9.660  30.680  58.050  1.00  0.00     0.171 HD
HETATM    6  H   UNL     1       6.948  28.554  58.644  1.00  0.00     0.164 HD
ENDROOT
BRANCH   3   7
HETATM    7  C   UNL     1       7.167  27.166  57.075  1.00  0.00     0.089 C 
HETATM    8  C   UNL     1       7.508  27.313  55.581  1.00  0.00     0.058 C 
HETATM    9  C   UNL     1       7.086  26.056  54.852  1.00  0.00     0.190 C 
HETATM   10  N   UNL     1       7.805  24.883  55.463  1.00  0.00    -0.067 N 
HETATM   11  C   UNL     1       7.491  25.928  53.399  1.00  0.00     0.035 C 
HETATM   12  H   UNL     1       8.814  25.103  55.466  1.00  0.00     0.280 HD
HETATM   13  C   UNL     1       7.409  24.641  56.885  1.00  0.00     0.237 C 
HETATM   14  C   UNL     1       7.623  23.745  54.492  1.00  0.00     0.235 C 
HETATM   15  C   UNL     1       7.755  25.886  57.696  1.00  0.00     0.053 C 
HETATM   16  C   UNL     1       7.349  24.429  53.151  1.00  0.00     0.030 C 
ENDBRANCH   3   7
BRANCH   1  17
HETATM   17  C   UNL     1       8.004  30.904  59.275  1.00  0.00     0.077 A 
HETATM   18  C   UNL     1       8.080  31.028  60.666  1.00  0.00     0.152 A 
HETATM   19  N   UNL     1       7.182  31.691  61.432  1.00  0.00    -0.247 NA
HETATM   20 CL   UNL     1       9.422  30.492  61.608  1.00  0.00    -0.060 Cl
HETATM   21  C   UNL     1       6.173  32.311  60.789  1.00  0.00     0.118 A 
HETATM   22  C   UNL     1       6.037  32.316  59.413  1.00  0.00     0.022 A 
HETATM   23  C   UNL     1       6.971  31.615  58.652  1.00  0.00     0.034 A 
ENDBRANCH   1  17
TORSDOF 2
ENDMDL
