MODEL 1
REMARK VINA RESULT:      -9.7      0.000      0.000
REMARK  8 active torsions:
REMARK  status: ('A' for Active; 'I' for Inactive)
REMARK    1  A    between atoms: C_2  and  C_3 
REMARK    2  A    between atoms: C_3  and  O_4 
REMARK    3  A    between atoms: O_4  and  C_5 
REMARK    4  A    between atoms: C_8  and  C_9 
REMARK    5  A    between atoms: C_13  and  C_14 
REMARK       I    between atoms: C_14  and  N_15 
REMARK    6  A    between atoms: N_15  and  N_16 
REMARK    7  A    between atoms: C_17  and  C_18 
REMARK    8  A    between atoms: C_20  and  O_21 
ROOT
HETATM    1  C   UNL     1       8.408  28.236  57.047  1.00  0.00     0.089 A 
HETATM    2  N   UNL     1       9.512  28.909  56.684  1.00  0.00    -0.174 NA
HETATM    3  N   UNL     1       9.588  29.930  57.553  1.00  0.00    -0.272 N 
HETATM    4  H   UNL     1      10.369  30.578  57.486  1.00  0.00     0.189 HD
HETATM    5  C   UNL     1       8.561  29.979  58.453  1.00  0.00     0.121 A 
HETATM    6  C   UNL     1       7.777  28.886  58.145  1.00  0.00     0.071 A 
ENDROOT
BRANCH   5   7
HETATM    7  C   UNL     1       8.472  31.013  59.456  1.00  0.00     0.289 C 
HETATM    8  N   UNL     1       8.061  30.558  60.701  1.00  0.00    -0.242 N 
HETATM    9  H   UNL     1       7.820  29.585  60.829  1.00  0.00     0.192 HD
HETATM   10  O   UNL     1       8.744  32.181  59.195  1.00  0.00    -0.264 OA
BRANCH   8  11
HETATM   11  N   UNL     1       7.993  31.401  61.771  1.00  0.00    -0.184 NA
HETATM   12  C   UNL     1       6.798  31.624  62.216  1.00  0.00     0.150 C 
BRANCH  12  13
HETATM   13  C   UNL     1       6.544  32.488  63.385  1.00  0.00    -0.014 A 
HETATM   14  C   UNL     1       5.238  32.725  63.829  1.00  0.00     0.049 A 
HETATM   15  C   UNL     1       5.020  33.559  64.926  1.00  0.00     0.069 A 
HETATM   16  C   UNL     1       6.115  34.144  65.570  1.00  0.00     0.037 A 
HETATM   17  C   UNL     1       7.418  33.906  65.128  1.00  0.00     0.004 A 
HETATM   18  C   UNL     1       7.636  33.075  64.031  1.00  0.00     0.013 A 
BRANCH  15  19
HETATM   19  O   UNL     1       3.804  33.883  65.461  1.00  0.00    -0.356 OA
HETATM   20  C   UNL     1       3.685  35.176  66.042  1.00  0.00     0.210 C 
ENDBRANCH  15  19
ENDBRANCH  12  13
ENDBRANCH   8  11
ENDBRANCH   5   7
BRANCH   1  21
HETATM   21  C   UNL     1       7.966  27.022  56.358  1.00  0.00    -0.005 A 
HETATM   22  C   UNL     1       7.378  27.094  55.087  1.00  0.00     0.016 A 
HETATM   23  C   UNL     1       6.988  25.935  54.406  1.00  0.00     0.037 A 
HETATM   24  C   UNL     1       7.183  24.682  54.985  1.00  0.00     0.068 A 
HETATM   25  C   UNL     1       7.743  24.603  56.261  1.00  0.00     0.037 A 
HETATM   26  C   UNL     1       8.133  25.762  56.943  1.00  0.00     0.016 A 
BRANCH  24  27
HETATM   27  O   UNL     1       6.864  23.480  54.415  1.00  0.00    -0.351 OA
BRANCH  27  28
HETATM   28  C   UNL     1       7.585  23.117  53.238  1.00  0.00     0.175 C 
BRANCH  28  29
HETATM   29  C   UNL     1       8.546  21.988  53.596  1.00  0.00     0.022 C 
HETATM   30  C   UNL     1       8.076  20.654  53.042  1.00  0.00     0.007 C 
ENDBRANCH  28  29
ENDBRANCH  27  28
ENDBRANCH  24  27
ENDBRANCH   1  21
TORSDOF 8
ENDMDL
MODEL 2
REMARK VINA RESULT:      -9.3      1.810     11.574
REMARK  8 active torsions:
REMARK  status: ('A' for Active; 'I' for Inactive)
REMARK    1  A    between atoms: C_2  and  C_3 
REMARK    2  A    between atoms: C_3  and  O_4 
REMARK    3  A    between atoms: O_4  and  C_5 
REMARK    4  A    between atoms: C_8  and  C_9 
REMARK    5  A    between atoms: C_13  and  C_14 
REMARK       I    between atoms: C_14  and  N_15 
REMARK    6  A    between atoms: N_15  and  N_16 
REMARK    7  A    between atoms: C_17  and  C_18 
REMARK    8  A    between atoms: C_20  and  O_21 
ROOT
HETATM    1  C   UNL     1       8.411  31.772  60.211  1.00  0.00     0.089 A 
HETATM    2  N   UNL     1       9.324  32.417  59.468  1.00  0.00    -0.174 NA
HETATM    3  N   UNL     1       9.602  31.572  58.462  1.00  0.00    -0.272 N 
HETATM    4  H   UNL     1      10.266  31.856  57.748  1.00  0.00     0.189 HD
HETATM    5  C   UNL     1       8.935  30.380  58.530  1.00  0.00     0.121 A 
HETATM    6  C   UNL     1       8.151  30.485  59.661  1.00  0.00     0.071 A 
ENDROOT
BRANCH   5   7
HETATM    7  C   UNL     1       9.116  29.346  57.539  1.00  0.00     0.289 C 
HETATM    8  N   UNL     1       8.290  28.246  57.715  1.00  0.00    -0.242 N 
HETATM    9  H   UNL     1       7.662  28.206  58.505  1.00  0.00     0.192 HD
HETATM   10  O   UNL     1       9.938  29.465  56.635  1.00  0.00    -0.264 OA
BRANCH   8  11
HETATM   11  N   UNL     1       8.293  27.214  56.822  1.00  0.00    -0.184 NA
HETATM   12  C   UNL     1       7.968  26.062  57.317  1.00  0.00     0.150 C 
BRANCH  12  13
HETATM   13  C   UNL     1       7.892  24.845  56.487  1.00  0.00    -0.014 A 
HETATM   14  C   UNL     1       8.376  23.622  56.965  1.00  0.00     0.049 A 
HETATM   15  C   UNL     1       8.310  22.487  56.157  1.00  0.00     0.069 A 
HETATM   16  C   UNL     1       7.755  22.589  54.876  1.00  0.00     0.037 A 
HETATM   17  C   UNL     1       7.270  23.809  54.400  1.00  0.00     0.004 A 
HETATM   18  C   UNL     1       7.338  24.943  55.206  1.00  0.00     0.013 A 
BRANCH  15  19
HETATM   19  O   UNL     1       8.748  21.235  56.490  1.00  0.00    -0.356 OA
HETATM   20  C   UNL     1       8.777  20.269  55.446  1.00  0.00     0.210 C 
ENDBRANCH  15  19
ENDBRANCH  12  13
ENDBRANCH   8  11
ENDBRANCH   5   7
BRANCH   1  21
HETATM   21  C   UNL     1       7.817  32.361  61.413  1.00  0.00    -0.005 A 
HETATM   22  C   UNL     1       8.473  32.280  62.649  1.00  0.00     0.016 A 
HETATM   23  C   UNL     1       7.930  32.874  63.795  1.00  0.00     0.037 A 
HETATM   24  C   UNL     1       6.721  33.563  63.721  1.00  0.00     0.068 A 
HETATM   25  C   UNL     1       6.048  33.627  62.500  1.00  0.00     0.037 A 
HETATM   26  C   UNL     1       6.590  33.032  61.354  1.00  0.00     0.016 A 
BRANCH  24  27
HETATM   27  O   UNL     1       6.100  34.201  64.761  1.00  0.00    -0.351 OA
BRANCH  27  28
HETATM   28  C   UNL     1       4.840  33.674  65.174  1.00  0.00     0.175 C 
BRANCH  28  29
HETATM   29  C   UNL     1       4.515  34.239  66.553  1.00  0.00     0.022 C 
HETATM   30  C   UNL     1       3.836  35.594  66.459  1.00  0.00     0.007 C 
ENDBRANCH  28  29
ENDBRANCH  27  28
ENDBRANCH  24  27
ENDBRANCH   1  21
TORSDOF 8
ENDMDL
MODEL 3
REMARK VINA RESULT:      -9.2      1.709     11.483
REMARK  8 active torsions:
REMARK  status: ('A' for Active; 'I' for Inactive)
REMARK    1  A    between atoms: C_2  and  C_3 
REMARK    2  A    between atoms: C_3  and  O_4 
REMARK    3  A    between atoms: O_4  and  C_5 
REMARK    4  A    between atoms: C_8  and  C_9 
REMARK    5  A    between atoms: C_13  and  C_14 
REMARK       I    between atoms: C_14  and  N_15 
REMARK    6  A    between atoms: N_15  and  N_16 
REMARK    7  A    between atoms: C_17  and  C_18 
REMARK    8  A    between atoms: C_20  and  O_21 
ROOT
HETATM    1  C   UNL     1       8.439  31.759  60.201  1.00  0.00     0.089 A 
HETATM    2  N   UNL     1       9.387  32.362  59.466  1.00  0.00    -0.174 NA
HETATM    3  N   UNL     1       9.618  31.516  58.449  1.00  0.00    -0.272 N 
HETATM    4  H   UNL     1      10.298  31.773  57.738  1.00  0.00     0.189 HD
HETATM    5  C   UNL     1       8.887  30.362  58.502  1.00  0.00     0.121 A 
HETATM    6  C   UNL     1       8.110  30.496  59.634  1.00  0.00     0.071 A 
ENDROOT
BRANCH   5   7
HETATM    7  C   UNL     1       9.011  29.333  57.498  1.00  0.00     0.289 C 
HETATM    8  N   UNL     1       8.092  28.302  57.630  1.00  0.00    -0.242 N 
HETATM    9  H   UNL     1       7.439  28.302  58.401  1.00  0.00     0.192 HD
HETATM   10  O   UNL     1       9.867  29.396  56.620  1.00  0.00    -0.264 OA
BRANCH   8  11
HETATM   11  N   UNL     1       8.036  27.288  56.720  1.00  0.00    -0.184 NA
HETATM   12  C   UNL     1       8.155  26.099  57.217  1.00  0.00     0.150 C 
BRANCH  12  13
HETATM   13  C   UNL     1       8.088  24.886  56.380  1.00  0.00    -0.014 A 
HETATM   14  C   UNL     1       7.775  24.975  55.018  1.00  0.00     0.049 A 
HETATM   15  C   UNL     1       7.699  23.814  54.249  1.00  0.00     0.069 A 
HETATM   16  C   UNL     1       7.942  22.575  54.851  1.00  0.00     0.037 A 
HETATM   17  C   UNL     1       8.256  22.487  56.209  1.00  0.00     0.004 A 
HETATM   18  C   UNL     1       8.329  23.646  56.979  1.00  0.00     0.013 A 
BRANCH  15  19
HETATM   19  O   UNL     1       7.399  23.750  52.916  1.00  0.00    -0.356 OA
HETATM   20  C   UNL     1       7.682  24.908  52.140  1.00  0.00     0.210 C 
ENDBRANCH  15  19
ENDBRANCH  12  13
ENDBRANCH   8  11
ENDBRANCH   5   7
BRANCH   1  21
HETATM   21  C   UNL     1       7.878  32.365  61.410  1.00  0.00    -0.005 A 
HETATM   22  C   UNL     1       6.690  33.108  61.353  1.00  0.00     0.016 A 
HETATM   23  C   UNL     1       6.128  33.659  62.511  1.00  0.00     0.037 A 
HETATM   24  C   UNL     1       6.744  33.472  63.747  1.00  0.00     0.068 A 
HETATM   25  C   UNL     1       7.940  32.756  63.809  1.00  0.00     0.037 A 
HETATM   26  C   UNL     1       8.505  32.206  62.652  1.00  0.00     0.016 A 
BRANCH  24  27
HETATM   27  O   UNL     1       6.284  33.941  64.948  1.00  0.00    -0.351 OA
BRANCH  27  28
HETATM   28  C   UNL     1       4.908  33.707  65.243  1.00  0.00     0.175 C 
BRANCH  28  29
HETATM   29  C   UNL     1       4.594  34.342  66.593  1.00  0.00     0.022 C 
HETATM   30  C   UNL     1       3.344  35.202  66.531  1.00  0.00     0.007 C 
ENDBRANCH  28  29
ENDBRANCH  27  28
ENDBRANCH  24  27
ENDBRANCH   1  21
TORSDOF 8
ENDMDL
MODEL 4
REMARK VINA RESULT:      -8.4      5.047      8.889
REMARK  8 active torsions:
REMARK  status: ('A' for Active; 'I' for Inactive)
REMARK    1  A    between atoms: C_2  and  C_3 
REMARK    2  A    between atoms: C_3  and  O_4 
REMARK    3  A    between atoms: O_4  and  C_5 
REMARK    4  A    between atoms: C_8  and  C_9 
REMARK    5  A    between atoms: C_13  and  C_14 
REMARK       I    between atoms: C_14  and  N_15 
REMARK    6  A    between atoms: N_15  and  N_16 
REMARK    7  A    between atoms: C_17  and  C_18 
REMARK    8  A    between atoms: C_20  and  O_21 
ROOT
HETATM    1  C   UNL     1       6.074  32.805  63.710  1.00  0.00     0.089 A 
HETATM    2  N   UNL     1       4.736  32.754  63.620  1.00  0.00    -0.174 NA
HETATM    3  N   UNL     1       4.297  33.348  64.742  1.00  0.00    -0.272 N 
HETATM    4  H   UNL     1       3.296  33.445  64.890  1.00  0.00     0.189 HD
HETATM    5  C   UNL     1       5.291  33.757  65.586  1.00  0.00     0.121 A 
HETATM    6  C   UNL     1       6.460  33.415  64.937  1.00  0.00     0.071 A 
ENDROOT
BRANCH   5   7
HETATM    7  C   UNL     1       5.007  34.407  66.843  1.00  0.00     0.289 C 
HETATM    8  N   UNL     1       5.568  33.776  67.944  1.00  0.00    -0.242 N 
HETATM    9  H   UNL     1       6.089  32.919  67.824  1.00  0.00     0.192 HD
HETATM   10  O   UNL     1       4.324  35.426  66.896  1.00  0.00    -0.264 OA
BRANCH   8  11
HETATM   11  N   UNL     1       5.446  34.304  69.195  1.00  0.00    -0.184 NA
HETATM   12  C   UNL     1       6.565  34.620  69.767  1.00  0.00     0.150 C 
BRANCH  12  13
HETATM   13  C   UNL     1       6.616  35.231  71.109  1.00  0.00    -0.014 A 
HETATM   14  C   UNL     1       7.500  36.281  71.383  1.00  0.00     0.049 A 
HETATM   15  C   UNL     1       7.544  36.831  72.664  1.00  0.00     0.069 A 
HETATM   16  C   UNL     1       6.698  36.326  73.657  1.00  0.00     0.037 A 
HETATM   17  C   UNL     1       5.815  35.279  73.382  1.00  0.00     0.004 A 
HETATM   18  C   UNL     1       5.772  34.728  72.104  1.00  0.00     0.013 A 
BRANCH  15  19
HETATM   19  O   UNL     1       8.359  37.850  73.075  1.00  0.00    -0.356 OA
HETATM   20  C   UNL     1       8.906  38.680  72.057  1.00  0.00     0.210 C 
ENDBRANCH  15  19
ENDBRANCH  12  13
ENDBRANCH   8  11
ENDBRANCH   5   7
BRANCH   1  21
HETATM   21  C   UNL     1       6.953  32.276  62.665  1.00  0.00    -0.005 A 
HETATM   22  C   UNL     1       8.271  31.903  62.960  1.00  0.00     0.016 A 
HETATM   23  C   UNL     1       9.105  31.361  61.974  1.00  0.00     0.037 A 
HETATM   24  C   UNL     1       8.631  31.180  60.676  1.00  0.00     0.068 A 
HETATM   25  C   UNL     1       7.327  31.573  60.368  1.00  0.00     0.037 A 
HETATM   26  C   UNL     1       6.493  32.116  61.352  1.00  0.00     0.016 A 
BRANCH  24  27
HETATM   27  O   UNL     1       9.338  30.645  59.634  1.00  0.00    -0.351 OA
BRANCH  27  28
HETATM   28  C   UNL     1       9.817  31.558  58.648  1.00  0.00     0.175 C 
BRANCH  28  29
HETATM   29  C   UNL     1      10.805  30.820  57.752  1.00  0.00     0.022 C 
HETATM   30  C   UNL     1      10.099  29.871  56.800  1.00  0.00     0.007 C 
ENDBRANCH  28  29
ENDBRANCH  27  28
ENDBRANCH  24  27
ENDBRANCH   1  21
TORSDOF 8
ENDMDL
MODEL 5
REMARK VINA RESULT:      -8.3      1.950      2.362
REMARK  8 active torsions:
REMARK  status: ('A' for Active; 'I' for Inactive)
REMARK    1  A    between atoms: C_2  and  C_3 
REMARK    2  A    between atoms: C_3  and  O_4 
REMARK    3  A    between atoms: O_4  and  C_5 
REMARK    4  A    between atoms: C_8  and  C_9 
REMARK    5  A    between atoms: C_13  and  C_14 
REMARK       I    between atoms: C_14  and  N_15 
REMARK    6  A    between atoms: N_15  and  N_16 
REMARK    7  A    between atoms: C_17  and  C_18 
REMARK    8  A    between atoms: C_20  and  O_21 
ROOT
HETATM    1  C   UNL     1       7.106  27.523  55.520  1.00  0.00     0.089 A 
HETATM    2  N   UNL     1       7.282  28.590  54.724  1.00  0.00    -0.174 NA
HETATM    3  N   UNL     1       7.103  29.649  55.531  1.00  0.00    -0.272 N 
HETATM    4  H   UNL     1       7.207  30.584  55.148  1.00  0.00     0.189 HD
HETATM    5  C   UNL     1       6.780  29.324  56.819  1.00  0.00     0.121 A 
HETATM    6  C   UNL     1       6.776  27.944  56.839  1.00  0.00     0.071 A 
ENDROOT
BRANCH   5   7
HETATM    7  C   UNL     1       6.542  30.332  57.824  1.00  0.00     0.289 C 
HETATM    8  N   UNL     1       7.673  30.693  58.541  1.00  0.00    -0.242 N 
HETATM    9  H   UNL     1       8.554  30.232  58.361  1.00  0.00     0.192 HD
HETATM   10  O   UNL     1       5.423  30.805  58.002  1.00  0.00    -0.264 OA
BRANCH   8  11
HETATM   11  N   UNL     1       7.625  31.681  59.480  1.00  0.00    -0.184 NA
HETATM   12  C   UNL     1       7.243  31.300  60.657  1.00  0.00     0.150 C 
BRANCH  12  13
HETATM   13  C   UNL     1       7.164  32.232  61.798  1.00  0.00    -0.014 A 
HETATM   14  C   UNL     1       6.267  33.308  61.781  1.00  0.00     0.049 A 
HETATM   15  C   UNL     1       6.222  34.187  62.862  1.00  0.00     0.069 A 
HETATM   16  C   UNL     1       7.073  33.979  63.953  1.00  0.00     0.037 A 
HETATM   17  C   UNL     1       7.965  32.905  63.970  1.00  0.00     0.004 A 
HETATM   18  C   UNL     1       8.013  32.027  62.889  1.00  0.00     0.013 A 
BRANCH  15  19
HETATM   19  O   UNL     1       5.405  35.279  62.978  1.00  0.00    -0.356 OA
HETATM   20  C   UNL     1       4.195  35.254  62.230  1.00  0.00     0.210 C 
ENDBRANCH  15  19
ENDBRANCH  12  13
ENDBRANCH   8  11
ENDBRANCH   5   7
BRANCH   1  21
HETATM   21  C   UNL     1       7.236  26.149  55.031  1.00  0.00    -0.005 A 
HETATM   22  C   UNL     1       7.483  25.892  53.675  1.00  0.00     0.016 A 
HETATM   23  C   UNL     1       7.646  24.583  53.207  1.00  0.00     0.037 A 
HETATM   24  C   UNL     1       7.568  23.507  54.090  1.00  0.00     0.068 A 
HETATM   25  C   UNL     1       7.297  23.753  55.437  1.00  0.00     0.037 A 
HETATM   26  C   UNL     1       7.132  25.062  55.906  1.00  0.00     0.016 A 
BRANCH  24  27
HETATM   27  O   UNL     1       7.729  22.189  53.760  1.00  0.00    -0.351 OA
BRANCH  27  28
HETATM   28  C   UNL     1       8.945  21.568  54.176  1.00  0.00     0.175 C 
BRANCH  28  29
HETATM   29  C   UNL     1       8.606  20.205  54.770  1.00  0.00     0.022 C 
HETATM   30  C   UNL     1       8.136  20.321  56.209  1.00  0.00     0.007 C 
ENDBRANCH  28  29
ENDBRANCH  27  28
ENDBRANCH  24  27
ENDBRANCH   1  21
TORSDOF 8
ENDMDL
MODEL 6
REMARK VINA RESULT:      -8.2      2.145     11.565
REMARK  8 active torsions:
REMARK  status: ('A' for Active; 'I' for Inactive)
REMARK    1  A    between atoms: C_2  and  C_3 
REMARK    2  A    between atoms: C_3  and  O_4 
REMARK    3  A    between atoms: O_4  and  C_5 
REMARK    4  A    between atoms: C_8  and  C_9 
REMARK    5  A    between atoms: C_13  and  C_14 
REMARK       I    between atoms: C_14  and  N_15 
REMARK    6  A    between atoms: N_15  and  N_16 
REMARK    7  A    between atoms: C_17  and  C_18 
REMARK    8  A    between atoms: C_20  and  O_21 
ROOT
HETATM    1  C   UNL     1       8.478  31.986  60.321  1.00  0.00     0.089 A 
HETATM    2  N   UNL     1       9.714  32.331  59.926  1.00  0.00    -0.174 NA
HETATM    3  N   UNL     1       9.938  31.592  58.827  1.00  0.00    -0.272 N 
HETATM    4  H   UNL     1      10.819  31.698  58.332  1.00  0.00     0.189 HD
HETATM    5  C   UNL     1       8.914  30.747  58.501  1.00  0.00     0.121 A 
HETATM    6  C   UNL     1       7.949  30.985  59.459  1.00  0.00     0.071 A 
ENDROOT
BRANCH   5   7
HETATM    7  C   UNL     1       8.982  29.871  57.356  1.00  0.00     0.289 C 
HETATM    8  N   UNL     1       8.310  28.669  57.525  1.00  0.00    -0.242 N 
HETATM    9  H   UNL     1       7.861  28.460  58.406  1.00  0.00     0.192 HD
HETATM   10  O   UNL     1       9.591  30.193  56.340  1.00  0.00    -0.264 OA
BRANCH   8  11
HETATM   11  N   UNL     1       8.225  27.762  56.510  1.00  0.00    -0.184 NA
HETATM   12  C   UNL     1       7.057  27.666  55.958  1.00  0.00     0.150 C 
BRANCH  12  13
HETATM   13  C   UNL     1       6.796  26.756  54.827  1.00  0.00    -0.014 A 
HETATM   14  C   UNL     1       6.496  27.262  53.556  1.00  0.00     0.049 A 
HETATM   15  C   UNL     1       6.235  26.383  52.505  1.00  0.00     0.069 A 
HETATM   16  C   UNL     1       6.280  25.004  52.738  1.00  0.00     0.037 A 
HETATM   17  C   UNL     1       6.580  24.500  54.005  1.00  0.00     0.004 A 
HETATM   18  C   UNL     1       6.839  25.377  55.055  1.00  0.00     0.013 A 
BRANCH  15  19
HETATM   19  O   UNL     1       5.924  26.734  51.221  1.00  0.00    -0.356 OA
HETATM   20  C   UNL     1       4.999  25.899  50.535  1.00  0.00     0.210 C 
ENDBRANCH  15  19
ENDBRANCH  12  13
ENDBRANCH   8  11
ENDBRANCH   5   7
BRANCH   1  21
HETATM   21  C   UNL     1       7.831  32.585  61.491  1.00  0.00    -0.005 A 
HETATM   22  C   UNL     1       6.684  33.378  61.346  1.00  0.00     0.016 A 
HETATM   23  C   UNL     1       6.039  33.923  62.463  1.00  0.00     0.037 A 
HETATM   24  C   UNL     1       6.529  33.680  63.744  1.00  0.00     0.068 A 
HETATM   25  C   UNL     1       7.686  32.913  63.895  1.00  0.00     0.037 A 
HETATM   26  C   UNL     1       8.333  32.368  62.779  1.00  0.00     0.016 A 
BRANCH  24  27
HETATM   27  O   UNL     1       5.979  34.137  64.911  1.00  0.00    -0.351 OA
BRANCH  27  28
HETATM   28  C   UNL     1       6.732  33.918  66.104  1.00  0.00     0.175 C 
BRANCH  28  29
HETATM   29  C   UNL     1       5.915  34.431  67.285  1.00  0.00     0.022 C 
HETATM   30  C   UNL     1       6.738  34.471  68.561  1.00  0.00     0.007 C 
ENDBRANCH  28  29
ENDBRANCH  27  28
ENDBRANCH  24  27
ENDBRANCH   1  21
TORSDOF 8
ENDMDL
MODEL 7
REMARK VINA RESULT:      -8.0      1.600      2.167
REMARK  8 active torsions:
REMARK  status: ('A' for Active; 'I' for Inactive)
REMARK    1  A    between atoms: C_2  and  C_3 
REMARK    2  A    between atoms: C_3  and  O_4 
REMARK    3  A    between atoms: O_4  and  C_5 
REMARK    4  A    between atoms: C_8  and  C_9 
REMARK    5  A    between atoms: C_13  and  C_14 
REMARK       I    between atoms: C_14  and  N_15 
REMARK    6  A    between atoms: N_15  and  N_16 
REMARK    7  A    between atoms: C_17  and  C_18 
REMARK    8  A    between atoms: C_20  and  O_21 
ROOT
HETATM    1  C   UNL     1       7.819  28.226  57.402  1.00  0.00     0.089 A 
HETATM    2  N   UNL     1       9.001  28.782  57.711  1.00  0.00    -0.174 NA
HETATM    3  N   UNL     1       8.686  29.961  58.269  1.00  0.00    -0.272 N 
HETATM    4  H   UNL     1       9.433  30.563  58.606  1.00  0.00     0.189 HD
HETATM    5  C   UNL     1       7.345  30.223  58.311  1.00  0.00     0.121 A 
HETATM    6  C   UNL     1       6.757  29.107  57.751  1.00  0.00     0.071 A 
ENDROOT
BRANCH   5   7
HETATM    7  C   UNL     1       6.822  31.447  58.867  1.00  0.00     0.289 C 
HETATM    8  N   UNL     1       6.833  31.486  60.254  1.00  0.00    -0.242 N 
HETATM    9  H   UNL     1       7.153  30.686  60.780  1.00  0.00     0.192 HD
HETATM   10  O   UNL     1       6.412  32.353  58.147  1.00  0.00    -0.264 OA
BRANCH   8  11
HETATM   11  N   UNL     1       6.433  32.602  60.930  1.00  0.00    -0.184 NA
HETATM   12  C   UNL     1       5.366  32.454  61.648  1.00  0.00     0.150 C 
BRANCH  12  13
HETATM   13  C   UNL     1       4.812  33.549  62.466  1.00  0.00    -0.014 A 
HETATM   14  C   UNL     1       5.266  33.767  63.772  1.00  0.00     0.049 A 
HETATM   15  C   UNL     1       4.716  34.797  64.534  1.00  0.00     0.069 A 
HETATM   16  C   UNL     1       3.717  35.603  63.978  1.00  0.00     0.037 A 
HETATM   17  C   UNL     1       3.265  35.387  62.674  1.00  0.00     0.004 A 
HETATM   18  C   UNL     1       3.813  34.356  61.913  1.00  0.00     0.013 A 
BRANCH  15  19
HETATM   19  O   UNL     1       5.057  35.118  65.819  1.00  0.00    -0.356 OA
HETATM   20  C   UNL     1       4.727  34.168  66.825  1.00  0.00     0.210 C 
ENDBRANCH  15  19
ENDBRANCH  12  13
ENDBRANCH   8  11
ENDBRANCH   5   7
BRANCH   1  21
HETATM   21  C   UNL     1       7.710  26.903  56.783  1.00  0.00    -0.005 A 
HETATM   22  C   UNL     1       8.042  25.747  57.503  1.00  0.00     0.016 A 
HETATM   23  C   UNL     1       7.906  24.476  56.931  1.00  0.00     0.037 A 
HETATM   24  C   UNL     1       7.430  24.342  55.628  1.00  0.00     0.068 A 
HETATM   25  C   UNL     1       7.122  25.489  54.895  1.00  0.00     0.037 A 
HETATM   26  C   UNL     1       7.260  26.761  55.466  1.00  0.00     0.016 A 
BRANCH  24  27
HETATM   27  O   UNL     1       7.233  23.160  54.966  1.00  0.00    -0.351 OA
BRANCH  27  28
HETATM   28  C   UNL     1       7.715  21.979  55.607  1.00  0.00     0.175 C 
BRANCH  28  29
HETATM   29  C   UNL     1       8.568  21.207  54.607  1.00  0.00     0.022 C 
HETATM   30  C   UNL     1       8.130  21.466  53.177  1.00  0.00     0.007 C 
ENDBRANCH  28  29
ENDBRANCH  27  28
ENDBRANCH  24  27
ENDBRANCH   1  21
TORSDOF 8
ENDMDL
MODEL 8
REMARK VINA RESULT:      -7.8      3.083      3.547
REMARK  8 active torsions:
REMARK  status: ('A' for Active; 'I' for Inactive)
REMARK    1  A    between atoms: C_2  and  C_3 
REMARK    2  A    between atoms: C_3  and  O_4 
REMARK    3  A    between atoms: O_4  and  C_5 
REMARK    4  A    between atoms: C_8  and  C_9 
REMARK    5  A    between atoms: C_13  and  C_14 
REMARK       I    between atoms: C_14  and  N_15 
REMARK    6  A    between atoms: N_15  and  N_16 
REMARK    7  A    between atoms: C_17  and  C_18 
REMARK    8  A    between atoms: C_20  and  O_21 
ROOT
HETATM    1  C   UNL     1       5.928  26.925  56.426  1.00  0.00     0.089 A 
HETATM    2  N   UNL     1       4.596  26.942  56.261  1.00  0.00    -0.174 NA
HETATM    3  N   UNL     1       4.215  28.156  56.691  1.00  0.00    -0.272 N 
HETATM    4  H   UNL     1       3.232  28.410  56.644  1.00  0.00     0.189 HD
HETATM    5  C   UNL     1       5.238  28.929  57.166  1.00  0.00     0.121 A 
HETATM    6  C   UNL     1       6.366  28.150  57.004  1.00  0.00     0.071 A 
ENDROOT
BRANCH   5   7
HETATM    7  C   UNL     1       5.015  30.260  57.677  1.00  0.00     0.289 C 
HETATM    8  N   UNL     1       3.753  30.452  58.220  1.00  0.00    -0.242 N 
HETATM    9  H   UNL     1       3.074  29.704  58.199  1.00  0.00     0.192 HD
HETATM   10  O   UNL     1       5.888  31.121  57.620  1.00  0.00    -0.264 OA
BRANCH   8  11
HETATM   11  N   UNL     1       3.411  31.636  58.805  1.00  0.00    -0.184 NA
HETATM   12  C   UNL     1       3.655  31.709  60.075  1.00  0.00     0.150 C 
BRANCH  12  13
HETATM   13  C   UNL     1       3.375  32.927  60.859  1.00  0.00    -0.014 A 
HETATM   14  C   UNL     1       3.232  32.864  62.250  1.00  0.00     0.049 A 
HETATM   15  C   UNL     1       2.950  34.025  62.970  1.00  0.00     0.069 A 
HETATM   16  C   UNL     1       2.818  35.239  62.288  1.00  0.00     0.037 A 
HETATM   17  C   UNL     1       2.964  35.302  60.901  1.00  0.00     0.004 A 
HETATM   18  C   UNL     1       3.243  34.142  60.181  1.00  0.00     0.013 A 
BRANCH  15  19
HETATM   19  O   UNL     1       2.777  34.110  64.324  1.00  0.00    -0.356 OA
HETATM   20  C   UNL     1       3.685  34.946  65.033  1.00  0.00     0.210 C 
ENDBRANCH  15  19
ENDBRANCH  12  13
ENDBRANCH   8  11
ENDBRANCH   5   7
BRANCH   1  21
HETATM   21  C   UNL     1       6.752  25.772  56.055  1.00  0.00    -0.005 A 
HETATM   22  C   UNL     1       7.038  25.501  54.710  1.00  0.00     0.016 A 
HETATM   23  C   UNL     1       7.855  24.422  54.350  1.00  0.00     0.037 A 
HETATM   24  C   UNL     1       8.403  23.599  55.332  1.00  0.00     0.068 A 
HETATM   25  C   UNL     1       8.102  23.847  56.672  1.00  0.00     0.037 A 
HETATM   26  C   UNL     1       7.284  24.924  57.034  1.00  0.00     0.016 A 
BRANCH  24  27
HETATM   27  O   UNL     1       9.230  22.532  55.110  1.00  0.00    -0.351 OA
BRANCH  27  28
HETATM   28  C   UNL     1       8.837  21.286  55.687  1.00  0.00     0.175 C 
BRANCH  28  29
HETATM   29  C   UNL     1       8.837  20.230  54.588  1.00  0.00     0.022 C 
HETATM   30  C   UNL     1       8.078  20.698  53.359  1.00  0.00     0.007 C 
ENDBRANCH  28  29
ENDBRANCH  27  28
ENDBRANCH  24  27
ENDBRANCH   1  21
TORSDOF 8
ENDMDL
MODEL 9
REMARK VINA RESULT:      -7.7      3.751     11.669
REMARK  8 active torsions:
REMARK  status: ('A' for Active; 'I' for Inactive)
REMARK    1  A    between atoms: C_2  and  C_3 
REMARK    2  A    between atoms: C_3  and  O_4 
REMARK    3  A    between atoms: O_4  and  C_5 
REMARK    4  A    between atoms: C_8  and  C_9 
REMARK    5  A    between atoms: C_13  and  C_14 
REMARK       I    between atoms: C_14  and  N_15 
REMARK    6  A    between atoms: N_15  and  N_16 
REMARK    7  A    between atoms: C_17  and  C_18 
REMARK    8  A    between atoms: C_20  and  O_21 
ROOT
HETATM    1  C   UNL     1       8.432  30.087  58.531  1.00  0.00     0.089 A 
HETATM    2  N   UNL     1       9.535  30.099  57.767  1.00  0.00    -0.174 NA
HETATM    3  N   UNL     1       9.220  29.343  56.703  1.00  0.00    -0.272 N 
HETATM    4  H   UNL     1       9.907  29.219  55.964  1.00  0.00     0.189 HD
HETATM    5  C   UNL     1       7.964  28.804  56.750  1.00  0.00     0.121 A 
HETATM    6  C   UNL     1       7.429  29.274  57.932  1.00  0.00     0.071 A 
ENDROOT
BRANCH   5   7
HETATM    7  C   UNL     1       7.456  27.957  55.697  1.00  0.00     0.289 C 
HETATM    8  N   UNL     1       7.066  28.646  54.558  1.00  0.00    -0.242 N 
HETATM    9  H   UNL     1       7.117  29.655  54.534  1.00  0.00     0.192 HD
HETATM   10  O   UNL     1       7.390  26.739  55.834  1.00  0.00    -0.264 OA
BRANCH   8  11
HETATM   11  N   UNL     1       6.627  27.982  53.451  1.00  0.00    -0.184 NA
HETATM   12  C   UNL     1       5.719  28.601  52.765  1.00  0.00     0.150 C 
BRANCH  12  13
HETATM   13  C   UNL     1       5.155  28.041  51.522  1.00  0.00    -0.014 A 
HETATM   14  C   UNL     1       4.316  28.809  50.708  1.00  0.00     0.049 A 
HETATM   15  C   UNL     1       3.779  28.253  49.547  1.00  0.00     0.069 A 
HETATM   16  C   UNL     1       4.092  26.932  49.211  1.00  0.00     0.037 A 
HETATM   17  C   UNL     1       4.931  26.166  50.023  1.00  0.00     0.004 A 
HETATM   18  C   UNL     1       5.466  26.720  51.184  1.00  0.00     0.013 A 
BRANCH  15  19
HETATM   19  O   UNL     1       2.943  28.882  48.665  1.00  0.00    -0.356 OA
HETATM   20  C   UNL     1       1.549  28.799  48.935  1.00  0.00     0.210 C 
ENDBRANCH  15  19
ENDBRANCH  12  13
ENDBRANCH   8  11
ENDBRANCH   5   7
BRANCH   1  21
HETATM   21  C   UNL     1       8.345  30.819  59.797  1.00  0.00    -0.005 A 
HETATM   22  C   UNL     1       7.283  31.701  60.042  1.00  0.00     0.016 A 
HETATM   23  C   UNL     1       7.173  32.376  61.264  1.00  0.00     0.037 A 
HETATM   24  C   UNL     1       8.123  32.175  62.264  1.00  0.00     0.068 A 
HETATM   25  C   UNL     1       9.197  31.318  62.018  1.00  0.00     0.037 A 
HETATM   26  C   UNL     1       9.310  30.644  60.796  1.00  0.00     0.016 A 
BRANCH  24  27
HETATM   27  O   UNL     1       8.115  32.757  63.502  1.00  0.00    -0.351 OA
BRANCH  27  28
HETATM   28  C   UNL     1       6.840  33.107  64.038  1.00  0.00     0.175 C 
BRANCH  28  29
HETATM   29  C   UNL     1       7.060  33.837  65.359  1.00  0.00     0.022 C 
HETATM   30  C   UNL     1       5.754  34.068  66.097  1.00  0.00     0.007 C 
ENDBRANCH  28  29
ENDBRANCH  27  28
ENDBRANCH  24  27
ENDBRANCH   1  21
TORSDOF 8
ENDMDL
MODEL 10
REMARK VINA RESULT:      -7.6      5.096     12.386
REMARK  8 active torsions:
REMARK  status: ('A' for Active; 'I' for Inactive)
REMARK    1  A    between atoms: C_2  and  C_3 
REMARK    2  A    between atoms: C_3  and  O_4 
REMARK    3  A    between atoms: O_4  and  C_5 
REMARK    4  A    between atoms: C_8  and  C_9 
REMARK    5  A    between atoms: C_13  and  C_14 
REMARK       I    between atoms: C_14  and  N_15 
REMARK    6  A    between atoms: N_15  and  N_16 
REMARK    7  A    between atoms: C_17  and  C_18 
REMARK    8  A    between atoms: C_20  and  O_21 
ROOT
HETATM    1  C   UNL     1       7.360  29.235  56.140  1.00  0.00     0.089 A 
HETATM    2  N   UNL     1       8.364  29.004  55.279  1.00  0.00    -0.174 NA
HETATM    3  N   UNL     1       7.791  28.348  54.257  1.00  0.00    -0.272 N 
HETATM    4  H   UNL     1       8.362  28.079  53.460  1.00  0.00     0.189 HD
HETATM    5  C   UNL     1       6.456  28.105  54.423  1.00  0.00     0.121 A 
HETATM    6  C   UNL     1       6.150  28.674  55.643  1.00  0.00     0.071 A 
ENDROOT
BRANCH   5   7
HETATM    7  C   UNL     1       5.677  27.404  53.431  1.00  0.00     0.289 C 
HETATM    8  N   UNL     1       5.984  27.751  52.124  1.00  0.00    -0.242 N 
HETATM    9  H   UNL     1       6.675  28.466  51.939  1.00  0.00     0.192 HD
HETATM   10  O   UNL     1       4.825  26.581  53.753  1.00  0.00    -0.264 OA
BRANCH   8  11
HETATM   11  N   UNL     1       5.383  27.128  51.070  1.00  0.00    -0.184 NA
HETATM   12  C   UNL     1       4.568  27.868  50.389  1.00  0.00     0.150 C 
BRANCH  12  13
HETATM   13  C   UNL     1       3.855  27.363  49.200  1.00  0.00    -0.014 A 
HETATM   14  C   UNL     1       2.993  28.195  48.476  1.00  0.00     0.049 A 
HETATM   15  C   UNL     1       2.316  27.691  47.366  1.00  0.00     0.069 A 
HETATM   16  C   UNL     1       2.511  26.358  46.990  1.00  0.00     0.037 A 
HETATM   17  C   UNL     1       3.373  25.529  47.711  1.00  0.00     0.004 A 
HETATM   18  C   UNL     1       4.048  26.030  48.822  1.00  0.00     0.013 A 
BRANCH  15  19
HETATM   19  O   UNL     1       1.442  28.384  46.573  1.00  0.00    -0.356 OA
HETATM   20  C   UNL     1       0.869  29.560  47.130  1.00  0.00     0.210 C 
ENDBRANCH  15  19
ENDBRANCH  12  13
ENDBRANCH   8  11
ENDBRANCH   5   7
BRANCH   1  21
HETATM   21  C   UNL     1       7.555  29.956  57.399  1.00  0.00    -0.005 A 
HETATM   22  C   UNL     1       8.715  29.762  58.163  1.00  0.00     0.016 A 
HETATM   23  C   UNL     1       8.926  30.476  59.348  1.00  0.00     0.037 A 
HETATM   24  C   UNL     1       7.980  31.400  59.788  1.00  0.00     0.068 A 
HETATM   25  C   UNL     1       6.810  31.580  59.048  1.00  0.00     0.037 A 
HETATM   26  C   UNL     1       6.597  30.866  57.863  1.00  0.00     0.016 A 
BRANCH  24  27
HETATM   27  O   UNL     1       8.079  32.171  60.915  1.00  0.00    -0.351 OA
BRANCH  27  28
HETATM   28  C   UNL     1       7.579  31.604  62.125  1.00  0.00     0.175 C 
BRANCH  28  29
HETATM   29  C   UNL     1       8.170  32.382  63.296  1.00  0.00     0.022 C 
HETATM   30  C   UNL     1       7.097  33.116  64.081  1.00  0.00     0.007 C 
ENDBRANCH  28  29
ENDBRANCH  27  28
ENDBRANCH  24  27
ENDBRANCH   1  21
TORSDOF 8
ENDMDL
