MODEL 1
REMARK VINA RESULT:     -10.2      0.000      0.000
REMARK  6 active torsions:
REMARK  status: ('A' for Active; 'I' for Inactive)
REMARK    1  A    between atoms: C_2  and  O_3 
REMARK    2  A    between atoms: C_2  and  C_4 
REMARK    3  A    between atoms: C_6  and  N_7 
REMARK       I    between atoms: N_7  and  C_8 
REMARK    4  A    between atoms: C_8  and  C_9 
REMARK    5  A    between atoms: C_12  and  C_13 
REMARK    6  A    between atoms: C_18  and  C_19 
ROOT
HETATM    1  C   UNL     1       7.206  27.459  55.876  1.00  0.00     0.096 C 
HETATM    2  C   UNL     1       7.113  26.183  55.352  1.00  0.00     0.138 C 
HETATM    3  N   UNL     1       6.410  26.311  54.175  1.00  0.00    -0.240 N 
HETATM    4  C   UNL     1       6.049  25.205  53.306  1.00  0.00     0.221 C 
HETATM    5  C   UNL     1       6.866  23.951  53.661  1.00  0.00     0.068 C 
HETATM    6  C   UNL     1       6.934  23.763  55.180  1.00  0.00     0.143 C 
HETATM    7  N   UNL     1       7.546  24.964  55.782  1.00  0.00    -0.363 N 
HETATM    8  N   UNL     1       5.892  27.535  53.996  1.00  0.00    -0.181 NA
HETATM    9  C   UNL     1       6.403  28.239  55.009  1.00  0.00     0.160 C 
HETATM   10  H   UNL     1       7.659  24.838  56.792  1.00  0.00     0.162 HD
ENDROOT
BRANCH   1  11
HETATM   11  C   UNL     1       7.908  27.934  57.058  1.00  0.00     0.261 C 
HETATM   12  N   UNL     1       7.934  29.311  57.165  1.00  0.00    -0.323 N 
HETATM   13  H   UNL     1       7.389  29.811  56.470  1.00  0.00     0.169 HD
HETATM   14  O   UNL     1       8.373  27.136  57.863  1.00  0.00    -0.267 OA
BRANCH  12  15
HETATM   15  C   UNL     1       8.527  30.088  58.180  1.00  0.00     0.035 A 
HETATM   16  C   UNL     1       8.093  30.096  59.509  1.00  0.00     0.039 A 
HETATM   17  C   UNL     1       8.722  30.904  60.474  1.00  0.00    -0.028 A 
HETATM   18  C   UNL     1       9.793  31.718  60.082  1.00  0.00     0.010 A 
HETATM   19  C   UNL     1      10.241  31.708  58.762  1.00  0.00     0.003 A 
HETATM   20  C   UNL     1       9.612  30.895  57.818  1.00  0.00     0.029 A 
BRANCH  17  21
HETATM   21  C   UNL     1       8.208  30.912  61.899  1.00  0.00     0.147 C 
HETATM   22  C   UNL     1       8.494  32.231  62.602  1.00  0.00     0.044 C 
BRANCH  21  23
HETATM   23  O   UNL     1       8.803  29.852  62.646  1.00  0.00    -0.391 OA
HETATM   24  H   UNL     1       8.841  30.151  63.571  1.00  0.00     0.210 HD
ENDBRANCH  21  23
ENDBRANCH  17  21
ENDBRANCH  12  15
ENDBRANCH   1  11
BRANCH   4  25
HETATM   25  C   UNL     1       6.253  25.547  51.846  1.00  0.00     0.409 C 
HETATM   26  F   UNL     1       6.389  26.867  51.612  1.00  0.00    -0.169 F 
HETATM   27  F   UNL     1       7.319  24.907  51.313  1.00  0.00    -0.169 F 
HETATM   28  F   UNL     1       5.166  25.147  51.131  1.00  0.00    -0.169 F 
ENDBRANCH   4  25
BRANCH   6  29
HETATM   29  C   UNL     1       7.667  22.502  55.505  1.00  0.00     0.075 A 
HETATM   30  O   UNL     1       7.649  21.528  54.549  1.00  0.00    -0.325 OA
HETATM   31  C   UNL     1       8.376  20.486  55.028  1.00  0.00     0.142 A 
HETATM   32  C   UNL     1       8.864  20.776  56.281  1.00  0.00     0.027 A 
HETATM   33  C   UNL     1       8.408  22.079  56.591  1.00  0.00     0.037 A 
ENDBRANCH   6  29
TORSDOF 6
ENDMDL
MODEL 2
REMARK VINA RESULT:     -10.1      2.601      4.475
REMARK  6 active torsions:
REMARK  status: ('A' for Active; 'I' for Inactive)
REMARK    1  A    between atoms: C_2  and  O_3 
REMARK    2  A    between atoms: C_2  and  C_4 
REMARK    3  A    between atoms: C_6  and  N_7 
REMARK       I    between atoms: N_7  and  C_8 
REMARK    4  A    between atoms: C_8  and  C_9 
REMARK    5  A    between atoms: C_12  and  C_13 
REMARK    6  A    between atoms: C_18  and  C_19 
ROOT
HETATM    1  C   UNL     1       8.266  25.191  56.544  1.00  0.00     0.096 C 
HETATM    2  C   UNL     1       7.905  24.991  55.225  1.00  0.00     0.138 C 
HETATM    3  N   UNL     1       8.421  23.762  54.876  1.00  0.00    -0.240 N 
HETATM    4  C   UNL     1       8.308  23.165  53.557  1.00  0.00     0.221 C 
HETATM    5  C   UNL     1       7.233  23.887  52.728  1.00  0.00     0.068 C 
HETATM    6  C   UNL     1       7.355  25.406  52.891  1.00  0.00     0.143 C 
HETATM    7  N   UNL     1       7.216  25.745  54.321  1.00  0.00    -0.363 N 
HETATM    8  N   UNL     1       9.232  23.243  55.810  1.00  0.00    -0.181 NA
HETATM    9  C   UNL     1       9.110  24.093  56.834  1.00  0.00     0.160 C 
HETATM   10  H   UNL     1       7.233  26.760  54.450  1.00  0.00     0.162 HD
ENDROOT
BRANCH   1  11
HETATM   11  C   UNL     1       7.924  26.276  57.451  1.00  0.00     0.261 C 
HETATM   12  N   UNL     1       7.978  27.524  56.858  1.00  0.00    -0.323 N 
HETATM   13  H   UNL     1       8.154  27.522  55.859  1.00  0.00     0.169 HD
HETATM   14  O   UNL     1       7.588  26.036  58.604  1.00  0.00    -0.267 OA
BRANCH  12  15
HETATM   15  C   UNL     1       7.708  28.774  57.450  1.00  0.00     0.035 A 
HETATM   16  C   UNL     1       8.662  29.534  58.133  1.00  0.00     0.039 A 
HETATM   17  C   UNL     1       8.325  30.772  58.711  1.00  0.00    -0.028 A 
HETATM   18  C   UNL     1       7.006  31.234  58.603  1.00  0.00     0.010 A 
HETATM   19  C   UNL     1       6.052  30.489  57.914  1.00  0.00     0.003 A 
HETATM   20  C   UNL     1       6.403  29.266  57.338  1.00  0.00     0.029 A 
BRANCH  17  21
HETATM   21  C   UNL     1       9.374  31.557  59.470  1.00  0.00     0.147 C 
HETATM   22  C   UNL     1       8.756  32.476  60.514  1.00  0.00     0.044 C 
BRANCH  21  23
HETATM   23  O   UNL     1      10.155  32.341  58.569  1.00  0.00    -0.391 OA
HETATM   24  H   UNL     1      10.866  31.763  58.243  1.00  0.00     0.210 HD
ENDBRANCH  21  23
ENDBRANCH  17  21
ENDBRANCH  12  15
ENDBRANCH   1  11
BRANCH   4  25
HETATM   25  C   UNL     1       7.982  21.690  53.635  1.00  0.00     0.409 C 
HETATM   26  F   UNL     1       7.303  21.341  54.746  1.00  0.00    -0.169 F 
HETATM   27  F   UNL     1       7.287  21.260  52.557  1.00  0.00    -0.169 F 
HETATM   28  F   UNL     1       9.138  20.971  53.660  1.00  0.00    -0.169 F 
ENDBRANCH   4  25
BRANCH   6  29
HETATM   29  C   UNL     1       6.353  26.094  52.022  1.00  0.00     0.075 A 
HETATM   30  O   UNL     1       6.243  27.446  52.176  1.00  0.00    -0.325 OA
HETATM   31  C   UNL     1       5.303  27.872  51.295  1.00  0.00     0.142 A 
HETATM   32  C   UNL     1       4.805  26.813  50.572  1.00  0.00     0.027 A 
HETATM   33  C   UNL     1       5.483  25.663  51.040  1.00  0.00     0.037 A 
ENDBRANCH   6  29
TORSDOF 6
ENDMDL
MODEL 3
REMARK VINA RESULT:      -9.9      3.310      8.445
REMARK  6 active torsions:
REMARK  status: ('A' for Active; 'I' for Inactive)
REMARK    1  A    between atoms: C_2  and  O_3 
REMARK    2  A    between atoms: C_2  and  C_4 
REMARK    3  A    between atoms: C_6  and  N_7 
REMARK       I    between atoms: N_7  and  C_8 
REMARK    4  A    between atoms: C_8  and  C_9 
REMARK    5  A    between atoms: C_12  and  C_13 
REMARK    6  A    between atoms: C_18  and  C_19 
ROOT
HETATM    1  C   UNL     1       6.488  28.386  56.174  1.00  0.00     0.096 C 
HETATM    2  C   UNL     1       6.605  29.438  57.063  1.00  0.00     0.138 C 
HETATM    3  N   UNL     1       5.560  30.288  56.780  1.00  0.00    -0.240 N 
HETATM    4  C   UNL     1       5.316  31.550  57.457  1.00  0.00     0.221 C 
HETATM    5  C   UNL     1       6.130  31.629  58.760  1.00  0.00     0.068 C 
HETATM    6  C   UNL     1       7.559  31.124  58.535  1.00  0.00     0.143 C 
HETATM    7  N   UNL     1       7.502  29.732  58.048  1.00  0.00    -0.363 N 
HETATM    8  N   UNL     1       4.891  29.954  55.666  1.00  0.00    -0.181 NA
HETATM    9  C   UNL     1       5.432  28.783  55.319  1.00  0.00     0.160 C 
HETATM   10  H   UNL     1       8.447  29.351  57.948  1.00  0.00     0.162 HD
ENDROOT
BRANCH   1  11
HETATM   11  C   UNL     1       7.266  27.162  56.068  1.00  0.00     0.261 C 
HETATM   12  N   UNL     1       6.795  26.293  55.103  1.00  0.00    -0.323 N 
HETATM   13  H   UNL     1       6.034  26.649  54.533  1.00  0.00     0.169 HD
HETATM   14  O   UNL     1       8.259  26.998  56.767  1.00  0.00    -0.267 OA
BRANCH  12  15
HETATM   15  C   UNL     1       7.313  25.031  54.748  1.00  0.00     0.035 A 
HETATM   16  C   UNL     1       7.633  24.032  55.672  1.00  0.00     0.039 A 
HETATM   17  C   UNL     1       8.159  22.797  55.253  1.00  0.00    -0.028 A 
HETATM   18  C   UNL     1       8.369  22.579  53.884  1.00  0.00     0.010 A 
HETATM   19  C   UNL     1       8.041  23.564  52.955  1.00  0.00     0.003 A 
HETATM   20  C   UNL     1       7.513  24.782  53.385  1.00  0.00     0.029 A 
BRANCH  17  21
HETATM   21  C   UNL     1       8.523  21.747  56.282  1.00  0.00     0.147 C 
HETATM   22  C   UNL     1       7.758  20.449  56.069  1.00  0.00     0.044 C 
BRANCH  21  23
HETATM   23  O   UNL     1       8.257  22.229  57.598  1.00  0.00    -0.391 OA
HETATM   24  H   UNL     1       7.708  23.025  57.497  1.00  0.00     0.210 HD
ENDBRANCH  21  23
ENDBRANCH  17  21
ENDBRANCH  12  15
ENDBRANCH   1  11
BRANCH   4  25
HETATM   25  C   UNL     1       3.848  31.749  57.763  1.00  0.00     0.409 C 
HETATM   26  F   UNL     1       3.147  32.277  56.740  1.00  0.00    -0.169 F 
HETATM   27  F   UNL     1       3.243  30.601  58.147  1.00  0.00    -0.169 F 
HETATM   28  F   UNL     1       3.715  32.621  58.800  1.00  0.00    -0.169 F 
ENDBRANCH   4  25
BRANCH   6  29
HETATM   29  C   UNL     1       8.356  31.277  59.790  1.00  0.00     0.075 A 
HETATM   30  O   UNL     1       8.637  30.130  60.473  1.00  0.00    -0.325 OA
HETATM   31  C   UNL     1       9.373  30.482  61.558  1.00  0.00     0.142 A 
HETATM   32  C   UNL     1       9.571  31.843  61.584  1.00  0.00     0.027 A 
HETATM   33  C   UNL     1       8.915  32.359  60.442  1.00  0.00     0.037 A 
ENDBRANCH   6  29
TORSDOF 6
ENDMDL
MODEL 4
REMARK VINA RESULT:      -9.5      4.489      8.545
REMARK  6 active torsions:
REMARK  status: ('A' for Active; 'I' for Inactive)
REMARK    1  A    between atoms: C_2  and  O_3 
REMARK    2  A    between atoms: C_2  and  C_4 
REMARK    3  A    between atoms: C_6  and  N_7 
REMARK       I    between atoms: N_7  and  C_8 
REMARK    4  A    between atoms: C_8  and  C_9 
REMARK    5  A    between atoms: C_12  and  C_13 
REMARK    6  A    between atoms: C_18  and  C_19 
ROOT
HETATM    1  C   UNL     1       5.964  27.095  52.638  1.00  0.00     0.096 C 
HETATM    2  C   UNL     1       6.534  26.123  53.439  1.00  0.00     0.138 C 
HETATM    3  N   UNL     1       6.788  26.734  54.647  1.00  0.00    -0.240 N 
HETATM    4  C   UNL     1       7.420  26.085  55.782  1.00  0.00     0.221 C 
HETATM    5  C   UNL     1       7.420  24.558  55.601  1.00  0.00     0.068 C 
HETATM    6  C   UNL     1       7.813  24.185  54.167  1.00  0.00     0.143 C 
HETATM    7  N   UNL     1       6.860  24.815  53.232  1.00  0.00    -0.363 N 
HETATM    8  N   UNL     1       6.591  28.060  54.623  1.00  0.00    -0.181 NA
HETATM    9  C   UNL     1       6.059  28.273  53.416  1.00  0.00     0.160 C 
HETATM   10  H   UNL     1       7.064  24.531  52.270  1.00  0.00     0.162 HD
ENDROOT
BRANCH   1  11
HETATM   11  C   UNL     1       5.422  26.994  51.292  1.00  0.00     0.261 C 
HETATM   12  N   UNL     1       4.939  28.193  50.803  1.00  0.00    -0.323 N 
HETATM   13  H   UNL     1       5.104  29.000  51.396  1.00  0.00     0.169 HD
HETATM   14  O   UNL     1       5.460  25.929  50.688  1.00  0.00    -0.267 OA
BRANCH  12  15
HETATM   15  C   UNL     1       4.353  28.441  49.546  1.00  0.00     0.035 A 
HETATM   16  C   UNL     1       3.214  27.781  49.074  1.00  0.00     0.039 A 
HETATM   17  C   UNL     1       2.685  28.067  47.802  1.00  0.00    -0.028 A 
HETATM   18  C   UNL     1       3.324  29.024  47.001  1.00  0.00     0.010 A 
HETATM   19  C   UNL     1       4.451  29.696  47.469  1.00  0.00     0.003 A 
HETATM   20  C   UNL     1       4.961  29.407  48.736  1.00  0.00     0.029 A 
BRANCH  17  21
HETATM   21  C   UNL     1       1.468  27.313  47.307  1.00  0.00     0.147 C 
HETATM   22  C   UNL     1       0.501  28.218  46.559  1.00  0.00     0.044 C 
BRANCH  21  23
HETATM   23  O   UNL     1       0.781  26.708  48.402  1.00  0.00    -0.391 OA
HETATM   24  H   UNL     1       0.063  27.316  48.650  1.00  0.00     0.210 HD
ENDBRANCH  21  23
ENDBRANCH  17  21
ENDBRANCH  12  15
ENDBRANCH   1  11
BRANCH   4  25
HETATM   25  C   UNL     1       6.738  26.441  57.085  1.00  0.00     0.409 C 
HETATM   26  F   UNL     1       7.117  27.632  57.589  1.00  0.00    -0.169 F 
HETATM   27  F   UNL     1       5.390  26.432  56.977  1.00  0.00    -0.169 F 
HETATM   28  F   UNL     1       7.056  25.515  58.031  1.00  0.00    -0.169 F 
ENDBRANCH   4  25
BRANCH   6  29
HETATM   29  C   UNL     1       7.880  22.698  54.028  1.00  0.00     0.075 A 
HETATM   30  O   UNL     1       7.784  21.977  55.183  1.00  0.00    -0.325 OA
HETATM   31  C   UNL     1       7.850  20.665  54.840  1.00  0.00     0.142 A 
HETATM   32  C   UNL     1       7.987  20.531  53.478  1.00  0.00     0.027 A 
HETATM   33  C   UNL     1       8.006  21.843  52.951  1.00  0.00     0.037 A 
ENDBRANCH   6  29
TORSDOF 6
ENDMDL
MODEL 5
REMARK VINA RESULT:      -9.5      4.045      9.046
REMARK  6 active torsions:
REMARK  status: ('A' for Active; 'I' for Inactive)
REMARK    1  A    between atoms: C_2  and  O_3 
REMARK    2  A    between atoms: C_2  and  C_4 
REMARK    3  A    between atoms: C_6  and  N_7 
REMARK       I    between atoms: N_7  and  C_8 
REMARK    4  A    between atoms: C_8  and  C_9 
REMARK    5  A    between atoms: C_12  and  C_13 
REMARK    6  A    between atoms: C_18  and  C_19 
ROOT
HETATM    1  C   UNL     1       5.601  26.093  53.429  1.00  0.00     0.096 C 
HETATM    2  C   UNL     1       6.146  26.338  54.675  1.00  0.00     0.138 C 
HETATM    3  N   UNL     1       6.615  25.124  55.126  1.00  0.00    -0.240 N 
HETATM    4  C   UNL     1       7.239  24.910  56.419  1.00  0.00     0.221 C 
HETATM    5  C   UNL     1       7.652  26.252  57.048  1.00  0.00     0.068 C 
HETATM    6  C   UNL     1       6.539  27.293  56.878  1.00  0.00     0.143 C 
HETATM    7  N   UNL     1       6.261  27.462  55.439  1.00  0.00    -0.363 N 
HETATM    8  N   UNL     1       6.252  24.094  54.348  1.00  0.00    -0.181 NA
HETATM    9  C   UNL     1       5.668  24.685  53.302  1.00  0.00     0.160 C 
HETATM   10  H   UNL     1       5.563  28.197  55.296  1.00  0.00     0.162 HD
ENDROOT
BRANCH   1  11
HETATM   11  C   UNL     1       5.037  27.018  52.458  1.00  0.00     0.261 C 
HETATM   12  N   UNL     1       5.321  26.681  51.149  1.00  0.00    -0.323 N 
HETATM   13  H   UNL     1       5.799  25.794  51.023  1.00  0.00     0.169 HD
HETATM   14  O   UNL     1       4.350  27.961  52.830  1.00  0.00    -0.267 OA
BRANCH  12  15
HETATM   15  C   UNL     1       4.930  27.358  49.977  1.00  0.00     0.035 A 
HETATM   16  C   UNL     1       3.935  26.901  49.108  1.00  0.00     0.039 A 
HETATM   17  C   UNL     1       3.598  27.620  47.946  1.00  0.00    -0.028 A 
HETATM   18  C   UNL     1       4.285  28.808  47.662  1.00  0.00     0.010 A 
HETATM   19  C   UNL     1       5.270  29.279  48.529  1.00  0.00     0.003 A 
HETATM   20  C   UNL     1       5.587  28.558  49.682  1.00  0.00     0.029 A 
BRANCH  17  21
HETATM   21  C   UNL     1       2.537  27.082  47.010  1.00  0.00     0.147 C 
HETATM   22  C   UNL     1       1.184  26.953  47.694  1.00  0.00     0.044 C 
BRANCH  21  23
HETATM   23  O   UNL     1       2.922  25.804  46.506  1.00  0.00    -0.391 OA
HETATM   24  H   UNL     1       2.533  25.141  47.102  1.00  0.00     0.210 HD
ENDBRANCH  21  23
ENDBRANCH  17  21
ENDBRANCH  12  15
ENDBRANCH   1  11
BRANCH   4  25
HETATM   25  C   UNL     1       8.448  24.006  56.317  1.00  0.00     0.409 C 
HETATM   26  F   UNL     1       8.219  22.744  56.733  1.00  0.00    -0.169 F 
HETATM   27  F   UNL     1       8.948  23.957  55.061  1.00  0.00    -0.169 F 
HETATM   28  F   UNL     1       9.443  24.488  57.110  1.00  0.00    -0.169 F 
ENDBRANCH   4  25
BRANCH   6  29
HETATM   29  C   UNL     1       6.925  28.566  57.559  1.00  0.00     0.075 A 
HETATM   30  O   UNL     1       8.047  28.523  58.334  1.00  0.00    -0.325 OA
HETATM   31  C   UNL     1       8.229  29.768  58.841  1.00  0.00     0.142 A 
HETATM   32  C   UNL     1       7.239  30.616  58.403  1.00  0.00     0.027 A 
HETATM   33  C   UNL     1       6.395  29.841  57.574  1.00  0.00     0.037 A 
ENDBRANCH   6  29
TORSDOF 6
ENDMDL
MODEL 6
REMARK VINA RESULT:      -9.3      2.057      2.629
REMARK  6 active torsions:
REMARK  status: ('A' for Active; 'I' for Inactive)
REMARK    1  A    between atoms: C_2  and  O_3 
REMARK    2  A    between atoms: C_2  and  C_4 
REMARK    3  A    between atoms: C_6  and  N_7 
REMARK       I    between atoms: N_7  and  C_8 
REMARK    4  A    between atoms: C_8  and  C_9 
REMARK    5  A    between atoms: C_12  and  C_13 
REMARK    6  A    between atoms: C_18  and  C_19 
ROOT
HETATM    1  C   UNL     1       5.157  28.219  55.115  1.00  0.00     0.096 C 
HETATM    2  C   UNL     1       5.419  27.074  54.386  1.00  0.00     0.138 C 
HETATM    3  N   UNL     1       4.763  27.234  53.186  1.00  0.00    -0.240 N 
HETATM    4  C   UNL     1       4.740  26.247  52.121  1.00  0.00     0.221 C 
HETATM    5  C   UNL     1       5.834  25.188  52.342  1.00  0.00     0.068 C 
HETATM    6  C   UNL     1       5.875  24.754  53.811  1.00  0.00     0.143 C 
HETATM    7  N   UNL     1       6.129  25.940  54.652  1.00  0.00    -0.363 N 
HETATM    8  N   UNL     1       3.958  28.306  53.160  1.00  0.00    -0.181 NA
HETATM    9  C   UNL     1       4.223  28.921  54.316  1.00  0.00     0.160 C 
HETATM   10  H   UNL     1       6.223  25.667  55.634  1.00  0.00     0.162 HD
ENDROOT
BRANCH   1  11
HETATM   11  C   UNL     1       5.657  28.631  56.417  1.00  0.00     0.261 C 
HETATM   12  N   UNL     1       5.782  30.001  56.548  1.00  0.00    -0.323 N 
HETATM   13  H   UNL     1       5.426  30.546  55.769  1.00  0.00     0.169 HD
HETATM   14  O   UNL     1       5.887  27.797  57.284  1.00  0.00    -0.267 OA
BRANCH  12  15
HETATM   15  C   UNL     1       6.233  30.725  57.670  1.00  0.00     0.035 A 
HETATM   16  C   UNL     1       7.571  30.783  58.072  1.00  0.00     0.039 A 
HETATM   17  C   UNL     1       7.955  31.515  59.211  1.00  0.00    -0.028 A 
HETATM   18  C   UNL     1       6.971  32.185  59.950  1.00  0.00     0.010 A 
HETATM   19  C   UNL     1       5.638  32.144  59.549  1.00  0.00     0.003 A 
HETATM   20  C   UNL     1       5.272  31.419  58.413  1.00  0.00     0.029 A 
BRANCH  17  21
HETATM   21  C   UNL     1       9.409  31.532  59.637  1.00  0.00     0.147 C 
HETATM   22  C   UNL     1       9.587  32.104  61.036  1.00  0.00     0.044 C 
BRANCH  21  23
HETATM   23  O   UNL     1      10.185  32.304  58.721  1.00  0.00    -0.391 OA
HETATM   24  H   UNL     1      11.111  32.033  58.845  1.00  0.00     0.210 HD
ENDBRANCH  21  23
ENDBRANCH  17  21
ENDBRANCH  12  15
ENDBRANCH   1  11
BRANCH   4  25
HETATM   25  C   UNL     1       4.918  26.884  50.760  1.00  0.00     0.409 C 
HETATM   26  F   UNL     1       3.800  27.463  50.281  1.00  0.00    -0.169 F 
HETATM   27  F   UNL     1       5.913  27.801  50.749  1.00  0.00    -0.169 F 
HETATM   28  F   UNL     1       5.265  25.928  49.854  1.00  0.00    -0.169 F 
ENDBRANCH   4  25
BRANCH   6  29
HETATM   29  C   UNL     1       6.891  23.673  53.994  1.00  0.00     0.075 A 
HETATM   30  O   UNL     1       7.557  23.272  52.872  1.00  0.00    -0.325 OA
HETATM   31  C   UNL     1       8.434  22.308  53.253  1.00  0.00     0.142 A 
HETATM   32  C   UNL     1       8.342  22.081  54.606  1.00  0.00     0.027 A 
HETATM   33  C   UNL     1       7.346  22.963  55.088  1.00  0.00     0.037 A 
ENDBRANCH   6  29
TORSDOF 6
ENDMDL
MODEL 7
REMARK VINA RESULT:      -9.1      2.884      4.590
REMARK  6 active torsions:
REMARK  status: ('A' for Active; 'I' for Inactive)
REMARK    1  A    between atoms: C_2  and  O_3 
REMARK    2  A    between atoms: C_2  and  C_4 
REMARK    3  A    between atoms: C_6  and  N_7 
REMARK       I    between atoms: N_7  and  C_8 
REMARK    4  A    between atoms: C_8  and  C_9 
REMARK    5  A    between atoms: C_12  and  C_13 
REMARK    6  A    between atoms: C_18  and  C_19 
ROOT
HETATM    1  C   UNL     1       7.445  26.644  56.762  1.00  0.00     0.096 C 
HETATM    2  C   UNL     1       7.286  26.172  55.472  1.00  0.00     0.138 C 
HETATM    3  N   UNL     1       7.947  24.964  55.430  1.00  0.00    -0.240 N 
HETATM    4  C   UNL     1       8.066  24.130  54.247  1.00  0.00     0.221 C 
HETATM    5  C   UNL     1       7.056  24.569  53.173  1.00  0.00     0.068 C 
HETATM    6  C   UNL     1       7.026  26.097  53.054  1.00  0.00     0.143 C 
HETATM    7  N   UNL     1       6.664  26.670  54.365  1.00  0.00    -0.363 N 
HETATM    8  N   UNL     1       8.664  24.713  56.535  1.00  0.00    -0.181 NA
HETATM    9  C   UNL     1       8.332  25.714  57.355  1.00  0.00     0.160 C 
HETATM   10  H   UNL     1       6.577  27.688  54.297  1.00  0.00     0.162 HD
ENDROOT
BRANCH   1  11
HETATM   11  C   UNL     1       6.892  27.830  57.395  1.00  0.00     0.261 C 
HETATM   12  N   UNL     1       7.855  28.676  57.912  1.00  0.00    -0.323 N 
HETATM   13  H   UNL     1       8.814  28.417  57.707  1.00  0.00     0.169 HD
HETATM   14  O   UNL     1       5.682  28.023  57.399  1.00  0.00    -0.267 OA
BRANCH  12  15
HETATM   15  C   UNL     1       7.661  29.900  58.583  1.00  0.00     0.035 A 
HETATM   16  C   UNL     1       6.604  30.775  58.318  1.00  0.00     0.039 A 
HETATM   17  C   UNL     1       6.473  31.989  59.017  1.00  0.00    -0.028 A 
HETATM   18  C   UNL     1       7.429  32.319  59.987  1.00  0.00     0.010 A 
HETATM   19  C   UNL     1       8.479  31.447  60.268  1.00  0.00     0.003 A 
HETATM   20  C   UNL     1       8.592  30.242  59.571  1.00  0.00     0.029 A 
BRANCH  17  21
HETATM   21  C   UNL     1       5.333  32.929  58.683  1.00  0.00     0.147 C 
HETATM   22  C   UNL     1       3.980  32.236  58.760  1.00  0.00     0.044 C 
BRANCH  21  23
HETATM   23  O   UNL     1       5.502  33.468  57.373  1.00  0.00    -0.391 OA
HETATM   24  H   UNL     1       6.460  33.521  57.216  1.00  0.00     0.210 HD
ENDBRANCH  21  23
ENDBRANCH  17  21
ENDBRANCH  12  15
ENDBRANCH   1  11
BRANCH   4  25
HETATM   25  C   UNL     1       7.859  22.666  54.569  1.00  0.00     0.409 C 
HETATM   26  F   UNL     1       8.995  22.014  54.887  1.00  0.00    -0.169 F 
HETATM   27  F   UNL     1       6.966  22.481  55.568  1.00  0.00    -0.169 F 
HETATM   28  F   UNL     1       7.353  22.029  53.477  1.00  0.00    -0.169 F 
ENDBRANCH   4  25
BRANCH   6  29
HETATM   29  C   UNL     1       6.096  26.503  51.956  1.00  0.00     0.075 A 
HETATM   30  O   UNL     1       5.828  27.837  51.853  1.00  0.00    -0.325 OA
HETATM   31  C   UNL     1       4.989  27.994  50.797  1.00  0.00     0.142 A 
HETATM   32  C   UNL     1       4.711  26.778  50.219  1.00  0.00     0.027 A 
HETATM   33  C   UNL     1       5.427  25.813  50.966  1.00  0.00     0.037 A 
ENDBRANCH   6  29
TORSDOF 6
ENDMDL
MODEL 8
REMARK VINA RESULT:      -8.9      5.848      9.338
REMARK  6 active torsions:
REMARK  status: ('A' for Active; 'I' for Inactive)
REMARK    1  A    between atoms: C_2  and  O_3 
REMARK    2  A    between atoms: C_2  and  C_4 
REMARK    3  A    between atoms: C_6  and  N_7 
REMARK       I    between atoms: N_7  and  C_8 
REMARK    4  A    between atoms: C_8  and  C_9 
REMARK    5  A    between atoms: C_12  and  C_13 
REMARK    6  A    between atoms: C_18  and  C_19 
ROOT
HETATM    1  C   UNL     1       5.033  26.794  50.439  1.00  0.00     0.096 C 
HETATM    2  C   UNL     1       4.853  28.008  49.801  1.00  0.00     0.138 C 
HETATM    3  N   UNL     1       4.002  27.755  48.748  1.00  0.00    -0.240 N 
HETATM    4  C   UNL     1       3.566  28.750  47.784  1.00  0.00     0.221 C 
HETATM    5  C   UNL     1       3.860  30.169  48.301  1.00  0.00     0.068 C 
HETATM    6  C   UNL     1       5.261  30.238  48.919  1.00  0.00     0.143 C 
HETATM    7  N   UNL     1       5.345  29.260  50.022  1.00  0.00    -0.363 N 
HETATM    8  N   UNL     1       3.768  26.449  48.556  1.00  0.00    -0.181 NA
HETATM    9  C   UNL     1       4.365  25.870  49.601  1.00  0.00     0.160 C 
HETATM   10  H   UNL     1       6.252  29.330  50.491  1.00  0.00     0.162 HD
ENDROOT
BRANCH   1  11
HETATM   11  C   UNL     1       5.764  26.480  51.656  1.00  0.00     0.261 C 
HETATM   12  N   UNL     1       5.797  25.128  51.943  1.00  0.00    -0.323 N 
HETATM   13  H   UNL     1       5.396  24.524  51.233  1.00  0.00     0.169 HD
HETATM   14  O   UNL     1       6.311  27.369  52.297  1.00  0.00    -0.267 OA
BRANCH  12  15
HETATM   15  C   UNL     1       6.416  24.492  53.038  1.00  0.00     0.035 A 
HETATM   16  C   UNL     1       7.372  23.480  52.912  1.00  0.00     0.039 A 
HETATM   17  C   UNL     1       7.944  22.877  54.047  1.00  0.00    -0.028 A 
HETATM   18  C   UNL     1       7.533  23.298  55.319  1.00  0.00     0.010 A 
HETATM   19  C   UNL     1       6.590  24.314  55.454  1.00  0.00     0.003 A 
HETATM   20  C   UNL     1       6.036  24.909  54.319  1.00  0.00     0.029 A 
BRANCH  17  21
HETATM   21  C   UNL     1       8.956  21.763  53.876  1.00  0.00     0.147 C 
HETATM   22  C   UNL     1       8.405  20.613  53.045  1.00  0.00     0.044 C 
BRANCH  21  23
HETATM   23  O   UNL     1       9.361  21.260  55.149  1.00  0.00    -0.391 OA
HETATM   24  H   UNL     1       9.369  22.019  55.757  1.00  0.00     0.210 HD
ENDBRANCH  21  23
ENDBRANCH  17  21
ENDBRANCH  12  15
ENDBRANCH   1  11
BRANCH   4  25
HETATM   25  C   UNL     1       2.092  28.621  47.470  1.00  0.00     0.409 C 
HETATM   26  F   UNL     1       1.807  27.634  46.597  1.00  0.00    -0.169 F 
HETATM   27  F   UNL     1       1.344  28.436  48.582  1.00  0.00    -0.169 F 
HETATM   28  F   UNL     1       1.648  29.772  46.894  1.00  0.00    -0.169 F 
ENDBRANCH   4  25
BRANCH   6  29
HETATM   29  C   UNL     1       5.559  31.638  49.349  1.00  0.00     0.075 A 
HETATM   30  O   UNL     1       5.338  31.928  50.664  1.00  0.00    -0.325 OA
HETATM   31  C   UNL     1       5.681  33.229  50.848  1.00  0.00     0.142 A 
HETATM   32  C   UNL     1       6.122  33.782  49.669  1.00  0.00     0.027 A 
HETATM   33  C   UNL     1       6.044  32.755  48.698  1.00  0.00     0.037 A 
ENDBRANCH   6  29
TORSDOF 6
ENDMDL
MODEL 9
REMARK VINA RESULT:      -8.9      5.176      9.509
REMARK  6 active torsions:
REMARK  status: ('A' for Active; 'I' for Inactive)
REMARK    1  A    between atoms: C_2  and  O_3 
REMARK    2  A    between atoms: C_2  and  C_4 
REMARK    3  A    between atoms: C_6  and  N_7 
REMARK       I    between atoms: N_7  and  C_8 
REMARK    4  A    between atoms: C_8  and  C_9 
REMARK    5  A    between atoms: C_12  and  C_13 
REMARK    6  A    between atoms: C_18  and  C_19 
ROOT
HETATM    1  C   UNL     1       5.023  28.438  51.933  1.00  0.00     0.096 C 
HETATM    2  C   UNL     1       5.694  27.645  52.846  1.00  0.00     0.138 C 
HETATM    3  N   UNL     1       5.580  28.290  54.058  1.00  0.00    -0.240 N 
HETATM    4  C   UNL     1       6.172  27.822  55.299  1.00  0.00     0.221 C 
HETATM    5  C   UNL     1       6.605  26.352  55.171  1.00  0.00     0.068 C 
HETATM    6  C   UNL     1       7.306  26.111  53.829  1.00  0.00     0.143 C 
HETATM    7  N   UNL     1       6.383  26.473  52.737  1.00  0.00    -0.363 N 
HETATM    8  N   UNL     1       5.046  29.516  53.959  1.00  0.00    -0.181 NA
HETATM    9  C   UNL     1       4.677  29.591  52.677  1.00  0.00     0.160 C 
HETATM   10  H   UNL     1       6.806  26.264  51.829  1.00  0.00     0.162 HD
ENDROOT
BRANCH   1  11
HETATM   11  C   UNL     1       4.750  28.209  50.523  1.00  0.00     0.261 C 
HETATM   12  N   UNL     1       3.569  27.527  50.296  1.00  0.00    -0.323 N 
HETATM   13  H   UNL     1       3.002  27.355  51.120  1.00  0.00     0.169 HD
HETATM   14  O   UNL     1       5.511  28.643  49.667  1.00  0.00    -0.267 OA
BRANCH  12  15
HETATM   15  C   UNL     1       3.014  27.148  49.058  1.00  0.00     0.035 A 
HETATM   16  C   UNL     1       2.012  27.867  48.400  1.00  0.00     0.039 A 
HETATM   17  C   UNL     1       1.492  27.427  47.169  1.00  0.00    -0.028 A 
HETATM   18  C   UNL     1       1.988  26.243  46.608  1.00  0.00     0.010 A 
HETATM   19  C   UNL     1       2.996  25.526  47.250  1.00  0.00     0.003 A 
HETATM   20  C   UNL     1       3.508  25.978  48.467  1.00  0.00     0.029 A 
BRANCH  17  21
HETATM   21  C   UNL     1       0.385  28.213  46.498  1.00  0.00     0.147 C 
HETATM   22  C   UNL     1      -0.321  27.401  45.422  1.00  0.00     0.044 C 
BRANCH  21  23
HETATM   23  O   UNL     1       0.909  29.403  45.909  1.00  0.00    -0.391 OA
HETATM   24  H   UNL     1       1.530  29.783  46.554  1.00  0.00     0.210 HD
ENDBRANCH  21  23
ENDBRANCH  17  21
ENDBRANCH  12  15
ENDBRANCH   1  11
BRANCH   4  25
HETATM   25  C   UNL     1       5.220  27.970  56.466  1.00  0.00     0.409 C 
HETATM   26  F   UNL     1       3.922  28.003  56.107  1.00  0.00    -0.169 F 
HETATM   27  F   UNL     1       5.384  26.995  57.389  1.00  0.00    -0.169 F 
HETATM   28  F   UNL     1       5.464  29.148  57.103  1.00  0.00    -0.169 F 
ENDBRANCH   4  25
BRANCH   6  29
HETATM   29  C   UNL     1       7.786  24.698  53.752  1.00  0.00     0.075 A 
HETATM   30  O   UNL     1       8.252  24.153  54.913  1.00  0.00    -0.325 OA
HETATM   31  C   UNL     1       8.619  22.875  54.635  1.00  0.00     0.142 A 
HETATM   32  C   UNL     1       8.394  22.589  53.308  1.00  0.00     0.027 A 
HETATM   33  C   UNL     1       7.855  23.766  52.736  1.00  0.00     0.037 A 
ENDBRANCH   6  29
TORSDOF 6
ENDMDL
MODEL 10
REMARK VINA RESULT:      -8.6      4.295      8.534
REMARK  6 active torsions:
REMARK  status: ('A' for Active; 'I' for Inactive)
REMARK    1  A    between atoms: C_2  and  O_3 
REMARK    2  A    between atoms: C_2  and  C_4 
REMARK    3  A    between atoms: C_6  and  N_7 
REMARK       I    between atoms: N_7  and  C_8 
REMARK    4  A    between atoms: C_8  and  C_9 
REMARK    5  A    between atoms: C_12  and  C_13 
REMARK    6  A    between atoms: C_18  and  C_19 
ROOT
HETATM    1  C   UNL     1       5.823  26.300  52.937  1.00  0.00     0.096 C 
HETATM    2  C   UNL     1       6.449  26.352  54.168  1.00  0.00     0.138 C 
HETATM    3  N   UNL     1       6.592  25.043  54.573  1.00  0.00    -0.240 N 
HETATM    4  C   UNL     1       7.174  24.630  55.838  1.00  0.00     0.221 C 
HETATM    5  C   UNL     1       7.945  25.794  56.483  1.00  0.00     0.068 C 
HETATM    6  C   UNL     1       7.143  27.096  56.378  1.00  0.00     0.143 C 
HETATM    7  N   UNL     1       6.879  27.380  54.955  1.00  0.00    -0.363 N 
HETATM    8  N   UNL     1       5.947  24.171  53.784  1.00  0.00    -0.181 NA
HETATM    9  C   UNL     1       5.511  24.929  52.775  1.00  0.00     0.160 C 
HETATM   10  H   UNL     1       6.397  28.278  54.854  1.00  0.00     0.162 HD
ENDROOT
BRANCH   1  11
HETATM   11  C   UNL     1       5.497  27.372  52.010  1.00  0.00     0.261 C 
HETATM   12  N   UNL     1       4.644  26.981  50.996  1.00  0.00    -0.323 N 
HETATM   13  H   UNL     1       4.282  26.036  51.074  1.00  0.00     0.169 HD
HETATM   14  O   UNL     1       5.935  28.502  52.192  1.00  0.00    -0.267 OA
BRANCH  12  15
HETATM   15  C   UNL     1       4.136  27.766  49.942  1.00  0.00     0.035 A 
HETATM   16  C   UNL     1       3.049  28.635  50.073  1.00  0.00     0.039 A 
HETATM   17  C   UNL     1       2.582  29.384  48.976  1.00  0.00    -0.028 A 
HETATM   18  C   UNL     1       3.220  29.241  47.737  1.00  0.00     0.010 A 
HETATM   19  C   UNL     1       4.313  28.387  47.600  1.00  0.00     0.003 A 
HETATM   20  C   UNL     1       4.769  27.656  48.699  1.00  0.00     0.029 A 
BRANCH  17  21
HETATM   21  C   UNL     1       1.383  30.294  49.144  1.00  0.00     0.147 C 
HETATM   22  C   UNL     1       1.724  31.748  48.850  1.00  0.00     0.044 C 
BRANCH  21  23
HETATM   23  O   UNL     1       0.871  30.200  50.473  1.00  0.00    -0.391 OA
HETATM   24  H   UNL     1       0.250  29.451  50.478  1.00  0.00     0.210 HD
ENDBRANCH  21  23
ENDBRANCH  17  21
ENDBRANCH  12  15
ENDBRANCH   1  11
BRANCH   4  25
HETATM   25  C   UNL     1       8.096  23.442  55.670  1.00  0.00     0.409 C 
HETATM   26  F   UNL     1       9.063  23.369  56.606  1.00  0.00    -0.169 F 
HETATM   27  F   UNL     1       7.424  22.268  55.659  1.00  0.00    -0.169 F 
HETATM   28  F   UNL     1       8.737  23.531  54.473  1.00  0.00    -0.169 F 
ENDBRANCH   4  25
BRANCH   6  29
HETATM   29  C   UNL     1       7.872  28.200  57.075  1.00  0.00     0.075 A 
HETATM   30  O   UNL     1       7.187  28.853  58.057  1.00  0.00    -0.325 OA
HETATM   31  C   UNL     1       8.021  29.795  58.567  1.00  0.00     0.142 A 
HETATM   32  C   UNL     1       9.237  29.757  57.926  1.00  0.00     0.027 A 
HETATM   33  C   UNL     1       9.144  28.727  56.961  1.00  0.00     0.037 A 
ENDBRANCH   6  29
TORSDOF 6
ENDMDL
