MODEL 1
REMARK VINA RESULT:     -10.0      0.000      0.000
REMARK  8 active torsions:
REMARK  status: ('A' for Active; 'I' for Inactive)
REMARK    1  A    between atoms: O_2  and  C_3 
REMARK    2  A    between atoms: C_3  and  C_4 
REMARK    3  A    between atoms: N_7  and  C_8 
REMARK    4  A    between atoms: N_10  and  C_12 
REMARK    5  A    between atoms: C_22  and  C_23 
REMARK       I    between atoms: C_23  and  N_24 
REMARK    6  A    between atoms: N_24  and  C_25 
REMARK    7  A    between atoms: C_25  and  C_26 
REMARK    8  A    between atoms: C_26  and  C_27 
ROOT
HETATM    1  C   UNL     1       6.116  28.674  56.878  1.00  0.00     0.134 C 
HETATM    2  C   UNL     1       6.806  28.517  55.533  1.00  0.00     0.263 C 
HETATM    3  N   UNL     1       5.695  28.049  54.602  1.00  0.00    -0.051 N 
HETATM    4  H   UNL     1       5.869  28.499  53.679  1.00  0.00     0.281 HD
HETATM    5  C   UNL     1       4.423  28.782  55.138  1.00  0.00     0.281 C 
HETATM    6  C   UNL     1       4.802  29.341  56.510  1.00  0.00     0.072 C 
ENDROOT
BRANCH   5   7
HETATM    7  C   UNL     1       4.056  29.908  54.157  1.00  0.00     0.248 C 
HETATM    8  N   UNL     1       4.666  29.888  52.929  1.00  0.00    -0.359 N 
HETATM    9  H   UNL     1       5.460  29.286  52.744  1.00  0.00     0.162 HD
HETATM   10  O   UNL     1       3.228  30.748  54.511  1.00  0.00    -0.271 OA
BRANCH   8  11
HETATM   11  C   UNL     1       4.361  30.914  51.937  1.00  0.00     0.127 C 
BRANCH  11  12
HETATM   12  C   UNL     1       3.506  30.377  50.788  1.00  0.00     0.060 C 
BRANCH  12  13
HETATM   13  C   UNL     1       4.273  29.461  49.894  1.00  0.00    -0.029 A 
HETATM   14  C   UNL     1       3.749  28.362  49.140  1.00  0.00    -0.002 A 
HETATM   15  C   UNL     1       4.816  27.779  48.455  1.00  0.00     0.042 A 
HETATM   16  C   UNL     1       2.463  27.803  48.978  1.00  0.00     0.014 A 
HETATM   17  C   UNL     1       4.665  26.667  47.619  1.00  0.00     0.030 A 
HETATM   18  N   UNL     1       5.943  28.500  48.770  1.00  0.00    -0.365 N 
HETATM   19  C   UNL     1       3.382  26.132  47.477  1.00  0.00     0.002 A 
HETATM   20  C   UNL     1       2.295  26.690  48.145  1.00  0.00     0.001 A 
HETATM   21  H   UNL     1       6.867  28.304  48.409  1.00  0.00     0.165 HD
HETATM   22  C   UNL     1       5.629  29.513  49.638  1.00  0.00     0.096 A 
ENDBRANCH  12  13
ENDBRANCH  11  12
ENDBRANCH   8  11
ENDBRANCH   5   7
BRANCH   3  23
HETATM   23  C   UNL     1       5.565  26.546  54.388  1.00  0.00     0.197 C 
HETATM   24  C   UNL     1       5.061  26.199  52.958  1.00  0.00     0.017 C 
HETATM   25  C   UNL     1       6.098  26.571  51.880  1.00  0.00     0.011 C 
HETATM   26  C   UNL     1       4.820  24.675  52.890  1.00  0.00     0.011 C 
HETATM   27  C   UNL     1       7.418  25.830  52.134  1.00  0.00    -0.013 C 
HETATM   28  C   UNL     1       7.949  26.202  53.528  1.00  0.00     0.011 C 
HETATM   29  C   UNL     1       7.164  24.314  52.075  1.00  0.00     0.009 C 
HETATM   30  C   UNL     1       6.920  25.816  54.609  1.00  0.00     0.017 C 
HETATM   31  C   UNL     1       6.673  24.294  54.529  1.00  0.00     0.011 C 
HETATM   32  C   UNL     1       6.132  23.915  53.143  1.00  0.00    -0.013 C 
ENDBRANCH   3  23
BRANCH   1  33
HETATM   33  N   UNL     1       6.877  29.425  57.842  1.00  0.00    -0.276 N 
HETATM   34  N   UNL     1       7.958  28.880  58.416  1.00  0.00     0.005 NA
HETATM   35  N   UNL     1       8.501  29.805  59.195  1.00  0.00    -0.152 NA
HETATM   36  C   UNL     1       7.750  30.953  59.097  1.00  0.00     0.166 A 
HETATM   37  C   UNL     1       6.697  30.712  58.232  1.00  0.00     0.147 A 
BRANCH  36  38
HETATM   38  C   UNL     1       8.048  32.199  59.785  1.00  0.00     0.314 C 
HETATM   39  O   UNL     1       9.135  32.760  59.695  1.00  0.00    -0.257 OA
BRANCH  38  40
HETATM   40  O   UNL     1       7.003  32.649  60.535  1.00  0.00    -0.321 OA
HETATM   41  C   UNL     1       7.361  33.057  61.855  1.00  0.00     0.213 C 
ENDBRANCH  38  40
ENDBRANCH  36  38
ENDBRANCH   1  33
TORSDOF 8
ENDMDL
MODEL 2
REMARK VINA RESULT:      -9.8      1.313      1.714
REMARK  8 active torsions:
REMARK  status: ('A' for Active; 'I' for Inactive)
REMARK    1  A    between atoms: O_2  and  C_3 
REMARK    2  A    between atoms: C_3  and  C_4 
REMARK    3  A    between atoms: N_7  and  C_8 
REMARK    4  A    between atoms: N_10  and  C_12 
REMARK    5  A    between atoms: C_22  and  C_23 
REMARK       I    between atoms: C_23  and  N_24 
REMARK    6  A    between atoms: N_24  and  C_25 
REMARK    7  A    between atoms: C_25  and  C_26 
REMARK    8  A    between atoms: C_26  and  C_27 
ROOT
HETATM    1  C   UNL     1       5.622  29.567  56.412  1.00  0.00     0.134 C 
HETATM    2  C   UNL     1       6.563  29.157  55.291  1.00  0.00     0.263 C 
HETATM    3  N   UNL     1       5.653  28.475  54.277  1.00  0.00    -0.051 N 
HETATM    4  H   UNL     1       6.012  28.729  53.334  1.00  0.00     0.281 HD
HETATM    5  C   UNL     1       4.309  29.263  54.390  1.00  0.00     0.281 C 
HETATM    6  C   UNL     1       4.414  30.104  55.662  1.00  0.00     0.072 C 
ENDROOT
BRANCH   5   7
HETATM    7  C   UNL     1       4.156  30.151  53.144  1.00  0.00     0.248 C 
HETATM    8  N   UNL     1       5.135  30.058  52.188  1.00  0.00    -0.359 N 
HETATM    9  H   UNL     1       6.011  29.583  52.375  1.00  0.00     0.162 HD
HETATM   10  O   UNL     1       3.165  30.877  53.058  1.00  0.00    -0.271 OA
BRANCH   8  11
HETATM   11  C   UNL     1       5.055  30.858  50.970  1.00  0.00     0.127 C 
BRANCH  11  12
HETATM   12  C   UNL     1       5.170  30.006  49.705  1.00  0.00     0.060 C 
BRANCH  12  13
HETATM   13  C   UNL     1       3.867  29.389  49.320  1.00  0.00    -0.029 A 
HETATM   14  C   UNL     1       3.673  28.108  48.707  1.00  0.00    -0.002 A 
HETATM   15  C   UNL     1       2.302  27.941  48.516  1.00  0.00     0.042 A 
HETATM   16  C   UNL     1       4.539  27.074  48.293  1.00  0.00     0.014 A 
HETATM   17  C   UNL     1       1.751  26.795  47.931  1.00  0.00     0.030 A 
HETATM   18  N   UNL     1       1.683  29.069  49.001  1.00  0.00    -0.365 N 
HETATM   19  C   UNL     1       2.630  25.787  47.528  1.00  0.00     0.002 A 
HETATM   20  C   UNL     1       4.005  25.921  47.705  1.00  0.00     0.001 A 
HETATM   21  H   UNL     1       0.683  29.219  48.998  1.00  0.00     0.165 HD
HETATM   22  C   UNL     1       2.616  29.948  49.485  1.00  0.00     0.096 A 
ENDBRANCH  12  13
ENDBRANCH  11  12
ENDBRANCH   8  11
ENDBRANCH   5   7
BRANCH   3  23
HETATM   23  C   UNL     1       5.551  26.957  54.359  1.00  0.00     0.197 C 
HETATM   24  C   UNL     1       4.994  26.335  53.047  1.00  0.00     0.017 C 
HETATM   25  C   UNL     1       5.974  26.511  51.870  1.00  0.00     0.011 C 
HETATM   26  C   UNL     1       4.788  24.822  53.280  1.00  0.00     0.011 C 
HETATM   27  C   UNL     1       7.322  25.853  52.197  1.00  0.00    -0.013 C 
HETATM   28  C   UNL     1       7.903  26.493  53.468  1.00  0.00     0.011 C 
HETATM   29  C   UNL     1       7.103  24.350  52.440  1.00  0.00     0.009 C 
HETATM   30  C   UNL     1       6.932  26.304  54.651  1.00  0.00     0.017 C 
HETATM   31  C   UNL     1       6.719  24.791  54.873  1.00  0.00     0.011 C 
HETATM   32  C   UNL     1       6.129  24.145  53.611  1.00  0.00    -0.013 C 
ENDBRANCH   3  23
BRANCH   1  33
HETATM   33  N   UNL     1       6.186  30.523  57.329  1.00  0.00    -0.276 N 
HETATM   34  N   UNL     1       5.587  31.706  57.517  1.00  0.00     0.005 NA
HETATM   35  N   UNL     1       6.269  32.349  58.455  1.00  0.00    -0.152 NA
HETATM   36  C   UNL     1       7.306  31.547  58.867  1.00  0.00     0.166 A 
HETATM   37  C   UNL     1       7.263  30.370  58.139  1.00  0.00     0.147 A 
BRANCH  36  38
HETATM   38  C   UNL     1       8.262  31.896  59.907  1.00  0.00     0.314 C 
HETATM   39  O   UNL     1       9.143  32.733  59.740  1.00  0.00    -0.257 OA
BRANCH  38  40
HETATM   40  O   UNL     1       8.072  31.188  61.055  1.00  0.00    -0.321 OA
HETATM   41  C   UNL     1       9.248  30.550  61.551  1.00  0.00     0.213 C 
ENDBRANCH  38  40
ENDBRANCH  36  38
ENDBRANCH   1  33
TORSDOF 8
ENDMDL
MODEL 3
REMARK VINA RESULT:      -9.7      1.302      1.827
REMARK  8 active torsions:
REMARK  status: ('A' for Active; 'I' for Inactive)
REMARK    1  A    between atoms: O_2  and  C_3 
REMARK    2  A    between atoms: C_3  and  C_4 
REMARK    3  A    between atoms: N_7  and  C_8 
REMARK    4  A    between atoms: N_10  and  C_12 
REMARK    5  A    between atoms: C_22  and  C_23 
REMARK       I    between atoms: C_23  and  N_24 
REMARK    6  A    between atoms: N_24  and  C_25 
REMARK    7  A    between atoms: C_25  and  C_26 
REMARK    8  A    between atoms: C_26  and  C_27 
ROOT
HETATM    1  C   UNL     1       7.919  28.417  56.950  1.00  0.00     0.134 C 
HETATM    2  C   UNL     1       8.113  28.601  55.453  1.00  0.00     0.263 C 
HETATM    3  N   UNL     1       6.995  27.773  54.833  1.00  0.00    -0.051 N 
HETATM    4  H   UNL     1       6.670  28.293  53.991  1.00  0.00     0.281 HD
HETATM    5  C   UNL     1       5.813  27.921  55.843  1.00  0.00     0.281 C 
HETATM    6  C   UNL     1       6.412  28.526  57.112  1.00  0.00     0.072 C 
ENDROOT
BRANCH   5   7
HETATM    7  C   UNL     1       4.755  28.851  55.225  1.00  0.00     0.248 C 
HETATM    8  N   UNL     1       4.962  29.259  53.933  1.00  0.00    -0.359 N 
HETATM    9  H   UNL     1       5.855  29.122  53.473  1.00  0.00     0.162 HD
HETATM   10  O   UNL     1       3.777  29.161  55.907  1.00  0.00    -0.271 OA
BRANCH   8  11
HETATM   11  C   UNL     1       3.997  30.131  53.271  1.00  0.00     0.127 C 
BRANCH  11  12
HETATM   12  C   UNL     1       3.340  29.462  52.063  1.00  0.00     0.060 C 
BRANCH  12  13
HETATM   13  C   UNL     1       4.230  29.460  50.865  1.00  0.00    -0.029 A 
HETATM   14  C   UNL     1       4.287  28.460  49.841  1.00  0.00    -0.002 A 
HETATM   15  C   UNL     1       5.261  28.856  48.925  1.00  0.00     0.042 A 
HETATM   16  C   UNL     1       3.600  27.250  49.608  1.00  0.00     0.014 A 
HETATM   17  C   UNL     1       5.587  28.105  47.791  1.00  0.00     0.030 A 
HETATM   18  N   UNL     1       5.772  30.054  49.367  1.00  0.00    -0.365 N 
HETATM   19  C   UNL     1       4.894  26.909  47.584  1.00  0.00     0.002 A 
HETATM   20  C   UNL     1       3.914  26.485  48.478  1.00  0.00     0.001 A 
HETATM   21  H   UNL     1       6.494  30.579  48.891  1.00  0.00     0.165 HD
HETATM   22  C   UNL     1       5.160  30.426  50.535  1.00  0.00     0.096 A 
ENDBRANCH  12  13
ENDBRANCH  11  12
ENDBRANCH   8  11
ENDBRANCH   5   7
BRANCH   3  23
HETATM   23  C   UNL     1       7.347  26.351  54.413  1.00  0.00     0.197 C 
HETATM   24  C   UNL     1       6.230  25.336  54.788  1.00  0.00     0.017 C 
HETATM   25  C   UNL     1       4.940  25.581  53.981  1.00  0.00     0.011 C 
HETATM   26  C   UNL     1       6.741  23.915  54.460  1.00  0.00     0.011 C 
HETATM   27  C   UNL     1       5.225  25.471  52.476  1.00  0.00    -0.013 C 
HETATM   28  C   UNL     1       6.295  26.503  52.086  1.00  0.00     0.011 C 
HETATM   29  C   UNL     1       5.744  24.057  52.164  1.00  0.00     0.009 C 
HETATM   30  C   UNL     1       7.592  26.250  52.880  1.00  0.00     0.017 C 
HETATM   31  C   UNL     1       8.093  24.825  52.560  1.00  0.00     0.011 C 
HETATM   32  C   UNL     1       7.033  23.786  52.956  1.00  0.00    -0.013 C 
ENDBRANCH   3  23
BRANCH   1  33
HETATM   33  N   UNL     1       8.641  29.366  57.755  1.00  0.00    -0.276 N 
HETATM   34  N   UNL     1       9.888  29.722  57.417  1.00  0.00     0.005 NA
HETATM   35  N   UNL     1      10.281  30.651  58.278  1.00  0.00    -0.152 NA
HETATM   36  C   UNL     1       9.256  30.886  59.163  1.00  0.00     0.166 A 
HETATM   37  C   UNL     1       8.199  30.056  58.837  1.00  0.00     0.147 A 
BRANCH  36  38
HETATM   38  C   UNL     1       9.300  31.862  60.241  1.00  0.00     0.314 C 
HETATM   39  O   UNL     1       9.063  33.052  60.064  1.00  0.00    -0.257 OA
BRANCH  38  40
HETATM   40  O   UNL     1       9.641  31.309  61.439  1.00  0.00    -0.321 OA
HETATM   41  C   UNL     1       8.543  31.124  62.332  1.00  0.00     0.213 C 
ENDBRANCH  38  40
ENDBRANCH  36  38
ENDBRANCH   1  33
TORSDOF 8
ENDMDL
MODEL 4
REMARK VINA RESULT:      -9.4      3.114      7.817
REMARK  8 active torsions:
REMARK  status: ('A' for Active; 'I' for Inactive)
REMARK    1  A    between atoms: O_2  and  C_3 
REMARK    2  A    between atoms: C_3  and  C_4 
REMARK    3  A    between atoms: N_7  and  C_8 
REMARK    4  A    between atoms: N_10  and  C_12 
REMARK    5  A    between atoms: C_22  and  C_23 
REMARK       I    between atoms: C_23  and  N_24 
REMARK    6  A    between atoms: N_24  and  C_25 
REMARK    7  A    between atoms: C_25  and  C_26 
REMARK    8  A    between atoms: C_26  and  C_27 
ROOT
HETATM    1  C   UNL     1       5.285  25.835  51.976  1.00  0.00     0.134 C 
HETATM    2  C   UNL     1       5.740  26.980  51.085  1.00  0.00     0.263 C 
HETATM    3  N   UNL     1       4.536  27.913  51.042  1.00  0.00    -0.051 N 
HETATM    4  H   UNL     1       4.911  28.885  51.032  1.00  0.00     0.281 HD
HETATM    5  C   UNL     1       3.901  27.773  52.462  1.00  0.00     0.281 C 
HETATM    6  C   UNL     1       4.557  26.550  53.102  1.00  0.00     0.072 C 
ENDROOT
BRANCH   5   7
HETATM    7  C   UNL     1       4.203  29.052  53.262  1.00  0.00     0.248 C 
HETATM    8  N   UNL     1       4.013  28.998  54.619  1.00  0.00    -0.359 N 
HETATM    9  H   UNL     1       3.515  28.229  55.052  1.00  0.00     0.162 HD
HETATM   10  O   UNL     1       4.615  30.041  52.654  1.00  0.00    -0.271 OA
BRANCH   8  11
HETATM   11  C   UNL     1       4.291  30.166  55.449  1.00  0.00     0.127 C 
BRANCH  11  12
HETATM   12  C   UNL     1       4.448  29.805  56.927  1.00  0.00     0.060 C 
BRANCH  12  13
HETATM   13  C   UNL     1       5.718  29.070  57.197  1.00  0.00    -0.029 A 
HETATM   14  C   UNL     1       5.917  27.652  57.138  1.00  0.00    -0.002 A 
HETATM   15  C   UNL     1       7.248  27.404  57.472  1.00  0.00     0.042 A 
HETATM   16  C   UNL     1       5.086  26.554  56.833  1.00  0.00     0.014 A 
HETATM   17  C   UNL     1       7.791  26.115  57.520  1.00  0.00     0.030 A 
HETATM   18  N   UNL     1       7.840  28.621  57.716  1.00  0.00    -0.365 N 
HETATM   19  C   UNL     1       6.947  25.044  57.216  1.00  0.00     0.002 A 
HETATM   20  C   UNL     1       5.613  25.257  56.876  1.00  0.00     0.001 A 
HETATM   21  H   UNL     1       8.810  28.744  57.974  1.00  0.00     0.165 HD
HETATM   22  C   UNL     1       6.928  29.631  57.557  1.00  0.00     0.096 A 
ENDBRANCH  12  13
ENDBRANCH  11  12
ENDBRANCH   8  11
ENDBRANCH   5   7
BRANCH   3  23
HETATM   23  C   UNL     1       3.586  27.753  49.862  1.00  0.00     0.197 C 
HETATM   24  C   UNL     1       2.610  28.957  49.728  1.00  0.00     0.017 C 
HETATM   25  C   UNL     1       3.350  30.254  49.348  1.00  0.00     0.011 C 
HETATM   26  C   UNL     1       1.598  28.633  48.606  1.00  0.00     0.011 C 
HETATM   27  C   UNL     1       4.097  30.071  48.019  1.00  0.00    -0.013 C 
HETATM   28  C   UNL     1       5.098  28.912  48.155  1.00  0.00     0.011 C 
HETATM   29  C   UNL     1       3.082  29.737  46.913  1.00  0.00     0.009 C 
HETATM   30  C   UNL     1       4.358  27.610  48.519  1.00  0.00     0.017 C 
HETATM   31  C   UNL     1       3.339  27.297  47.402  1.00  0.00     0.011 C 
HETATM   32  C   UNL     1       2.328  28.445  47.266  1.00  0.00    -0.013 C 
ENDBRANCH   3  23
BRANCH   1  33
HETATM   33  N   UNL     1       6.356  24.995  52.441  1.00  0.00    -0.276 N 
HETATM   34  N   UNL     1       7.567  25.075  51.875  1.00  0.00     0.005 NA
HETATM   35  N   UNL     1       8.369  24.254  52.539  1.00  0.00    -0.152 NA
HETATM   36  C   UNL     1       7.647  23.658  53.545  1.00  0.00     0.166 A 
HETATM   37  C   UNL     1       6.346  24.125  53.483  1.00  0.00     0.147 A 
BRANCH  36  38
HETATM   38  C   UNL     1       8.191  22.712  54.507  1.00  0.00     0.314 C 
HETATM   39  O   UNL     1       9.095  23.005  55.282  1.00  0.00    -0.257 OA
BRANCH  38  40
HETATM   40  O   UNL     1       7.596  21.488  54.436  1.00  0.00    -0.321 OA
HETATM   41  C   UNL     1       7.973  20.720  53.293  1.00  0.00     0.213 C 
ENDBRANCH  38  40
ENDBRANCH  36  38
ENDBRANCH   1  33
TORSDOF 8
ENDMDL
MODEL 5
REMARK VINA RESULT:      -9.3      2.808      7.205
REMARK  8 active torsions:
REMARK  status: ('A' for Active; 'I' for Inactive)
REMARK    1  A    between atoms: O_2  and  C_3 
REMARK    2  A    between atoms: C_3  and  C_4 
REMARK    3  A    between atoms: N_7  and  C_8 
REMARK    4  A    between atoms: N_10  and  C_12 
REMARK    5  A    between atoms: C_22  and  C_23 
REMARK       I    between atoms: C_23  and  N_24 
REMARK    6  A    between atoms: N_24  and  C_25 
REMARK    7  A    between atoms: C_25  and  C_26 
REMARK    8  A    between atoms: C_26  and  C_27 
ROOT
HETATM    1  C   UNL     1       4.287  29.559  52.785  1.00  0.00     0.134 C 
HETATM    2  C   UNL     1       3.128  28.772  52.196  1.00  0.00     0.263 C 
HETATM    3  N   UNL     1       3.659  28.282  50.855  1.00  0.00    -0.051 N 
HETATM    4  H   UNL     1       3.266  27.328  50.708  1.00  0.00     0.281 HD
HETATM    5  C   UNL     1       5.176  28.023  51.124  1.00  0.00     0.281 C 
HETATM    6  C   UNL     1       5.488  28.683  52.467  1.00  0.00     0.072 C 
ENDROOT
BRANCH   5   7
HETATM    7  C   UNL     1       5.411  26.504  51.179  1.00  0.00     0.248 C 
HETATM    8  N   UNL     1       6.285  26.043  52.130  1.00  0.00    -0.359 N 
HETATM    9  H   UNL     1       6.894  26.675  52.637  1.00  0.00     0.162 HD
HETATM   10  O   UNL     1       4.795  25.786  50.391  1.00  0.00    -0.271 OA
BRANCH   8  11
HETATM   11  C   UNL     1       6.551  24.613  52.255  1.00  0.00     0.127 C 
BRANCH  11  12
HETATM   12  C   UNL     1       7.979  24.325  52.720  1.00  0.00     0.060 C 
BRANCH  12  13
HETATM   13  C   UNL     1       8.024  23.804  54.118  1.00  0.00    -0.029 A 
HETATM   14  C   UNL     1       8.254  22.448  54.521  1.00  0.00    -0.002 A 
HETATM   15  C   UNL     1       8.202  22.412  55.914  1.00  0.00     0.042 A 
HETATM   16  C   UNL     1       8.500  21.244  53.828  1.00  0.00     0.014 A 
HETATM   17  C   UNL     1       8.380  21.236  56.650  1.00  0.00     0.030 A 
HETATM   18  N   UNL     1       7.958  23.695  56.345  1.00  0.00    -0.365 N 
HETATM   19  C   UNL     1       8.620  20.057  55.940  1.00  0.00     0.002 A 
HETATM   20  C   UNL     1       8.681  20.058  54.549  1.00  0.00     0.001 A 
HETATM   21  H   UNL     1       7.877  23.967  57.316  1.00  0.00     0.165 HD
HETATM   22  C   UNL     1       7.847  24.541  55.272  1.00  0.00     0.096 A 
ENDBRANCH  12  13
ENDBRANCH  11  12
ENDBRANCH   8  11
ENDBRANCH   5   7
BRANCH   3  23
HETATM   23  C   UNL     1       3.328  29.131  49.634  1.00  0.00     0.197 C 
HETATM   24  C   UNL     1       3.953  28.554  48.331  1.00  0.00     0.017 C 
HETATM   25  C   UNL     1       3.320  27.203  47.943  1.00  0.00     0.011 C 
HETATM   26  C   UNL     1       3.690  29.557  47.186  1.00  0.00     0.011 C 
HETATM   27  C   UNL     1       1.807  27.364  47.738  1.00  0.00    -0.013 C 
HETATM   28  C   UNL     1       1.173  27.891  49.034  1.00  0.00     0.011 C 
HETATM   29  C   UNL     1       1.558  28.373  46.604  1.00  0.00     0.009 C 
HETATM   30  C   UNL     1       1.792  29.250  49.416  1.00  0.00     0.017 C 
HETATM   31  C   UNL     1       1.538  30.245  48.264  1.00  0.00     0.011 C 
HETATM   32  C   UNL     1       2.179  29.732  46.966  1.00  0.00    -0.013 C 
ENDBRANCH   3  23
BRANCH   1  33
HETATM   33  N   UNL     1       4.151  29.839  54.190  1.00  0.00    -0.276 N 
HETATM   34  N   UNL     1       4.152  28.836  55.077  1.00  0.00     0.005 NA
HETATM   35  N   UNL     1       4.087  29.377  56.286  1.00  0.00    -0.152 NA
HETATM   36  C   UNL     1       4.055  30.745  56.150  1.00  0.00     0.166 A 
HETATM   37  C   UNL     1       4.088  31.049  54.800  1.00  0.00     0.147 A 
BRANCH  36  38
HETATM   38  C   UNL     1       4.011  31.687  57.257  1.00  0.00     0.314 C 
HETATM   39  O   UNL     1       4.686  32.711  57.279  1.00  0.00    -0.257 OA
BRANCH  38  40
HETATM   40  O   UNL     1       3.161  31.296  58.247  1.00  0.00    -0.321 OA
HETATM   41  C   UNL     1       3.544  31.727  59.553  1.00  0.00     0.213 C 
ENDBRANCH  38  40
ENDBRANCH  36  38
ENDBRANCH   1  33
TORSDOF 8
ENDMDL
MODEL 6
REMARK VINA RESULT:      -9.2      3.249      8.153
REMARK  8 active torsions:
REMARK  status: ('A' for Active; 'I' for Inactive)
REMARK    1  A    between atoms: O_2  and  C_3 
REMARK    2  A    between atoms: C_3  and  C_4 
REMARK    3  A    between atoms: N_7  and  C_8 
REMARK    4  A    between atoms: N_10  and  C_12 
REMARK    5  A    between atoms: C_22  and  C_23 
REMARK       I    between atoms: C_23  and  N_24 
REMARK    6  A    between atoms: N_24  and  C_25 
REMARK    7  A    between atoms: C_25  and  C_26 
REMARK    8  A    between atoms: C_26  and  C_27 
ROOT
HETATM    1  C   UNL     1       5.553  25.413  52.497  1.00  0.00     0.134 C 
HETATM    2  C   UNL     1       6.126  26.528  51.637  1.00  0.00     0.263 C 
HETATM    3  N   UNL     1       4.980  27.525  51.517  1.00  0.00    -0.051 N 
HETATM    4  H   UNL     1       5.408  28.475  51.530  1.00  0.00     0.281 HD
HETATM    5  C   UNL     1       4.249  27.425  52.894  1.00  0.00     0.281 C 
HETATM    6  C   UNL     1       4.796  26.171  53.575  1.00  0.00     0.072 C 
ENDROOT
BRANCH   5   7
HETATM    7  C   UNL     1       4.569  28.689  53.710  1.00  0.00     0.248 C 
HETATM    8  N   UNL     1       5.156  28.507  54.936  1.00  0.00    -0.359 N 
HETATM    9  H   UNL     1       5.199  27.592  55.370  1.00  0.00     0.162 HD
HETATM   10  O   UNL     1       4.305  29.788  53.220  1.00  0.00    -0.271 OA
BRANCH   8  11
HETATM   11  C   UNL     1       5.504  29.657  55.765  1.00  0.00     0.127 C 
BRANCH  11  12
HETATM   12  C   UNL     1       5.825  29.260  57.207  1.00  0.00     0.060 C 
BRANCH  12  13
HETATM   13  C   UNL     1       6.918  30.091  57.792  1.00  0.00    -0.029 A 
HETATM   14  C   UNL     1       8.320  29.979  57.518  1.00  0.00    -0.002 A 
HETATM   15  C   UNL     1       8.973  30.943  58.286  1.00  0.00     0.042 A 
HETATM   16  C   UNL     1       9.097  29.144  56.688  1.00  0.00     0.014 A 
HETATM   17  C   UNL     1      10.362  31.113  58.270  1.00  0.00     0.030 A 
HETATM   18  N   UNL     1       8.008  31.621  58.993  1.00  0.00    -0.365 N 
HETATM   19  C   UNL     1      11.108  30.272  57.442  1.00  0.00     0.002 A 
HETATM   20  C   UNL     1      10.488  29.300  56.660  1.00  0.00     0.001 A 
HETATM   21  H   UNL     1       8.196  32.384  59.630  1.00  0.00     0.165 HD
HETATM   22  C   UNL     1       6.768  31.115  58.705  1.00  0.00     0.096 A 
ENDBRANCH  12  13
ENDBRANCH  11  12
ENDBRANCH   8  11
ENDBRANCH   5   7
BRANCH   3  23
HETATM   23  C   UNL     1       4.100  27.412  50.279  1.00  0.00     0.197 C 
HETATM   24  C   UNL     1       3.135  28.624  50.133  1.00  0.00     0.017 C 
HETATM   25  C   UNL     1       3.898  29.932  49.845  1.00  0.00     0.011 C 
HETATM   26  C   UNL     1       2.189  28.346  48.944  1.00  0.00     0.011 C 
HETATM   27  C   UNL     1       4.720  29.795  48.556  1.00  0.00    -0.013 C 
HETATM   28  C   UNL     1       5.709  28.629  48.706  1.00  0.00     0.011 C 
HETATM   29  C   UNL     1       3.769  29.507  47.382  1.00  0.00     0.009 C 
HETATM   30  C   UNL     1       4.947  27.316  48.978  1.00  0.00     0.017 C 
HETATM   31  C   UNL     1       3.995  27.049  47.793  1.00  0.00     0.011 C 
HETATM   32  C   UNL     1       2.995  28.205  47.642  1.00  0.00    -0.013 C 
ENDBRANCH   3  23
BRANCH   1  33
HETATM   33  N   UNL     1       6.545  24.517  53.031  1.00  0.00    -0.276 N 
HETATM   34  N   UNL     1       7.568  24.116  52.265  1.00  0.00     0.005 NA
HETATM   35  N   UNL     1       8.358  23.365  53.021  1.00  0.00    -0.152 NA
HETATM   36  C   UNL     1       7.822  23.307  54.286  1.00  0.00     0.166 A 
HETATM   37  C   UNL     1       6.649  24.041  54.297  1.00  0.00     0.147 A 
BRANCH  36  38
HETATM   38  C   UNL     1       8.419  22.598  55.407  1.00  0.00     0.314 C 
HETATM   39  O   UNL     1       8.751  23.163  56.444  1.00  0.00    -0.257 OA
BRANCH  38  40
HETATM   40  O   UNL     1       8.573  21.266  55.165  1.00  0.00    -0.321 OA
HETATM   41  C   UNL     1       7.981  20.419  56.150  1.00  0.00     0.213 C 
ENDBRANCH  38  40
ENDBRANCH  36  38
ENDBRANCH   1  33
TORSDOF 8
ENDMDL
MODEL 7
REMARK VINA RESULT:      -9.0      3.399      9.202
REMARK  8 active torsions:
REMARK  status: ('A' for Active; 'I' for Inactive)
REMARK    1  A    between atoms: O_2  and  C_3 
REMARK    2  A    between atoms: C_3  and  C_4 
REMARK    3  A    between atoms: N_7  and  C_8 
REMARK    4  A    between atoms: N_10  and  C_12 
REMARK    5  A    between atoms: C_22  and  C_23 
REMARK       I    between atoms: C_23  and  N_24 
REMARK    6  A    between atoms: N_24  and  C_25 
REMARK    7  A    between atoms: C_25  and  C_26 
REMARK    8  A    between atoms: C_26  and  C_27 
ROOT
HETATM    1  C   UNL     1       3.147  29.434  51.560  1.00  0.00     0.134 C 
HETATM    2  C   UNL     1       4.151  30.555  51.780  1.00  0.00     0.263 C 
HETATM    3  N   UNL     1       4.199  30.714  53.294  1.00  0.00    -0.051 N 
HETATM    4  H   UNL     1       5.187  30.934  53.540  1.00  0.00     0.281 HD
HETATM    5  C   UNL     1       3.996  29.261  53.831  1.00  0.00     0.281 C 
HETATM    6  C   UNL     1       3.517  28.431  52.640  1.00  0.00     0.072 C 
ENDROOT
BRANCH   5   7
HETATM    7  C   UNL     1       5.342  28.745  54.368  1.00  0.00     0.248 C 
HETATM    8  N   UNL     1       5.839  27.598  53.805  1.00  0.00    -0.359 N 
HETATM    9  H   UNL     1       5.265  27.011  53.210  1.00  0.00     0.162 HD
HETATM   10  O   UNL     1       5.909  29.392  55.249  1.00  0.00    -0.271 OA
BRANCH   8  11
HETATM   11  C   UNL     1       7.117  27.052  54.249  1.00  0.00     0.127 C 
BRANCH  11  12
HETATM   12  C   UNL     1       7.463  25.736  53.551  1.00  0.00     0.060 C 
BRANCH  12  13
HETATM   13  C   UNL     1       7.591  24.603  54.513  1.00  0.00    -0.029 A 
HETATM   14  C   UNL     1       7.755  23.217  54.188  1.00  0.00    -0.002 A 
HETATM   15  C   UNL     1       7.822  22.512  55.389  1.00  0.00     0.042 A 
HETATM   16  C   UNL     1       7.849  22.494  52.980  1.00  0.00     0.014 A 
HETATM   17  C   UNL     1       7.976  21.122  55.447  1.00  0.00     0.030 A 
HETATM   18  N   UNL     1       7.714  23.431  56.407  1.00  0.00    -0.365 N 
HETATM   19  C   UNL     1       8.065  20.429  54.237  1.00  0.00     0.002 A 
HETATM   20  C   UNL     1       8.003  21.102  53.019  1.00  0.00     0.001 A 
HETATM   21  H   UNL     1       7.738  23.200  57.391  1.00  0.00     0.165 HD
HETATM   22  C   UNL     1       7.572  24.692  55.890  1.00  0.00     0.096 A 
ENDBRANCH  12  13
ENDBRANCH  11  12
ENDBRANCH   8  11
ENDBRANCH   5   7
BRANCH   3  23
HETATM   23  C   UNL     1       3.302  31.787  53.900  1.00  0.00     0.197 C 
HETATM   24  C   UNL     1       3.651  32.069  55.389  1.00  0.00     0.017 C 
HETATM   25  C   UNL     1       5.042  32.716  55.538  1.00  0.00     0.011 C 
HETATM   26  C   UNL     1       2.600  33.052  55.952  1.00  0.00     0.011 C 
HETATM   27  C   UNL     1       5.101  34.036  54.756  1.00  0.00    -0.013 C 
HETATM   28  C   UNL     1       4.803  33.761  53.274  1.00  0.00     0.011 C 
HETATM   29  C   UNL     1       4.043  35.001  55.317  1.00  0.00     0.009 C 
HETATM   30  C   UNL     1       3.405  33.129  53.121  1.00  0.00     0.017 C 
HETATM   31  C   UNL     1       2.359  34.108  53.695  1.00  0.00     0.011 C 
HETATM   32  C   UNL     1       2.643  34.380  55.180  1.00  0.00    -0.013 C 
ENDBRANCH   3  23
BRANCH   1  33
HETATM   33  N   UNL     1       3.178  28.872  50.236  1.00  0.00    -0.276 N 
HETATM   34  N   UNL     1       2.452  29.425  49.255  1.00  0.00     0.005 NA
HETATM   35  N   UNL     1       2.722  28.760  48.140  1.00  0.00    -0.152 NA
HETATM   36  C   UNL     1       3.642  27.780  48.429  1.00  0.00     0.166 A 
HETATM   37  C   UNL     1       3.935  27.842  49.781  1.00  0.00     0.147 A 
BRANCH  36  38
HETATM   38  C   UNL     1       4.207  26.860  47.455  1.00  0.00     0.314 C 
HETATM   39  O   UNL     1       5.398  26.857  47.163  1.00  0.00    -0.257 OA
BRANCH  38  40
HETATM   40  O   UNL     1       3.272  26.033  46.909  1.00  0.00    -0.321 OA
HETATM   41  C   UNL     1       3.005  24.861  47.679  1.00  0.00     0.213 C 
ENDBRANCH  38  40
ENDBRANCH  36  38
ENDBRANCH   1  33
TORSDOF 8
ENDMDL
MODEL 8
REMARK VINA RESULT:      -8.7      3.116      9.322
REMARK  8 active torsions:
REMARK  status: ('A' for Active; 'I' for Inactive)
REMARK    1  A    between atoms: O_2  and  C_3 
REMARK    2  A    between atoms: C_3  and  C_4 
REMARK    3  A    between atoms: N_7  and  C_8 
REMARK    4  A    between atoms: N_10  and  C_12 
REMARK    5  A    between atoms: C_22  and  C_23 
REMARK       I    between atoms: C_23  and  N_24 
REMARK    6  A    between atoms: N_24  and  C_25 
REMARK    7  A    between atoms: C_25  and  C_26 
REMARK    8  A    between atoms: C_26  and  C_27 
ROOT
HETATM    1  C   UNL     1       6.525  25.668  52.324  1.00  0.00     0.134 C 
HETATM    2  C   UNL     1       5.812  24.622  53.166  1.00  0.00     0.263 C 
HETATM    3  N   UNL     1       6.864  24.183  54.176  1.00  0.00    -0.051 N 
HETATM    4  H   UNL     1       6.364  24.011  55.073  1.00  0.00     0.281 HD
HETATM    5  C   UNL     1       7.687  25.482  54.451  1.00  0.00     0.281 C 
HETATM    6  C   UNL     1       7.287  26.477  53.361  1.00  0.00     0.072 C 
ENDROOT
BRANCH   5   7
HETATM    7  C   UNL     1       7.320  26.007  55.849  1.00  0.00     0.248 C 
HETATM    8  N   UNL     1       7.658  27.304  56.136  1.00  0.00    -0.359 N 
HETATM    9  H   UNL     1       8.288  27.829  55.541  1.00  0.00     0.162 HD
HETATM   10  O   UNL     1       6.730  25.253  56.623  1.00  0.00    -0.271 OA
BRANCH   8  11
HETATM   11  C   UNL     1       7.332  27.881  57.437  1.00  0.00     0.127 C 
BRANCH  11  12
HETATM   12  C   UNL     1       8.317  28.974  57.853  1.00  0.00     0.060 C 
BRANCH  12  13
HETATM   13  C   UNL     1       7.647  30.092  58.581  1.00  0.00    -0.029 A 
HETATM   14  C   UNL     1       8.104  30.731  59.779  1.00  0.00    -0.002 A 
HETATM   15  C   UNL     1       7.169  31.711  60.111  1.00  0.00     0.042 A 
HETATM   16  C   UNL     1       9.227  30.563  60.617  1.00  0.00     0.014 A 
HETATM   17  C   UNL     1       7.297  32.531  61.237  1.00  0.00     0.030 A 
HETATM   18  N   UNL     1       6.187  31.679  59.149  1.00  0.00    -0.365 N 
HETATM   19  C   UNL     1       8.417  32.344  62.052  1.00  0.00     0.002 A 
HETATM   20  C   UNL     1       9.370  31.376  61.748  1.00  0.00     0.001 A 
HETATM   21  H   UNL     1       5.381  32.290  59.134  1.00  0.00     0.165 HD
HETATM   22  C   UNL     1       6.463  30.706  58.225  1.00  0.00     0.096 A 
ENDBRANCH  12  13
ENDBRANCH  11  12
ENDBRANCH   8  11
ENDBRANCH   5   7
BRANCH   3  23
HETATM   23  C   UNL     1       7.671  22.937  53.829  1.00  0.00     0.197 C 
HETATM   24  C   UNL     1       9.147  23.042  54.307  1.00  0.00     0.017 C 
HETATM   25  C   UNL     1       9.251  23.053  55.845  1.00  0.00     0.011 C 
HETATM   26  C   UNL     1       9.912  21.808  53.781  1.00  0.00     0.011 C 
HETATM   27  C   UNL     1       8.630  21.776  56.429  1.00  0.00    -0.013 C 
HETATM   28  C   UNL     1       7.157  21.686  56.000  1.00  0.00     0.011 C 
HETATM   29  C   UNL     1       9.393  20.554  55.889  1.00  0.00     0.009 C 
HETATM   30  C   UNL     1       7.052  21.658  54.462  1.00  0.00     0.017 C 
HETATM   31  C   UNL     1       7.828  20.431  53.939  1.00  0.00     0.011 C 
HETATM   32  C   UNL     1       9.305  20.518  54.355  1.00  0.00    -0.013 C 
ENDBRANCH   3  23
BRANCH   1  33
HETATM   33  N   UNL     1       5.644  26.472  51.520  1.00  0.00    -0.276 N 
HETATM   34  N   UNL     1       5.357  27.728  51.888  1.00  0.00     0.005 NA
HETATM   35  N   UNL     1       4.593  28.253  50.940  1.00  0.00    -0.152 NA
HETATM   36  C   UNL     1       4.408  27.310  49.957  1.00  0.00     0.166 A 
HETATM   37  C   UNL     1       5.077  26.157  50.328  1.00  0.00     0.147 A 
BRANCH  36  38
HETATM   38  C   UNL     1       3.647  27.524  48.736  1.00  0.00     0.314 C 
HETATM   39  O   UNL     1       3.545  26.669  47.863  1.00  0.00    -0.257 OA
BRANCH  38  40
HETATM   40  O   UNL     1       3.087  28.765  48.676  1.00  0.00    -0.321 OA
HETATM   41  C   UNL     1       3.087  29.345  47.371  1.00  0.00     0.213 C 
ENDBRANCH  38  40
ENDBRANCH  36  38
ENDBRANCH   1  33
TORSDOF 8
ENDMDL
MODEL 9
REMARK VINA RESULT:      -8.6      3.507      8.768
REMARK  8 active torsions:
REMARK  status: ('A' for Active; 'I' for Inactive)
REMARK    1  A    between atoms: O_2  and  C_3 
REMARK    2  A    between atoms: C_3  and  C_4 
REMARK    3  A    between atoms: N_7  and  C_8 
REMARK    4  A    between atoms: N_10  and  C_12 
REMARK    5  A    between atoms: C_22  and  C_23 
REMARK       I    between atoms: C_23  and  N_24 
REMARK    6  A    between atoms: N_24  and  C_25 
REMARK    7  A    between atoms: C_25  and  C_26 
REMARK    8  A    between atoms: C_26  and  C_27 
ROOT
HETATM    1  C   UNL     1       5.744  25.122  53.208  1.00  0.00     0.134 C 
HETATM    2  C   UNL     1       6.464  26.098  52.292  1.00  0.00     0.263 C 
HETATM    3  N   UNL     1       5.548  27.315  52.259  1.00  0.00    -0.051 N 
HETATM    4  H   UNL     1       6.166  28.153  52.227  1.00  0.00     0.281 HD
HETATM    5  C   UNL     1       4.932  27.360  53.694  1.00  0.00     0.281 C 
HETATM    6  C   UNL     1       5.258  26.013  54.338  1.00  0.00     0.072 C 
ENDROOT
BRANCH   5   7
HETATM    7  C   UNL     1       5.579  28.521  54.468  1.00  0.00     0.248 C 
HETATM    8  N   UNL     1       6.750  28.254  55.129  1.00  0.00    -0.359 N 
HETATM    9  H   UNL     1       7.072  27.303  55.269  1.00  0.00     0.162 HD
HETATM   10  O   UNL     1       5.031  29.624  54.438  1.00  0.00    -0.271 OA
BRANCH   8  11
HETATM   11  C   UNL     1       7.433  29.306  55.875  1.00  0.00     0.127 C 
BRANCH  11  12
HETATM   12  C   UNL     1       8.672  28.790  56.609  1.00  0.00     0.060 C 
BRANCH  12  13
HETATM   13  C   UNL     1       9.351  29.863  57.393  1.00  0.00    -0.029 A 
HETATM   14  C   UNL     1       8.794  30.613  58.479  1.00  0.00    -0.002 A 
HETATM   15  C   UNL     1       9.771  31.512  58.909  1.00  0.00     0.042 A 
HETATM   16  C   UNL     1       7.546  30.615  59.137  1.00  0.00     0.014 A 
HETATM   17  C   UNL     1       9.564  32.412  59.960  1.00  0.00     0.030 A 
HETATM   18  N   UNL     1      10.882  31.311  58.124  1.00  0.00    -0.365 N 
HETATM   19  C   UNL     1       8.319  32.395  60.593  1.00  0.00     0.002 A 
HETATM   20  C   UNL     1       7.322  31.510  60.190  1.00  0.00     0.001 A 
HETATM   21  H   UNL     1      11.749  31.822  58.219  1.00  0.00     0.165 HD
HETATM   22  C   UNL     1      10.639  30.323  57.206  1.00  0.00     0.096 A 
ENDBRANCH  12  13
ENDBRANCH  11  12
ENDBRANCH   8  11
ENDBRANCH   5   7
BRANCH   3  23
HETATM   23  C   UNL     1       4.562  27.401  51.101  1.00  0.00     0.197 C 
HETATM   24  C   UNL     1       3.611  28.625  51.229  1.00  0.00     0.017 C 
HETATM   25  C   UNL     1       4.372  29.958  51.080  1.00  0.00     0.011 C 
HETATM   26  C   UNL     1       2.561  28.540  50.100  1.00  0.00     0.011 C 
HETATM   27  C   UNL     1       5.077  30.018  49.718  1.00  0.00    -0.013 C 
HETATM   28  C   UNL     1       6.053  28.837  49.599  1.00  0.00     0.011 C 
HETATM   29  C   UNL     1       4.023  29.921  48.602  1.00  0.00     0.009 C 
HETATM   30  C   UNL     1       5.292  27.503  49.731  1.00  0.00     0.017 C 
HETATM   31  C   UNL     1       4.235  27.427  48.608  1.00  0.00     0.011 C 
HETATM   32  C   UNL     1       3.249  28.599  48.726  1.00  0.00    -0.013 C 
ENDBRANCH   3  23
BRANCH   1  33
HETATM   33  N   UNL     1       6.567  24.033  53.664  1.00  0.00    -0.276 N 
HETATM   34  N   UNL     1       6.880  23.926  54.962  1.00  0.00     0.005 NA
HETATM   35  N   UNL     1       7.576  22.806  55.110  1.00  0.00    -0.152 NA
HETATM   36  C   UNL     1       7.689  22.198  53.882  1.00  0.00     0.166 A 
HETATM   37  C   UNL     1       7.047  22.987  52.944  1.00  0.00     0.147 A 
BRANCH  36  38
HETATM   38  C   UNL     1       8.361  20.930  53.644  1.00  0.00     0.314 C 
HETATM   39  O   UNL     1       8.197  20.278  52.619  1.00  0.00    -0.257 OA
BRANCH  38  40
HETATM   40  O   UNL     1       9.164  20.558  54.680  1.00  0.00    -0.321 OA
HETATM   41  C   UNL     1       8.479  19.908  55.750  1.00  0.00     0.213 C 
ENDBRANCH  38  40
ENDBRANCH  36  38
ENDBRANCH   1  33
TORSDOF 8
ENDMDL
MODEL 10
REMARK VINA RESULT:      -8.6      1.913      2.516
REMARK  8 active torsions:
REMARK  status: ('A' for Active; 'I' for Inactive)
REMARK    1  A    between atoms: O_2  and  C_3 
REMARK    2  A    between atoms: C_3  and  C_4 
REMARK    3  A    between atoms: N_7  and  C_8 
REMARK    4  A    between atoms: N_10  and  C_12 
REMARK    5  A    between atoms: C_22  and  C_23 
REMARK       I    between atoms: C_23  and  N_24 
REMARK    6  A    between atoms: N_24  and  C_25 
REMARK    7  A    between atoms: C_25  and  C_26 
REMARK    8  A    between atoms: C_26  and  C_27 
ROOT
HETATM    1  C   UNL     1       5.379  28.898  56.489  1.00  0.00     0.134 C 
HETATM    2  C   UNL     1       6.562  28.905  55.534  1.00  0.00     0.263 C 
HETATM    3  N   UNL     1       6.216  27.828  54.513  1.00  0.00    -0.051 N 
HETATM    4  H   UNL     1       6.563  28.168  53.591  1.00  0.00     0.281 HD
HETATM    5  C   UNL     1       4.662  27.919  54.384  1.00  0.00     0.281 C 
HETATM    6  C   UNL     1       4.188  28.781  55.553  1.00  0.00     0.072 C 
ENDROOT
BRANCH   5   7
HETATM    7  C   UNL     1       4.320  28.571  53.033  1.00  0.00     0.248 C 
HETATM    8  N   UNL     1       5.371  29.015  52.272  1.00  0.00    -0.359 N 
HETATM    9  H   UNL     1       6.305  29.092  52.656  1.00  0.00     0.162 HD
HETATM   10  O   UNL     1       3.137  28.642  52.698  1.00  0.00    -0.271 OA
BRANCH   8  11
HETATM   11  C   UNL     1       5.130  29.632  50.971  1.00  0.00     0.127 C 
BRANCH  11  12
HETATM   12  C   UNL     1       5.656  28.780  49.816  1.00  0.00     0.060 C 
BRANCH  12  13
HETATM   13  C   UNL     1       4.640  27.803  49.326  1.00  0.00    -0.029 A 
HETATM   14  C   UNL     1       3.541  28.076  48.449  1.00  0.00    -0.002 A 
HETATM   15  C   UNL     1       2.847  26.881  48.264  1.00  0.00     0.042 A 
HETATM   16  C   UNL     1       3.067  29.234  47.796  1.00  0.00     0.014 A 
HETATM   17  C   UNL     1       1.704  26.782  47.463  1.00  0.00     0.030 A 
HETATM   18  N   UNL     1       3.502  25.914  48.991  1.00  0.00    -0.365 N 
HETATM   19  C   UNL     1       1.255  27.943  46.829  1.00  0.00     0.002 A 
HETATM   20  C   UNL     1       1.925  29.153  46.990  1.00  0.00     0.001 A 
HETATM   21  H   UNL     1       3.221  24.944  49.036  1.00  0.00     0.165 HD
HETATM   22  C   UNL     1       4.581  26.459  49.636  1.00  0.00     0.096 A 
ENDBRANCH  12  13
ENDBRANCH  11  12
ENDBRANCH   8  11
ENDBRANCH   5   7
BRANCH   3  23
HETATM   23  C   UNL     1       6.791  26.439  54.759  1.00  0.00     0.197 C 
HETATM   24  C   UNL     1       5.678  25.364  54.920  1.00  0.00     0.017 C 
HETATM   25  C   UNL     1       4.901  25.144  53.606  1.00  0.00     0.011 C 
HETATM   26  C   UNL     1       6.350  24.030  55.312  1.00  0.00     0.011 C 
HETATM   27  C   UNL     1       5.859  24.703  52.490  1.00  0.00    -0.013 C 
HETATM   28  C   UNL     1       6.937  25.780  52.292  1.00  0.00     0.011 C 
HETATM   29  C   UNL     1       6.531  23.381  52.897  1.00  0.00     0.009 C 
HETATM   30  C   UNL     1       7.726  25.991  53.600  1.00  0.00     0.017 C 
HETATM   31  C   UNL     1       8.386  24.652  53.995  1.00  0.00     0.011 C 
HETATM   32  C   UNL     1       7.314  23.572  54.206  1.00  0.00    -0.013 C 
ENDBRANCH   3  23
BRANCH   1  33
HETATM   33  N   UNL     1       5.312  30.053  57.345  1.00  0.00    -0.276 N 
HETATM   34  N   UNL     1       6.436  30.675  57.723  1.00  0.00     0.005 NA
HETATM   35  N   UNL     1       6.081  31.735  58.437  1.00  0.00    -0.152 NA
HETATM   36  C   UNL     1       4.708  31.780  58.496  1.00  0.00     0.166 A 
HETATM   37  C   UNL     1       4.206  30.694  57.800  1.00  0.00     0.147 A 
BRANCH  36  38
HETATM   38  C   UNL     1       3.941  32.816  59.169  1.00  0.00     0.314 C 
HETATM   39  O   UNL     1       2.830  33.169  58.788  1.00  0.00    -0.257 OA
BRANCH  38  40
HETATM   40  O   UNL     1       4.597  33.343  60.241  1.00  0.00    -0.321 OA
HETATM   41  C   UNL     1       4.351  34.733  60.454  1.00  0.00     0.213 C 
ENDBRANCH  38  40
ENDBRANCH  36  38
ENDBRANCH   1  33
TORSDOF 8
ENDMDL
