MODEL 1
REMARK VINA RESULT:     -10.9      0.000      0.000
REMARK  6 active torsions:
REMARK  status: ('A' for Active; 'I' for Inactive)
REMARK    1  A    between atoms: C_2  and  O_3 
REMARK    2  A    between atoms: O_3  and  C_4 
REMARK    3  A    between atoms: C_5  and  C_6 
REMARK    4  A    between atoms: N_7  and  N_8 
REMARK       I    between atoms: N_8  and  C_9 
REMARK    5  A    between atoms: C_9  and  C_10 
REMARK    6  A    between atoms: C_14  and  C_15 
ROOT
HETATM    1  C   UNL     1       7.565  29.879  57.915  1.00  0.00     0.121 A 
HETATM    2  N   UNL     1       8.866  29.456  57.889  1.00  0.00    -0.272 N 
HETATM    3  H   UNL     1       9.651  29.874  58.380  1.00  0.00     0.189 HD
HETATM    4  N   UNL     1       9.085  28.393  57.100  1.00  0.00    -0.174 NA
HETATM    5  C   UNL     1       7.883  28.112  56.573  1.00  0.00     0.090 A 
HETATM    6  C   UNL     1       6.893  28.982  57.108  1.00  0.00     0.071 A 
ENDROOT
BRANCH   1   7
HETATM    7  C   UNL     1       7.168  31.054  58.657  1.00  0.00     0.289 C 
HETATM    8  N   UNL     1       7.567  31.036  59.987  1.00  0.00    -0.242 N 
HETATM    9  H   UNL     1       8.119  30.250  60.307  1.00  0.00     0.192 HD
HETATM   10  O   UNL     1       6.515  31.935  58.112  1.00  0.00    -0.264 OA
BRANCH   8  11
HETATM   11  N   UNL     1       7.217  31.869  61.016  1.00  0.00    -0.183 NA
HETATM   12  C   UNL     1       7.013  31.419  62.213  1.00  0.00     0.153 C 
BRANCH  12  13
HETATM   13  C   UNL     1       6.693  32.349  63.327  1.00  0.00     0.016 A 
HETATM   14  C   UNL     1       5.357  32.596  63.688  1.00  0.00     0.080 A 
HETATM   15  C   UNL     1       5.097  33.455  64.764  1.00  0.00     0.037 A 
HETATM   16  C   UNL     1       6.147  34.061  65.462  1.00  0.00     0.003 A 
HETATM   17  C   UNL     1       7.467  33.817  65.094  1.00  0.00     0.001 A 
HETATM   18  C   UNL     1       7.741  32.962  64.029  1.00  0.00     0.016 A 
BRANCH  14  19
HETATM   19  O   UNL     1       4.388  31.963  62.956  1.00  0.00    -0.351 OA
BRANCH  19  20
HETATM   20  C   UNL     1       3.556  32.759  62.114  1.00  0.00     0.171 C 
HETATM   21  C   UNL     1       3.673  32.220  60.700  1.00  0.00     0.034 C 
ENDBRANCH  19  20
ENDBRANCH  14  19
ENDBRANCH  12  13
ENDBRANCH   8  11
ENDBRANCH   1   7
BRANCH   5  22
HETATM   22  C   UNL     1       7.696  27.025  55.611  1.00  0.00     0.005 A 
HETATM   23  C   UNL     1       7.902  25.657  55.965  1.00  0.00    -0.012 A 
HETATM   24  C   UNL     1       7.753  24.748  54.945  1.00  0.00    -0.012 A 
HETATM   25  C   UNL     1       8.219  25.085  57.227  1.00  0.00     0.013 A 
HETATM   26  C   UNL     1       7.923  23.383  55.084  1.00  0.00    -0.046 A 
HETATM   27  C   UNL     1       7.396  25.079  53.651  1.00  0.00    -0.046 A 
HETATM   28  C   UNL     1       8.261  22.814  56.302  1.00  0.00     0.008 A 
HETATM   29  C   UNL     1       7.682  22.695  53.785  1.00  0.00     0.044 A 
HETATM   30  C   UNL     1       8.400  23.696  57.381  1.00  0.00     0.001 A 
HETATM   31  C   UNL     1       7.307  23.852  52.809  1.00  0.00     0.044 A 
HETATM   32  C   UNL     1       7.155  26.392  53.281  1.00  0.00     0.009 A 
HETATM   33  C   UNL     1       7.313  27.359  54.287  1.00  0.00     0.015 A 
ENDBRANCH   5  22
TORSDOF 6
ENDMDL
MODEL 2
REMARK VINA RESULT:     -10.8      1.092      2.220
REMARK  6 active torsions:
REMARK  status: ('A' for Active; 'I' for Inactive)
REMARK    1  A    between atoms: C_2  and  O_3 
REMARK    2  A    between atoms: O_3  and  C_4 
REMARK    3  A    between atoms: C_5  and  C_6 
REMARK    4  A    between atoms: N_7  and  N_8 
REMARK       I    between atoms: N_8  and  C_9 
REMARK    5  A    between atoms: C_9  and  C_10 
REMARK    6  A    between atoms: C_14  and  C_15 
ROOT
HETATM    1  C   UNL     1       7.565  29.503  58.218  1.00  0.00     0.121 A 
HETATM    2  N   UNL     1       6.303  29.179  57.800  1.00  0.00    -0.272 N 
HETATM    3  H   UNL     1       5.452  29.704  57.977  1.00  0.00     0.189 HD
HETATM    4  N   UNL     1       6.227  28.029  57.113  1.00  0.00    -0.174 NA
HETATM    5  C   UNL     1       7.487  27.568  57.088  1.00  0.00     0.090 A 
HETATM    6  C   UNL     1       8.365  28.496  57.714  1.00  0.00     0.071 A 
ENDROOT
BRANCH   1   7
HETATM    7  C   UNL     1       7.815  30.672  59.030  1.00  0.00     0.289 C 
HETATM    8  N   UNL     1       7.591  30.468  60.385  1.00  0.00    -0.242 N 
HETATM    9  H   UNL     1       7.320  29.541  60.689  1.00  0.00     0.192 HD
HETATM   10  O   UNL     1       8.163  31.723  58.506  1.00  0.00    -0.264 OA
BRANCH   8  11
HETATM   11  N   UNL     1       7.544  31.377  61.409  1.00  0.00    -0.183 NA
HETATM   12  C   UNL     1       6.465  31.562  62.101  1.00  0.00     0.153 C 
BRANCH  12  13
HETATM   13  C   UNL     1       6.454  32.508  63.247  1.00  0.00     0.016 A 
HETATM   14  C   UNL     1       5.238  33.005  63.750  1.00  0.00     0.080 A 
HETATM   15  C   UNL     1       5.267  33.871  64.850  1.00  0.00     0.037 A 
HETATM   16  C   UNL     1       6.484  34.241  65.434  1.00  0.00     0.003 A 
HETATM   17  C   UNL     1       7.684  33.751  64.926  1.00  0.00     0.001 A 
HETATM   18  C   UNL     1       7.671  32.886  63.835  1.00  0.00     0.016 A 
BRANCH  14  19
HETATM   19  O   UNL     1       4.092  32.593  63.123  1.00  0.00    -0.351 OA
BRANCH  19  20
HETATM   20  C   UNL     1       3.179  33.591  62.672  1.00  0.00     0.171 C 
HETATM   21  C   UNL     1       3.678  34.111  61.338  1.00  0.00     0.034 C 
ENDBRANCH  19  20
ENDBRANCH  14  19
ENDBRANCH  12  13
ENDBRANCH   8  11
ENDBRANCH   1   7
BRANCH   5  22
HETATM   22  C   UNL     1       7.832  26.295  56.455  1.00  0.00     0.005 A 
HETATM   23  C   UNL     1       7.574  26.040  55.074  1.00  0.00    -0.012 A 
HETATM   24  C   UNL     1       7.890  24.779  54.631  1.00  0.00    -0.012 A 
HETATM   25  C   UNL     1       7.057  26.908  54.075  1.00  0.00     0.013 A 
HETATM   26  C   UNL     1       7.703  24.336  53.334  1.00  0.00    -0.046 A 
HETATM   27  C   UNL     1       8.452  23.792  55.419  1.00  0.00    -0.046 A 
HETATM   28  C   UNL     1       7.173  25.163  52.355  1.00  0.00     0.008 A 
HETATM   29  C   UNL     1       8.155  22.924  53.197  1.00  0.00     0.044 A 
HETATM   30  C   UNL     1       6.858  26.469  52.750  1.00  0.00     0.001 A 
HETATM   31  C   UNL     1       8.681  22.556  54.619  1.00  0.00     0.044 A 
HETATM   32  C   UNL     1       8.747  24.015  56.755  1.00  0.00     0.009 A 
HETATM   33  C   UNL     1       8.424  25.285  57.258  1.00  0.00     0.015 A 
ENDBRANCH   5  22
TORSDOF 6
ENDMDL
MODEL 3
REMARK VINA RESULT:     -10.7      2.546     10.650
REMARK  6 active torsions:
REMARK  status: ('A' for Active; 'I' for Inactive)
REMARK    1  A    between atoms: C_2  and  O_3 
REMARK    2  A    between atoms: O_3  and  C_4 
REMARK    3  A    between atoms: C_5  and  C_6 
REMARK    4  A    between atoms: N_7  and  N_8 
REMARK       I    between atoms: N_8  and  C_9 
REMARK    5  A    between atoms: C_9  and  C_10 
REMARK    6  A    between atoms: C_14  and  C_15 
ROOT
HETATM    1  C   UNL     1       8.179  28.784  57.035  1.00  0.00     0.121 A 
HETATM    2  N   UNL     1       9.363  29.468  57.015  1.00  0.00    -0.272 N 
HETATM    3  H   UNL     1      10.090  29.402  56.307  1.00  0.00     0.189 HD
HETATM    4  N   UNL     1       9.554  30.276  58.069  1.00  0.00    -0.174 NA
HETATM    5  C   UNL     1       8.456  30.108  58.823  1.00  0.00     0.090 A 
HETATM    6  C   UNL     1       7.543  29.230  58.178  1.00  0.00     0.071 A 
ENDROOT
BRANCH   1   7
HETATM    7  C   UNL     1       7.846  27.818  56.013  1.00  0.00     0.289 C 
HETATM    8  N   UNL     1       7.583  26.548  56.509  1.00  0.00    -0.242 N 
HETATM    9  H   UNL     1       7.606  26.415  57.512  1.00  0.00     0.192 HD
HETATM   10  O   UNL     1       7.842  28.148  54.833  1.00  0.00    -0.264 OA
BRANCH   8  11
HETATM   11  N   UNL     1       7.422  25.365  55.839  1.00  0.00    -0.183 NA
HETATM   12  C   UNL     1       8.377  24.494  55.763  1.00  0.00     0.153 C 
BRANCH  12  13
HETATM   13  C   UNL     1       8.161  23.190  55.083  1.00  0.00     0.016 A 
HETATM   14  C   UNL     1       8.157  23.110  53.679  1.00  0.00     0.080 A 
HETATM   15  C   UNL     1       7.981  21.859  53.076  1.00  0.00     0.037 A 
HETATM   16  C   UNL     1       7.804  20.710  53.855  1.00  0.00     0.003 A 
HETATM   17  C   UNL     1       7.802  20.798  55.244  1.00  0.00     0.001 A 
HETATM   18  C   UNL     1       7.980  22.035  55.859  1.00  0.00     0.016 A 
BRANCH  14  19
HETATM   19  O   UNL     1       8.338  24.280  52.990  1.00  0.00    -0.351 OA
BRANCH  19  20
HETATM   20  C   UNL     1       7.472  24.550  51.890  1.00  0.00     0.171 C 
HETATM   21  C   UNL     1       6.158  25.066  52.447  1.00  0.00     0.034 C 
ENDBRANCH  19  20
ENDBRANCH  14  19
ENDBRANCH  12  13
ENDBRANCH   8  11
ENDBRANCH   1   7
BRANCH   5  22
HETATM   22  C   UNL     1       8.286  30.796  60.103  1.00  0.00     0.005 A 
HETATM   23  C   UNL     1       7.242  31.745  60.321  1.00  0.00    -0.012 A 
HETATM   24  C   UNL     1       7.242  32.361  61.549  1.00  0.00    -0.012 A 
HETATM   25  C   UNL     1       6.180  32.137  59.461  1.00  0.00     0.013 A 
HETATM   26  C   UNL     1       6.323  33.316  61.945  1.00  0.00    -0.046 A 
HETATM   27  C   UNL     1       8.150  32.094  62.556  1.00  0.00    -0.046 A 
HETATM   28  C   UNL     1       5.299  33.729  61.106  1.00  0.00     0.008 A 
HETATM   29  C   UNL     1       6.611  33.769  63.334  1.00  0.00     0.044 A 
HETATM   30  C   UNL     1       5.240  33.111  59.850  1.00  0.00     0.001 A 
HETATM   31  C   UNL     1       7.851  32.924  63.757  1.00  0.00     0.044 A 
HETATM   32  C   UNL     1       9.155  31.155  62.392  1.00  0.00     0.009 A 
HETATM   33  C   UNL     1       9.207  30.512  61.145  1.00  0.00     0.015 A 
ENDBRANCH   5  22
TORSDOF 6
ENDMDL
MODEL 4
REMARK VINA RESULT:     -10.4      2.359     10.547
REMARK  6 active torsions:
REMARK  status: ('A' for Active; 'I' for Inactive)
REMARK    1  A    between atoms: C_2  and  O_3 
REMARK    2  A    between atoms: O_3  and  C_4 
REMARK    3  A    between atoms: C_5  and  C_6 
REMARK    4  A    between atoms: N_7  and  N_8 
REMARK       I    between atoms: N_8  and  C_9 
REMARK    5  A    between atoms: C_9  and  C_10 
REMARK    6  A    between atoms: C_14  and  C_15 
ROOT
HETATM    1  C   UNL     1       8.934  30.195  58.317  1.00  0.00     0.121 A 
HETATM    2  N   UNL     1       9.635  31.369  58.257  1.00  0.00    -0.272 N 
HETATM    3  H   UNL     1      10.348  31.616  57.576  1.00  0.00     0.189 HD
HETATM    4  N   UNL     1       9.336  32.241  59.231  1.00  0.00    -0.174 NA
HETATM    5  C   UNL     1       8.410  31.613  59.972  1.00  0.00     0.090 A 
HETATM    6  C   UNL     1       8.086  30.354  59.395  1.00  0.00     0.071 A 
ENDROOT
BRANCH   1   7
HETATM    7  C   UNL     1       9.184  29.118  57.386  1.00  0.00     0.289 C 
HETATM    8  N   UNL     1       8.387  28.001  57.597  1.00  0.00    -0.242 N 
HETATM    9  H   UNL     1       7.692  28.045  58.333  1.00  0.00     0.192 HD
HETATM   10  O   UNL     1      10.054  29.232  56.531  1.00  0.00    -0.264 OA
BRANCH   8  11
HETATM   11  N   UNL     1       8.470  26.750  57.045  1.00  0.00    -0.183 NA
HETATM   12  C   UNL     1       7.548  26.294  56.259  1.00  0.00     0.153 C 
BRANCH  12  13
HETATM   13  C   UNL     1       7.689  24.958  55.623  1.00  0.00     0.016 A 
HETATM   14  C   UNL     1       6.911  24.615  54.503  1.00  0.00     0.080 A 
HETATM   15  C   UNL     1       7.094  23.358  53.914  1.00  0.00     0.037 A 
HETATM   16  C   UNL     1       8.030  22.457  54.434  1.00  0.00     0.003 A 
HETATM   17  C   UNL     1       8.792  22.800  55.547  1.00  0.00     0.001 A 
HETATM   18  C   UNL     1       8.624  24.048  56.141  1.00  0.00     0.016 A 
BRANCH  14  19
HETATM   19  O   UNL     1       6.020  25.554  54.055  1.00  0.00    -0.351 OA
BRANCH  19  20
HETATM   20  C   UNL     1       4.970  25.123  53.191  1.00  0.00     0.171 C 
HETATM   21  C   UNL     1       5.248  25.678  51.807  1.00  0.00     0.034 C 
ENDBRANCH  19  20
ENDBRANCH  14  19
ENDBRANCH  12  13
ENDBRANCH   8  11
ENDBRANCH   1   7
BRANCH   5  22
HETATM   22  C   UNL     1       7.840  32.220  61.175  1.00  0.00     0.005 A 
HETATM   23  C   UNL     1       6.603  32.934  61.151  1.00  0.00    -0.012 A 
HETATM   24  C   UNL     1       6.222  33.507  62.340  1.00  0.00    -0.012 A 
HETATM   25  C   UNL     1       5.689  33.125  60.080  1.00  0.00     0.013 A 
HETATM   26  C   UNL     1       5.067  34.248  62.515  1.00  0.00    -0.046 A 
HETATM   27  C   UNL     1       6.934  33.404  63.520  1.00  0.00    -0.046 A 
HETATM   28  C   UNL     1       4.180  34.466  61.473  1.00  0.00     0.008 A 
HETATM   29  C   UNL     1       4.960  34.715  63.925  1.00  0.00     0.044 A 
HETATM   30  C   UNL     1       4.511  33.880  60.244  1.00  0.00     0.001 A 
HETATM   31  C   UNL     1       6.228  34.127  64.616  1.00  0.00     0.044 A 
HETATM   32  C   UNL     1       8.120  32.691  63.589  1.00  0.00     0.009 A 
HETATM   33  C   UNL     1       8.560  32.102  62.392  1.00  0.00     0.015 A 
ENDBRANCH   5  22
TORSDOF 6
ENDMDL
MODEL 5
REMARK VINA RESULT:     -10.4      1.598      2.618
REMARK  6 active torsions:
REMARK  status: ('A' for Active; 'I' for Inactive)
REMARK    1  A    between atoms: C_2  and  O_3 
REMARK    2  A    between atoms: O_3  and  C_4 
REMARK    3  A    between atoms: C_5  and  C_6 
REMARK    4  A    between atoms: N_7  and  N_8 
REMARK       I    between atoms: N_8  and  C_9 
REMARK    5  A    between atoms: C_9  and  C_10 
REMARK    6  A    between atoms: C_14  and  C_15 
ROOT
HETATM    1  C   UNL     1       7.465  28.232  56.005  1.00  0.00     0.121 A 
HETATM    2  N   UNL     1       7.620  28.530  54.679  1.00  0.00    -0.272 N 
HETATM    3  H   UNL     1       7.629  29.456  54.261  1.00  0.00     0.189 HD
HETATM    4  N   UNL     1       7.743  27.456  53.883  1.00  0.00    -0.174 NA
HETATM    5  C   UNL     1       7.652  26.408  54.716  1.00  0.00     0.090 A 
HETATM    6  C   UNL     1       7.541  26.854  56.061  1.00  0.00     0.071 A 
ENDROOT
BRANCH   1   7
HETATM    7  C   UNL     1       7.247  29.267  56.991  1.00  0.00     0.289 C 
HETATM    8  N   UNL     1       8.108  29.192  58.078  1.00  0.00    -0.242 N 
HETATM    9  H   UNL     1       8.818  28.471  58.074  1.00  0.00     0.192 HD
HETATM   10  O   UNL     1       6.350  30.086  56.835  1.00  0.00    -0.264 OA
BRANCH   8  11
HETATM   11  N   UNL     1       8.075  29.872  59.267  1.00  0.00    -0.183 NA
HETATM   12  C   UNL     1       7.672  31.101  59.333  1.00  0.00     0.153 C 
BRANCH  12  13
HETATM   13  C   UNL     1       7.588  31.800  60.642  1.00  0.00     0.016 A 
HETATM   14  C   UNL     1       6.541  32.702  60.903  1.00  0.00     0.080 A 
HETATM   15  C   UNL     1       6.479  33.317  62.159  1.00  0.00     0.037 A 
HETATM   16  C   UNL     1       7.444  33.045  63.135  1.00  0.00     0.003 A 
HETATM   17  C   UNL     1       8.482  32.157  62.867  1.00  0.00     0.001 A 
HETATM   18  C   UNL     1       8.555  31.534  61.624  1.00  0.00     0.016 A 
BRANCH  14  19
HETATM   19  O   UNL     1       5.636  32.911  59.896  1.00  0.00    -0.351 OA
BRANCH  19  20
HETATM   20  C   UNL     1       4.333  32.350  60.039  1.00  0.00     0.171 C 
HETATM   21  C   UNL     1       3.339  33.494  60.114  1.00  0.00     0.034 C 
ENDBRANCH  19  20
ENDBRANCH  14  19
ENDBRANCH  12  13
ENDBRANCH   8  11
ENDBRANCH   1   7
BRANCH   5  22
HETATM   22  C   UNL     1       7.701  25.028  54.230  1.00  0.00     0.005 A 
HETATM   23  C   UNL     1       7.942  23.925  55.104  1.00  0.00    -0.012 A 
HETATM   24  C   UNL     1       8.026  22.694  54.501  1.00  0.00    -0.012 A 
HETATM   25  C   UNL     1       8.088  23.905  56.517  1.00  0.00     0.013 A 
HETATM   26  C   UNL     1       8.267  21.509  55.173  1.00  0.00    -0.046 A 
HETATM   27  C   UNL     1       7.864  22.476  53.146  1.00  0.00    -0.046 A 
HETATM   28  C   UNL     1       8.439  21.477  56.548  1.00  0.00     0.008 A 
HETATM   29  C   UNL     1       8.290  20.367  54.218  1.00  0.00     0.044 A 
HETATM   30  C   UNL     1       8.337  22.705  57.214  1.00  0.00     0.001 A 
HETATM   31  C   UNL     1       8.001  21.025  52.834  1.00  0.00     0.044 A 
HETATM   32  C   UNL     1       7.596  23.518  52.273  1.00  0.00     0.009 A 
HETATM   33  C   UNL     1       7.519  24.799  52.842  1.00  0.00     0.015 A 
ENDBRANCH   5  22
TORSDOF 6
ENDMDL
MODEL 6
REMARK VINA RESULT:     -10.3      1.839      3.338
REMARK  6 active torsions:
REMARK  status: ('A' for Active; 'I' for Inactive)
REMARK    1  A    between atoms: C_2  and  O_3 
REMARK    2  A    between atoms: O_3  and  C_4 
REMARK    3  A    between atoms: C_5  and  C_6 
REMARK    4  A    between atoms: N_7  and  N_8 
REMARK       I    between atoms: N_8  and  C_9 
REMARK    5  A    between atoms: C_9  and  C_10 
REMARK    6  A    between atoms: C_14  and  C_15 
ROOT
HETATM    1  C   UNL     1       7.283  28.926  57.672  1.00  0.00     0.121 A 
HETATM    2  N   UNL     1       6.027  28.452  57.408  1.00  0.00    -0.272 N 
HETATM    3  H   UNL     1       5.148  28.933  57.578  1.00  0.00     0.189 HD
HETATM    4  N   UNL     1       6.001  27.210  56.899  1.00  0.00    -0.174 NA
HETATM    5  C   UNL     1       7.291  26.845  56.838  1.00  0.00     0.090 A 
HETATM    6  C   UNL     1       8.128  27.917  57.253  1.00  0.00     0.071 A 
ENDROOT
BRANCH   1   7
HETATM    7  C   UNL     1       7.489  30.217  58.288  1.00  0.00     0.289 C 
HETATM    8  N   UNL     1       6.334  30.772  58.821  1.00  0.00    -0.242 N 
HETATM    9  H   UNL     1       5.480  30.231  58.773  1.00  0.00     0.192 HD
HETATM   10  O   UNL     1       8.601  30.731  58.281  1.00  0.00    -0.264 OA
BRANCH   8  11
HETATM   11  N   UNL     1       6.114  32.035  59.303  1.00  0.00    -0.183 NA
HETATM   12  C   UNL     1       5.083  32.309  60.038  1.00  0.00     0.153 C 
BRANCH  12  13
HETATM   13  C   UNL     1       4.895  33.672  60.600  1.00  0.00     0.016 A 
HETATM   14  C   UNL     1       5.403  33.996  61.871  1.00  0.00     0.080 A 
HETATM   15  C   UNL     1       5.232  35.299  62.353  1.00  0.00     0.037 A 
HETATM   16  C   UNL     1       4.564  36.261  61.587  1.00  0.00     0.003 A 
HETATM   17  C   UNL     1       4.058  35.932  60.334  1.00  0.00     0.001 A 
HETATM   18  C   UNL     1       4.223  34.640  59.839  1.00  0.00     0.016 A 
BRANCH  14  19
HETATM   19  O   UNL     1       6.046  32.999  62.555  1.00  0.00    -0.351 OA
BRANCH  19  20
HETATM   20  C   UNL     1       6.137  33.110  63.974  1.00  0.00     0.171 C 
HETATM   21  C   UNL     1       7.607  33.158  64.344  1.00  0.00     0.034 C 
ENDBRANCH  19  20
ENDBRANCH  14  19
ENDBRANCH  12  13
ENDBRANCH   8  11
ENDBRANCH   1   7
BRANCH   5  22
HETATM   22  C   UNL     1       7.697  25.521  56.366  1.00  0.00     0.005 A 
HETATM   23  C   UNL     1       7.705  25.180  54.979  1.00  0.00    -0.012 A 
HETATM   24  C   UNL     1       8.047  23.882  54.686  1.00  0.00    -0.012 A 
HETATM   25  C   UNL     1       7.433  25.992  53.845  1.00  0.00     0.013 A 
HETATM   26  C   UNL     1       8.099  23.357  53.408  1.00  0.00    -0.046 A 
HETATM   27  C   UNL     1       8.399  22.935  55.630  1.00  0.00    -0.046 A 
HETATM   28  C   UNL     1       7.809  24.130  52.294  1.00  0.00     0.008 A 
HETATM   29  C   UNL     1       8.507  21.926  53.450  1.00  0.00     0.044 A 
HETATM   30  C   UNL     1       7.479  25.469  52.537  1.00  0.00     0.001 A 
HETATM   31  C   UNL     1       8.726  21.641  54.968  1.00  0.00     0.044 A 
HETATM   32  C   UNL     1       8.435  23.240  56.981  1.00  0.00     0.009 A 
HETATM   33  C   UNL     1       8.075  24.552  57.331  1.00  0.00     0.015 A 
ENDBRANCH   5  22
TORSDOF 6
ENDMDL
MODEL 7
REMARK VINA RESULT:     -10.0      2.240     10.310
REMARK  6 active torsions:
REMARK  status: ('A' for Active; 'I' for Inactive)
REMARK    1  A    between atoms: C_2  and  O_3 
REMARK    2  A    between atoms: O_3  and  C_4 
REMARK    3  A    between atoms: C_5  and  C_6 
REMARK    4  A    between atoms: N_7  and  N_8 
REMARK       I    between atoms: N_8  and  C_9 
REMARK    5  A    between atoms: C_9  and  C_10 
REMARK    6  A    between atoms: C_14  and  C_15 
ROOT
HETATM    1  C   UNL     1       8.599  30.299  58.192  1.00  0.00     0.121 A 
HETATM    2  N   UNL     1       9.394  31.367  58.504  1.00  0.00    -0.272 N 
HETATM    3  H   UNL     1      10.364  31.503  58.229  1.00  0.00     0.189 HD
HETATM    4  N   UNL     1       8.801  32.293  59.273  1.00  0.00    -0.174 NA
HETATM    5  C   UNL     1       7.568  31.809  59.490  1.00  0.00     0.090 A 
HETATM    6  C   UNL     1       7.382  30.593  58.777  1.00  0.00     0.071 A 
ENDROOT
BRANCH   1   7
HETATM    7  C   UNL     1       9.102  29.179  57.431  1.00  0.00     0.289 C 
HETATM    8  N   UNL     1       8.166  28.173  57.232  1.00  0.00    -0.242 N 
HETATM    9  H   UNL     1       7.229  28.317  57.588  1.00  0.00     0.192 HD
HETATM   10  O   UNL     1      10.266  29.167  57.051  1.00  0.00    -0.264 OA
BRANCH   8  11
HETATM   11  N   UNL     1       8.334  26.909  56.732  1.00  0.00    -0.183 NA
HETATM   12  C   UNL     1       7.414  26.006  56.850  1.00  0.00     0.153 C 
BRANCH  12  13
HETATM   13  C   UNL     1       7.593  24.659  56.247  1.00  0.00     0.016 A 
HETATM   14  C   UNL     1       7.017  24.353  55.001  1.00  0.00     0.080 A 
HETATM   15  C   UNL     1       7.234  23.083  54.452  1.00  0.00     0.037 A 
HETATM   16  C   UNL     1       8.005  22.134  55.133  1.00  0.00     0.003 A 
HETATM   17  C   UNL     1       8.565  22.441  56.369  1.00  0.00     0.001 A 
HETATM   18  C   UNL     1       8.362  23.701  56.926  1.00  0.00     0.016 A 
BRANCH  14  19
HETATM   19  O   UNL     1       6.280  25.338  54.399  1.00  0.00    -0.351 OA
BRANCH  19  20
HETATM   20  C   UNL     1       6.646  25.738  53.080  1.00  0.00     0.171 C 
HETATM   21  C   UNL     1       5.376  25.844  52.256  1.00  0.00     0.034 C 
ENDBRANCH  19  20
ENDBRANCH  14  19
ENDBRANCH  12  13
ENDBRANCH   8  11
ENDBRANCH   1   7
BRANCH   5  22
HETATM   22  C   UNL     1       6.599  32.513  60.330  1.00  0.00     0.005 A 
HETATM   23  C   UNL     1       6.819  32.729  61.725  1.00  0.00    -0.012 A 
HETATM   24  C   UNL     1       5.796  33.346  62.402  1.00  0.00    -0.012 A 
HETATM   25  C   UNL     1       7.956  32.420  62.520  1.00  0.00     0.013 A 
HETATM   26  C   UNL     1       5.814  33.630  63.755  1.00  0.00    -0.046 A 
HETATM   27  C   UNL     1       4.621  33.779  61.816  1.00  0.00    -0.046 A 
HETATM   28  C   UNL     1       6.904  33.309  64.550  1.00  0.00     0.008 A 
HETATM   29  C   UNL     1       4.550  34.304  64.161  1.00  0.00     0.044 A 
HETATM   30  C   UNL     1       7.986  32.701  63.901  1.00  0.00     0.001 A 
HETATM   31  C   UNL     1       3.740  34.419  62.833  1.00  0.00     0.044 A 
HETATM   32  C   UNL     1       4.388  33.616  60.460  1.00  0.00     0.009 A 
HETATM   33  C   UNL     1       5.399  32.973  59.729  1.00  0.00     0.015 A 
ENDBRANCH   5  22
TORSDOF 6
ENDMDL
MODEL 8
REMARK VINA RESULT:      -9.9      2.751     10.312
REMARK  6 active torsions:
REMARK  status: ('A' for Active; 'I' for Inactive)
REMARK    1  A    between atoms: C_2  and  O_3 
REMARK    2  A    between atoms: O_3  and  C_4 
REMARK    3  A    between atoms: C_5  and  C_6 
REMARK    4  A    between atoms: N_7  and  N_8 
REMARK       I    between atoms: N_8  and  C_9 
REMARK    5  A    between atoms: C_9  and  C_10 
REMARK    6  A    between atoms: C_14  and  C_15 
ROOT
HETATM    1  C   UNL     1       6.131  29.591  56.293  1.00  0.00     0.121 A 
HETATM    2  N   UNL     1       5.730  30.808  55.815  1.00  0.00    -0.272 N 
HETATM    3  H   UNL     1       5.518  31.041  54.849  1.00  0.00     0.189 HD
HETATM    4  N   UNL     1       5.648  31.769  56.749  1.00  0.00    -0.174 NA
HETATM    5  C   UNL     1       6.024  31.164  57.886  1.00  0.00     0.090 A 
HETATM    6  C   UNL     1       6.273  29.784  57.653  1.00  0.00     0.071 A 
ENDROOT
BRANCH   1   7
HETATM    7  C   UNL     1       6.341  28.465  55.411  1.00  0.00     0.289 C 
HETATM    8  N   UNL     1       7.055  27.426  55.992  1.00  0.00    -0.242 N 
HETATM    9  H   UNL     1       7.327  27.520  56.963  1.00  0.00     0.192 HD
HETATM   10  O   UNL     1       5.925  28.499  54.260  1.00  0.00    -0.264 OA
BRANCH   8  11
HETATM   11  N   UNL     1       7.593  26.306  55.416  1.00  0.00    -0.183 NA
HETATM   12  C   UNL     1       7.009  25.153  55.503  1.00  0.00     0.153 C 
BRANCH  12  13
HETATM   13  C   UNL     1       7.579  23.963  54.820  1.00  0.00     0.016 A 
HETATM   14  C   UNL     1       7.188  23.637  53.509  1.00  0.00     0.080 A 
HETATM   15  C   UNL     1       7.770  22.526  52.887  1.00  0.00     0.037 A 
HETATM   16  C   UNL     1       8.719  21.749  53.561  1.00  0.00     0.003 A 
HETATM   17  C   UNL     1       9.096  22.072  54.860  1.00  0.00     0.001 A 
HETATM   18  C   UNL     1       8.529  23.177  55.490  1.00  0.00     0.016 A 
BRANCH  14  19
HETATM   19  O   UNL     1       6.255  24.450  52.920  1.00  0.00    -0.351 OA
BRANCH  19  20
HETATM   20  C   UNL     1       6.682  25.298  51.856  1.00  0.00     0.171 C 
HETATM   21  C   UNL     1       5.474  26.075  51.366  1.00  0.00     0.034 C 
ENDBRANCH  19  20
ENDBRANCH  14  19
ENDBRANCH  12  13
ENDBRANCH   8  11
ENDBRANCH   1   7
BRANCH   5  22
HETATM   22  C   UNL     1       6.108  31.889  59.155  1.00  0.00     0.005 A 
HETATM   23  C   UNL     1       7.154  31.649  60.097  1.00  0.00    -0.012 A 
HETATM   24  C   UNL     1       7.071  32.354  61.273  1.00  0.00    -0.012 A 
HETATM   25  C   UNL     1       8.290  30.801  59.992  1.00  0.00     0.013 A 
HETATM   26  C   UNL     1       7.978  32.251  62.312  1.00  0.00    -0.046 A 
HETATM   27  C   UNL     1       6.080  33.272  61.565  1.00  0.00    -0.046 A 
HETATM   28  C   UNL     1       9.076  31.406  62.236  1.00  0.00     0.008 A 
HETATM   29  C   UNL     1       7.592  33.155  63.430  1.00  0.00     0.044 A 
HETATM   30  C   UNL     1       9.220  30.683  61.044  1.00  0.00     0.001 A 
HETATM   31  C   UNL     1       6.302  33.863  62.914  1.00  0.00     0.044 A 
HETATM   32  C   UNL     1       5.068  33.554  60.661  1.00  0.00     0.009 A 
HETATM   33  C   UNL     1       5.101  32.843  59.451  1.00  0.00     0.015 A 
ENDBRANCH   5  22
TORSDOF 6
ENDMDL
MODEL 9
REMARK VINA RESULT:      -9.8      2.124      3.113
REMARK  6 active torsions:
REMARK  status: ('A' for Active; 'I' for Inactive)
REMARK    1  A    between atoms: C_2  and  O_3 
REMARK    2  A    between atoms: O_3  and  C_4 
REMARK    3  A    between atoms: C_5  and  C_6 
REMARK    4  A    between atoms: N_7  and  N_8 
REMARK       I    between atoms: N_8  and  C_9 
REMARK    5  A    between atoms: C_9  and  C_10 
REMARK    6  A    between atoms: C_14  and  C_15 
ROOT
HETATM    1  C   UNL     1       7.438  29.071  57.867  1.00  0.00     0.121 A 
HETATM    2  N   UNL     1       6.160  28.627  57.663  1.00  0.00    -0.272 N 
HETATM    3  H   UNL     1       5.302  29.113  57.908  1.00  0.00     0.189 HD
HETATM    4  N   UNL     1       6.081  27.409  57.105  1.00  0.00    -0.174 NA
HETATM    5  C   UNL     1       7.358  27.028  56.947  1.00  0.00     0.090 A 
HETATM    6  C   UNL     1       8.238  28.068  57.354  1.00  0.00     0.071 A 
ENDROOT
BRANCH   1   7
HETATM    7  C   UNL     1       7.704  30.331  58.523  1.00  0.00     0.289 C 
HETATM    8  N   UNL     1       6.591  30.887  59.138  1.00  0.00    -0.242 N 
HETATM    9  H   UNL     1       5.723  30.365  59.113  1.00  0.00     0.192 HD
HETATM   10  O   UNL     1       8.825  30.823  58.479  1.00  0.00    -0.264 OA
BRANCH   8  11
HETATM   11  N   UNL     1       6.423  32.133  59.681  1.00  0.00    -0.183 NA
HETATM   12  C   UNL     1       5.441  32.397  60.482  1.00  0.00     0.153 C 
BRANCH  12  13
HETATM   13  C   UNL     1       5.313  33.739  61.107  1.00  0.00     0.016 A 
HETATM   14  C   UNL     1       4.447  34.702  60.560  1.00  0.00     0.080 A 
HETATM   15  C   UNL     1       4.331  35.944  61.195  1.00  0.00     0.037 A 
HETATM   16  C   UNL     1       5.068  36.224  62.351  1.00  0.00     0.003 A 
HETATM   17  C   UNL     1       5.929  35.269  62.884  1.00  0.00     0.001 A 
HETATM   18  C   UNL     1       6.052  34.028  62.265  1.00  0.00     0.016 A 
BRANCH  14  19
HETATM   19  O   UNL     1       3.760  34.347  59.429  1.00  0.00    -0.351 OA
BRANCH  19  20
HETATM   20  C   UNL     1       4.062  35.036  58.217  1.00  0.00     0.171 C 
HETATM   21  C   UNL     1       3.321  34.343  57.090  1.00  0.00     0.034 C 
ENDBRANCH  19  20
ENDBRANCH  14  19
ENDBRANCH  12  13
ENDBRANCH   8  11
ENDBRANCH   1   7
BRANCH   5  22
HETATM   22  C   UNL     1       7.712  25.719  56.396  1.00  0.00     0.005 A 
HETATM   23  C   UNL     1       7.659  25.448  54.995  1.00  0.00    -0.012 A 
HETATM   24  C   UNL     1       7.955  24.159  54.625  1.00  0.00    -0.012 A 
HETATM   25  C   UNL     1       7.366  26.322  53.914  1.00  0.00     0.013 A 
HETATM   26  C   UNL     1       7.945  23.697  53.322  1.00  0.00    -0.046 A 
HETATM   27  C   UNL     1       8.318  23.158  55.507  1.00  0.00    -0.046 A 
HETATM   28  C   UNL     1       7.633  24.532  52.259  1.00  0.00     0.008 A 
HETATM   29  C   UNL     1       8.317  22.256  53.278  1.00  0.00     0.044 A 
HETATM   30  C   UNL     1       7.348  25.865  52.581  1.00  0.00     0.001 A 
HETATM   31  C   UNL     1       8.586  21.890  54.770  1.00  0.00     0.044 A 
HETATM   32  C   UNL     1       8.412  23.394  56.869  1.00  0.00     0.009 A 
HETATM   33  C   UNL     1       8.101  24.694  57.296  1.00  0.00     0.015 A 
ENDBRANCH   5  22
TORSDOF 6
ENDMDL
MODEL 10
REMARK VINA RESULT:      -9.8      1.846      3.618
REMARK  6 active torsions:
REMARK  status: ('A' for Active; 'I' for Inactive)
REMARK    1  A    between atoms: C_2  and  O_3 
REMARK    2  A    between atoms: O_3  and  C_4 
REMARK    3  A    between atoms: C_5  and  C_6 
REMARK    4  A    between atoms: N_7  and  N_8 
REMARK       I    between atoms: N_8  and  C_9 
REMARK    5  A    between atoms: C_9  and  C_10 
REMARK    6  A    between atoms: C_14  and  C_15 
ROOT
HETATM    1  C   UNL     1       6.373  28.032  57.220  1.00  0.00     0.121 A 
HETATM    2  N   UNL     1       7.629  28.006  57.761  1.00  0.00    -0.272 N 
HETATM    3  H   UNL     1       8.093  28.763  58.257  1.00  0.00     0.189 HD
HETATM    4  N   UNL     1       8.289  26.853  57.571  1.00  0.00    -0.174 NA
HETATM    5  C   UNL     1       7.440  26.093  56.863  1.00  0.00     0.090 A 
HETATM    6  C   UNL     1       6.205  26.773  56.678  1.00  0.00     0.071 A 
ENDROOT
BRANCH   1   7
HETATM    7  C   UNL     1       5.553  29.221  57.272  1.00  0.00     0.289 C 
HETATM    8  N   UNL     1       6.103  30.247  58.028  1.00  0.00    -0.242 N 
HETATM    9  H   UNL     1       7.018  30.100  58.434  1.00  0.00     0.192 HD
HETATM   10  O   UNL     1       4.469  29.245  56.702  1.00  0.00    -0.264 OA
BRANCH   8  11
HETATM   11  N   UNL     1       5.539  31.423  58.447  1.00  0.00    -0.183 NA
HETATM   12  C   UNL     1       5.687  31.850  59.660  1.00  0.00     0.153 C 
BRANCH  12  13
HETATM   13  C   UNL     1       5.117  33.158  60.076  1.00  0.00     0.016 A 
HETATM   14  C   UNL     1       5.258  33.609  61.401  1.00  0.00     0.080 A 
HETATM   15  C   UNL     1       4.735  34.861  61.746  1.00  0.00     0.037 A 
HETATM   16  C   UNL     1       4.077  35.647  60.793  1.00  0.00     0.003 A 
HETATM   17  C   UNL     1       3.935  35.191  59.486  1.00  0.00     0.001 A 
HETATM   18  C   UNL     1       4.454  33.950  59.126  1.00  0.00     0.016 A 
BRANCH  14  19
HETATM   19  O   UNL     1       5.917  32.782  62.271  1.00  0.00    -0.351 OA
BRANCH  19  20
HETATM   20  C   UNL     1       7.118  33.261  62.873  1.00  0.00     0.171 C 
HETATM   21  C   UNL     1       8.136  32.137  62.840  1.00  0.00     0.034 C 
ENDBRANCH  19  20
ENDBRANCH  14  19
ENDBRANCH  12  13
ENDBRANCH   8  11
ENDBRANCH   1   7
BRANCH   5  22
HETATM   22  C   UNL     1       7.800  24.749  56.410  1.00  0.00     0.005 A 
HETATM   23  C   UNL     1       7.839  24.400  55.025  1.00  0.00    -0.012 A 
HETATM   24  C   UNL     1       8.129  23.087  54.749  1.00  0.00    -0.012 A 
HETATM   25  C   UNL     1       7.644  25.219  53.880  1.00  0.00     0.013 A 
HETATM   26  C   UNL     1       8.201  22.553  53.475  1.00  0.00    -0.046 A 
HETATM   27  C   UNL     1       8.405  22.129  55.707  1.00  0.00    -0.046 A 
HETATM   28  C   UNL     1       7.985  23.333  52.349  1.00  0.00     0.008 A 
HETATM   29  C   UNL     1       8.540  21.105  53.537  1.00  0.00     0.044 A 
HETATM   30  C   UNL     1       7.710  24.688  52.576  1.00  0.00     0.001 A 
HETATM   31  C   UNL     1       8.693  20.818  55.062  1.00  0.00     0.044 A 
HETATM   32  C   UNL     1       8.408  22.439  57.058  1.00  0.00     0.009 A 
HETATM   33  C   UNL     1       8.099  23.768  57.390  1.00  0.00     0.015 A 
ENDBRANCH   5  22
TORSDOF 6
ENDMDL
