MODEL 1
REMARK VINA RESULT:      -9.9      0.000      0.000
REMARK  5 active torsions:
REMARK  status: ('A' for Active; 'I' for Inactive)
REMARK    1  A    between atoms: C_4  and  N_5 
REMARK       I    between atoms: N_5  and  C_6 
REMARK       I    between atoms: C_6  and  N_7 
REMARK    2  A    between atoms: N_7  and  C_8 
REMARK    3  A    between atoms: C_8  and  C_9 
REMARK       I    between atoms: C_9  and  N_10 
REMARK    4  A    between atoms: N_10  and  C_11 
REMARK    5  A    between atoms: C_16  and  C_17 
ROOT
HETATM    1  C   UNL     1       6.744  28.985  56.166  1.00  0.00     0.239 C 
HETATM    2  N   UNL     1       7.759  28.755  57.079  1.00  0.00    -0.325 N 
HETATM    3  O   UNL     1       6.114  30.026  56.009  1.00  0.00    -0.271 OA
HETATM    4  H   UNL     1       7.954  27.769  57.256  1.00  0.00     0.169 HD
ENDROOT
BRANCH   1   5
HETATM    5  C   UNL     1       6.390  27.730  55.362  1.00  0.00     0.227 C 
BRANCH   5   6
HETATM    6  N   UNL     1       7.411  26.704  55.481  1.00  0.00    -0.334 N 
HETATM    7  C   UNL     1       7.057  25.374  55.404  1.00  0.00     0.321 C 
HETATM    8  N   UNL     1       8.147  24.567  55.617  1.00  0.00    -0.309 N 
HETATM    9  O   UNL     1       5.901  25.028  55.192  1.00  0.00    -0.247 OA
HETATM   10  H   UNL     1       8.918  25.012  56.093  1.00  0.00     0.170 HD
HETATM   11  H   UNL     1       8.315  26.935  55.093  1.00  0.00     0.164 HD
BRANCH   8  12
HETATM   12  C   UNL     1       8.209  23.166  55.487  1.00  0.00     0.036 A 
HETATM   13  C   UNL     1       8.199  22.505  54.256  1.00  0.00     0.036 A 
HETATM   14  C   UNL     1       8.301  21.106  54.190  1.00  0.00    -0.060 A 
HETATM   15  C   UNL     1       8.274  20.408  52.863  1.00  0.00     0.048 C 
HETATM   16  C   UNL     1       8.375  20.369  55.377  1.00  0.00     0.007 A 
HETATM   17  C   UNL     1       8.391  21.021  56.609  1.00  0.00     0.003 A 
HETATM   18  C   UNL     1       8.320  22.414  56.662  1.00  0.00     0.029 A 
ENDBRANCH   8  12
ENDBRANCH   5   6
ENDBRANCH   1   5
BRANCH   2  19
HETATM   19  C   UNL     1       8.457  29.698  57.865  1.00  0.00     0.041 A 
HETATM   20  C   UNL     1       9.689  30.197  57.388  1.00  0.00    -0.035 A 
HETATM   21  C   UNL     1      10.308  29.722  56.100  1.00  0.00     0.050 C 
HETATM   22  C   UNL     1      10.375  31.164  58.138  1.00  0.00     0.010 A 
HETATM   23  C   UNL     1       9.851  31.644  59.338  1.00  0.00     0.016 A 
HETATM   24  C   UNL     1       8.629  31.165  59.822  1.00  0.00     0.019 A 
HETATM   25  C   UNL     1       7.946  30.189  59.074  1.00  0.00     0.046 A 
BRANCH  24  26
HETATM   26  C   UNL     1       8.048  31.662  61.068  1.00  0.00     0.179 A 
HETATM   27  O   UNL     1       8.912  31.856  62.120  1.00  0.00    -0.302 OA
HETATM   28  C   UNL     1       8.118  32.323  63.123  1.00  0.00     0.163 A 
HETATM   29  C   UNL     1       6.834  32.391  62.651  1.00  0.00     0.144 A 
HETATM   30  N   UNL     1       6.796  31.974  61.345  1.00  0.00    -0.234 NA
ENDBRANCH  24  26
ENDBRANCH   2  19
TORSDOF 5
ENDMDL
MODEL 2
REMARK VINA RESULT:      -9.5      1.792     10.052
REMARK  5 active torsions:
REMARK  status: ('A' for Active; 'I' for Inactive)
REMARK    1  A    between atoms: C_4  and  N_5 
REMARK       I    between atoms: N_5  and  C_6 
REMARK       I    between atoms: C_6  and  N_7 
REMARK    2  A    between atoms: N_7  and  C_8 
REMARK    3  A    between atoms: C_8  and  C_9 
REMARK       I    between atoms: C_9  and  N_10 
REMARK    4  A    between atoms: N_10  and  C_11 
REMARK    5  A    between atoms: C_16  and  C_17 
ROOT
HETATM    1  C   UNL     1       8.936  29.338  57.123  1.00  0.00     0.239 C 
HETATM    2  N   UNL     1       8.165  28.379  57.757  1.00  0.00    -0.325 N 
HETATM    3  O   UNL     1       9.253  29.365  55.938  1.00  0.00    -0.271 OA
HETATM    4  H   UNL     1       8.253  28.370  58.774  1.00  0.00     0.169 HD
ENDROOT
BRANCH   1   5
HETATM    5  C   UNL     1       9.466  30.396  58.096  1.00  0.00     0.227 C 
BRANCH   5   6
HETATM    6  N   UNL     1       8.700  30.429  59.330  1.00  0.00    -0.334 N 
HETATM    7  C   UNL     1       8.576  31.612  60.026  1.00  0.00     0.321 C 
HETATM    8  N   UNL     1       7.885  31.418  61.197  1.00  0.00    -0.309 N 
HETATM    9  O   UNL     1       9.059  32.657  59.609  1.00  0.00    -0.247 OA
HETATM   10  H   UNL     1       7.861  30.462  61.521  1.00  0.00     0.170 HD
HETATM   11  H   UNL     1       7.895  29.818  59.366  1.00  0.00     0.164 HD
BRANCH   8  12
HETATM   12  C   UNL     1       7.447  32.403  62.102  1.00  0.00     0.036 A 
HETATM   13  C   UNL     1       6.509  33.387  61.776  1.00  0.00     0.036 A 
HETATM   14  C   UNL     1       6.084  34.321  62.735  1.00  0.00    -0.060 A 
HETATM   15  C   UNL     1       5.087  35.379  62.368  1.00  0.00     0.048 C 
HETATM   16  C   UNL     1       6.638  34.284  64.019  1.00  0.00     0.007 A 
HETATM   17  C   UNL     1       7.572  33.303  64.353  1.00  0.00     0.003 A 
HETATM   18  C   UNL     1       7.965  32.361  63.402  1.00  0.00     0.029 A 
ENDBRANCH   8  12
ENDBRANCH   5   6
ENDBRANCH   1   5
BRANCH   2  19
HETATM   19  C   UNL     1       7.382  27.360  57.172  1.00  0.00     0.041 A 
HETATM   20  C   UNL     1       6.006  27.597  56.968  1.00  0.00    -0.035 A 
HETATM   21  C   UNL     1       5.333  28.874  57.399  1.00  0.00     0.050 C 
HETATM   22  C   UNL     1       5.222  26.610  56.351  1.00  0.00     0.010 A 
HETATM   23  C   UNL     1       5.789  25.407  55.929  1.00  0.00     0.016 A 
HETATM   24  C   UNL     1       7.152  25.159  56.118  1.00  0.00     0.019 A 
HETATM   25  C   UNL     1       7.935  26.145  56.744  1.00  0.00     0.046 A 
BRANCH  24  26
HETATM   26  C   UNL     1       7.775  23.914  55.670  1.00  0.00     0.179 A 
HETATM   27  O   UNL     1       7.041  23.125  54.816  1.00  0.00    -0.302 OA
HETATM   28  C   UNL     1       7.853  22.062  54.561  1.00  0.00     0.163 A 
HETATM   29  C   UNL     1       9.019  22.243  55.256  1.00  0.00     0.144 A 
HETATM   30  N   UNL     1       8.967  23.421  55.955  1.00  0.00    -0.234 NA
ENDBRANCH  24  26
ENDBRANCH   2  19
TORSDOF 5
ENDMDL
MODEL 3
REMARK VINA RESULT:      -9.2      1.760      2.607
REMARK  5 active torsions:
REMARK  status: ('A' for Active; 'I' for Inactive)
REMARK    1  A    between atoms: C_4  and  N_5 
REMARK       I    between atoms: N_5  and  C_6 
REMARK       I    between atoms: C_6  and  N_7 
REMARK    2  A    between atoms: N_7  and  C_8 
REMARK    3  A    between atoms: C_8  and  C_9 
REMARK       I    between atoms: C_9  and  N_10 
REMARK    4  A    between atoms: N_10  and  C_11 
REMARK    5  A    between atoms: C_16  and  C_17 
ROOT
HETATM    1  C   UNL     1       7.202  29.285  57.710  1.00  0.00     0.239 C 
HETATM    2  N   UNL     1       7.324  30.626  58.031  1.00  0.00    -0.325 N 
HETATM    3  O   UNL     1       7.698  28.335  58.307  1.00  0.00    -0.271 OA
HETATM    4  H   UNL     1       7.092  31.267  57.270  1.00  0.00     0.169 HD
ENDROOT
BRANCH   1   5
HETATM    5  C   UNL     1       6.408  29.066  56.418  1.00  0.00     0.227 C 
BRANCH   5   6
HETATM    6  N   UNL     1       6.036  27.674  56.240  1.00  0.00    -0.334 N 
HETATM    7  C   UNL     1       6.826  26.847  55.471  1.00  0.00     0.321 C 
HETATM    8  N   UNL     1       6.265  25.599  55.363  1.00  0.00    -0.309 N 
HETATM    9  O   UNL     1       7.868  27.244  54.964  1.00  0.00    -0.247 OA
HETATM   10  H   UNL     1       5.275  25.561  55.560  1.00  0.00     0.170 HD
HETATM   11  H   UNL     1       5.588  27.232  57.032  1.00  0.00     0.164 HD
BRANCH   8  12
HETATM   12  C   UNL     1       6.837  24.455  54.774  1.00  0.00     0.036 A 
HETATM   13  C   UNL     1       7.181  23.307  55.495  1.00  0.00     0.036 A 
HETATM   14  C   UNL     1       7.714  22.183  54.843  1.00  0.00    -0.060 A 
HETATM   15  C   UNL     1       8.092  20.964  55.630  1.00  0.00     0.048 C 
HETATM   16  C   UNL     1       7.936  22.233  53.463  1.00  0.00     0.007 A 
HETATM   17  C   UNL     1       7.591  23.372  52.737  1.00  0.00     0.003 A 
HETATM   18  C   UNL     1       7.034  24.473  53.389  1.00  0.00     0.029 A 
ENDBRANCH   8  12
ENDBRANCH   5   6
ENDBRANCH   1   5
BRANCH   2  19
HETATM   19  C   UNL     1       7.834  31.198  59.217  1.00  0.00     0.041 A 
HETATM   20  C   UNL     1       9.223  31.427  59.317  1.00  0.00    -0.035 A 
HETATM   21  C   UNL     1      10.186  31.036  58.226  1.00  0.00     0.050 C 
HETATM   22  C   UNL     1       9.739  32.031  60.473  1.00  0.00     0.010 A 
HETATM   23  C   UNL     1       8.897  32.416  61.516  1.00  0.00     0.016 A 
HETATM   24  C   UNL     1       7.517  32.202  61.431  1.00  0.00     0.019 A 
HETATM   25  C   UNL     1       7.002  31.589  60.276  1.00  0.00     0.046 A 
BRANCH  24  26
HETATM   26  C   UNL     1       6.610  32.612  62.502  1.00  0.00     0.179 A 
HETATM   27  O   UNL     1       5.282  32.747  62.172  1.00  0.00    -0.302 OA
HETATM   28  C   UNL     1       4.683  33.118  63.337  1.00  0.00     0.163 A 
HETATM   29  C   UNL     1       5.649  33.193  64.305  1.00  0.00     0.144 A 
HETATM   30  N   UNL     1       6.869  32.867  63.771  1.00  0.00    -0.234 NA
ENDBRANCH  24  26
ENDBRANCH   2  19
TORSDOF 5
ENDMDL
MODEL 4
REMARK VINA RESULT:      -9.1      1.918     10.177
REMARK  5 active torsions:
REMARK  status: ('A' for Active; 'I' for Inactive)
REMARK    1  A    between atoms: C_4  and  N_5 
REMARK       I    between atoms: N_5  and  C_6 
REMARK       I    between atoms: C_6  and  N_7 
REMARK    2  A    between atoms: N_7  and  C_8 
REMARK    3  A    between atoms: C_8  and  C_9 
REMARK       I    between atoms: C_9  and  N_10 
REMARK    4  A    between atoms: N_10  and  C_11 
REMARK    5  A    between atoms: C_16  and  C_17 
ROOT
HETATM    1  C   UNL     1       6.770  28.423  56.719  1.00  0.00     0.239 C 
HETATM    2  N   UNL     1       7.047  28.063  55.411  1.00  0.00    -0.325 N 
HETATM    3  O   UNL     1       5.864  27.994  57.427  1.00  0.00    -0.271 OA
HETATM    4  H   UNL     1       7.641  28.723  54.907  1.00  0.00     0.169 HD
ENDROOT
BRANCH   1   5
HETATM    5  C   UNL     1       7.696  29.533  57.226  1.00  0.00     0.227 C 
BRANCH   5   6
HETATM    6  N   UNL     1       7.667  29.645  58.674  1.00  0.00    -0.334 N 
HETATM    7  C   UNL     1       7.541  30.885  59.262  1.00  0.00     0.321 C 
HETATM    8  N   UNL     1       7.612  30.785  60.629  1.00  0.00    -0.309 N 
HETATM    9  O   UNL     1       7.408  31.903  58.593  1.00  0.00    -0.247 OA
HETATM   10  H   UNL     1       8.046  29.940  60.970  1.00  0.00     0.170 HD
HETATM   11  H   UNL     1       7.217  28.884  59.166  1.00  0.00     0.164 HD
BRANCH   8  12
HETATM   12  C   UNL     1       7.394  31.809  61.571  1.00  0.00     0.036 A 
HETATM   13  C   UNL     1       6.466  32.838  61.390  1.00  0.00     0.036 A 
HETATM   14  C   UNL     1       6.268  33.811  62.384  1.00  0.00    -0.060 A 
HETATM   15  C   UNL     1       5.279  34.917  62.171  1.00  0.00     0.048 C 
HETATM   16  C   UNL     1       7.039  33.764  63.550  1.00  0.00     0.007 A 
HETATM   17  C   UNL     1       7.963  32.738  63.740  1.00  0.00     0.003 A 
HETATM   18  C   UNL     1       8.131  31.759  62.760  1.00  0.00     0.029 A 
ENDBRANCH   8  12
ENDBRANCH   5   6
ENDBRANCH   1   5
BRANCH   2  19
HETATM   19  C   UNL     1       6.524  26.979  54.674  1.00  0.00     0.041 A 
HETATM   20  C   UNL     1       5.478  27.224  53.759  1.00  0.00    -0.035 A 
HETATM   21  C   UNL     1       4.866  28.588  53.579  1.00  0.00     0.050 C 
HETATM   22  C   UNL     1       4.975  26.164  52.989  1.00  0.00     0.010 A 
HETATM   23  C   UNL     1       5.502  24.878  53.111  1.00  0.00     0.016 A 
HETATM   24  C   UNL     1       6.543  24.619  54.008  1.00  0.00     0.019 A 
HETATM   25  C   UNL     1       7.040  25.680  54.785  1.00  0.00     0.046 A 
BRANCH  24  26
HETATM   26  C   UNL     1       7.125  23.285  54.143  1.00  0.00     0.179 A 
HETATM   27  O   UNL     1       7.442  22.626  52.979  1.00  0.00    -0.302 OA
HETATM   28  C   UNL     1       7.965  21.440  53.396  1.00  0.00     0.163 A 
HETATM   29  C   UNL     1       7.943  21.426  54.766  1.00  0.00     0.144 A 
HETATM   30  N   UNL     1       7.413  22.600  55.235  1.00  0.00    -0.234 NA
ENDBRANCH  24  26
ENDBRANCH   2  19
TORSDOF 5
ENDMDL
MODEL 5
REMARK VINA RESULT:      -9.1      2.562     10.247
REMARK  5 active torsions:
REMARK  status: ('A' for Active; 'I' for Inactive)
REMARK    1  A    between atoms: C_4  and  N_5 
REMARK       I    between atoms: N_5  and  C_6 
REMARK       I    between atoms: C_6  and  N_7 
REMARK    2  A    between atoms: N_7  and  C_8 
REMARK    3  A    between atoms: C_8  and  C_9 
REMARK       I    between atoms: C_9  and  N_10 
REMARK    4  A    between atoms: N_10  and  C_11 
REMARK    5  A    between atoms: C_16  and  C_17 
ROOT
HETATM    1  C   UNL     1       7.403  28.795  57.112  1.00  0.00     0.239 C 
HETATM    2  N   UNL     1       8.040  28.068  56.120  1.00  0.00    -0.325 N 
HETATM    3  O   UNL     1       6.197  28.850  57.329  1.00  0.00    -0.271 OA
HETATM    4  H   UNL     1       8.994  28.371  55.919  1.00  0.00     0.169 HD
ENDROOT
BRANCH   1   5
HETATM    5  C   UNL     1       8.382  29.647  57.927  1.00  0.00     0.227 C 
BRANCH   5   6
HETATM    6  N   UNL     1       7.940  29.816  59.300  1.00  0.00    -0.334 N 
HETATM    7  C   UNL     1       7.916  31.075  59.861  1.00  0.00     0.321 C 
HETATM    8  N   UNL     1       7.545  31.012  61.182  1.00  0.00    -0.309 N 
HETATM    9  O   UNL     1       8.216  32.072  59.216  1.00  0.00    -0.247 OA
HETATM   10  H   UNL     1       7.660  30.106  61.612  1.00  0.00     0.170 HD
HETATM   11  H   UNL     1       7.208  29.190  59.608  1.00  0.00     0.164 HD
BRANCH   8  12
HETATM   12  C   UNL     1       7.280  32.093  62.045  1.00  0.00     0.036 A 
HETATM   13  C   UNL     1       6.385  33.122  61.739  1.00  0.00     0.036 A 
HETATM   14  C   UNL     1       6.136  34.154  62.659  1.00  0.00    -0.060 A 
HETATM   15  C   UNL     1       5.184  35.260  62.313  1.00  0.00     0.048 C 
HETATM   16  C   UNL     1       6.823  34.166  63.878  1.00  0.00     0.007 A 
HETATM   17  C   UNL     1       7.713  33.140  64.191  1.00  0.00     0.003 A 
HETATM   18  C   UNL     1       7.931  32.103  63.284  1.00  0.00     0.029 A 
ENDBRANCH   8  12
ENDBRANCH   5   6
ENDBRANCH   1   5
BRANCH   2  19
HETATM   19  C   UNL     1       7.499  27.059  55.294  1.00  0.00     0.041 A 
HETATM   20  C   UNL     1       7.498  25.728  55.762  1.00  0.00    -0.035 A 
HETATM   21  C   UNL     1       8.099  25.338  57.087  1.00  0.00     0.050 C 
HETATM   22  C   UNL     1       6.928  24.720  54.969  1.00  0.00     0.010 A 
HETATM   23  C   UNL     1       6.356  25.021  53.733  1.00  0.00     0.016 A 
HETATM   24  C   UNL     1       6.343  26.335  53.257  1.00  0.00     0.019 A 
HETATM   25  C   UNL     1       6.922  27.343  54.048  1.00  0.00     0.046 A 
BRANCH  24  26
HETATM   26  C   UNL     1       5.734  26.680  51.973  1.00  0.00     0.179 A 
HETATM   27  O   UNL     1       5.341  25.634  51.172  1.00  0.00    -0.302 OA
HETATM   28  C   UNL     1       4.810  26.235  50.072  1.00  0.00     0.163 A 
HETATM   29  C   UNL     1       4.903  27.591  50.243  1.00  0.00     0.144 A 
HETATM   30  N   UNL     1       5.487  27.868  51.453  1.00  0.00    -0.234 NA
ENDBRANCH  24  26
ENDBRANCH   2  19
TORSDOF 5
ENDMDL
MODEL 6
REMARK VINA RESULT:      -9.0      3.430      5.315
REMARK  5 active torsions:
REMARK  status: ('A' for Active; 'I' for Inactive)
REMARK    1  A    between atoms: C_4  and  N_5 
REMARK       I    between atoms: N_5  and  C_6 
REMARK       I    between atoms: C_6  and  N_7 
REMARK    2  A    between atoms: N_7  and  C_8 
REMARK    3  A    between atoms: C_8  and  C_9 
REMARK       I    between atoms: C_9  and  N_10 
REMARK    4  A    between atoms: N_10  and  C_11 
REMARK    5  A    between atoms: C_16  and  C_17 
ROOT
HETATM    1  C   UNL     1       4.906  32.812  59.655  1.00  0.00     0.239 C 
HETATM    2  N   UNL     1       5.609  31.947  60.476  1.00  0.00    -0.325 N 
HETATM    3  O   UNL     1       4.594  33.973  59.899  1.00  0.00    -0.271 OA
HETATM    4  H   UNL     1       5.518  30.960  60.229  1.00  0.00     0.169 HD
ENDROOT
BRANCH   1   5
HETATM    5  C   UNL     1       4.445  32.138  58.358  1.00  0.00     0.227 C 
BRANCH   5   6
HETATM    6  N   UNL     1       4.538  30.691  58.437  1.00  0.00    -0.334 N 
HETATM    7  C   UNL     1       5.227  29.995  57.468  1.00  0.00     0.321 C 
HETATM    8  N   UNL     1       5.132  28.641  57.679  1.00  0.00    -0.309 N 
HETATM    9  O   UNL     1       5.809  30.569  56.556  1.00  0.00    -0.247 OA
HETATM   10  H   UNL     1       4.360  28.357  58.264  1.00  0.00     0.170 HD
HETATM   11  H   UNL     1       4.590  30.302  59.369  1.00  0.00     0.164 HD
BRANCH   8  12
HETATM   12  C   UNL     1       5.807  27.620  56.983  1.00  0.00     0.036 A 
HETATM   13  C   UNL     1       5.258  26.937  55.894  1.00  0.00     0.036 A 
HETATM   14  C   UNL     1       5.996  25.953  55.217  1.00  0.00    -0.060 A 
HETATM   15  C   UNL     1       5.390  25.218  54.059  1.00  0.00     0.048 C 
HETATM   16  C   UNL     1       7.281  25.631  55.666  1.00  0.00     0.007 A 
HETATM   17  C   UNL     1       7.837  26.311  56.749  1.00  0.00     0.003 A 
HETATM   18  C   UNL     1       7.107  27.309  57.396  1.00  0.00     0.029 A 
ENDBRANCH   8  12
ENDBRANCH   5   6
ENDBRANCH   1   5
BRANCH   2  19
HETATM   19  C   UNL     1       6.324  32.249  61.655  1.00  0.00     0.041 A 
HETATM   20  C   UNL     1       7.731  32.140  61.642  1.00  0.00    -0.035 A 
HETATM   21  C   UNL     1       8.492  31.663  60.433  1.00  0.00     0.050 C 
HETATM   22  C   UNL     1       8.458  32.476  62.794  1.00  0.00     0.010 A 
HETATM   23  C   UNL     1       7.808  32.925  63.944  1.00  0.00     0.016 A 
HETATM   24  C   UNL     1       6.415  33.045  63.973  1.00  0.00     0.019 A 
HETATM   25  C   UNL     1       5.687  32.700  62.821  1.00  0.00     0.046 A 
BRANCH  24  26
HETATM   26  C   UNL     1       5.711  33.529  65.159  1.00  0.00     0.179 A 
HETATM   27  O   UNL     1       6.485  34.032  66.178  1.00  0.00    -0.302 OA
HETATM   28  C   UNL     1       5.585  34.411  67.127  1.00  0.00     0.163 A 
HETATM   29  C   UNL     1       4.330  34.127  66.658  1.00  0.00     0.144 A 
HETATM   30  N   UNL     1       4.415  33.571  65.407  1.00  0.00    -0.234 NA
ENDBRANCH  24  26
ENDBRANCH   2  19
TORSDOF 5
ENDMDL
MODEL 7
REMARK VINA RESULT:      -8.9      2.362      4.362
REMARK  5 active torsions:
REMARK  status: ('A' for Active; 'I' for Inactive)
REMARK    1  A    between atoms: C_4  and  N_5 
REMARK       I    between atoms: N_5  and  C_6 
REMARK       I    between atoms: C_6  and  N_7 
REMARK    2  A    between atoms: N_7  and  C_8 
REMARK    3  A    between atoms: C_8  and  C_9 
REMARK       I    between atoms: C_9  and  N_10 
REMARK    4  A    between atoms: N_10  and  C_11 
REMARK    5  A    between atoms: C_16  and  C_17 
ROOT
HETATM    1  C   UNL     1       9.029  31.417  58.872  1.00  0.00     0.239 C 
HETATM    2  N   UNL     1       7.970  30.994  59.657  1.00  0.00    -0.325 N 
HETATM    3  O   UNL     1       9.669  32.457  58.994  1.00  0.00    -0.271 OA
HETATM    4  H   UNL     1       7.393  30.267  59.233  1.00  0.00     0.169 HD
ENDROOT
BRANCH   1   5
HETATM    5  C   UNL     1       9.312  30.459  57.711  1.00  0.00     0.227 C 
BRANCH   5   6
HETATM    6  N   UNL     1       8.720  29.151  57.932  1.00  0.00    -0.334 N 
HETATM    7  C   UNL     1       8.432  28.339  56.856  1.00  0.00     0.321 C 
HETATM    8  N   UNL     1       7.811  27.186  57.267  1.00  0.00    -0.309 N 
HETATM    9  O   UNL     1       8.704  28.672  55.709  1.00  0.00    -0.247 OA
HETATM   10  H   UNL     1       7.383  27.238  58.181  1.00  0.00     0.170 HD
HETATM   11  H   UNL     1       9.015  28.670  58.771  1.00  0.00     0.164 HD
BRANCH   8  12
HETATM   12  C   UNL     1       7.485  26.065  56.480  1.00  0.00     0.036 A 
HETATM   13  C   UNL     1       6.529  26.091  55.460  1.00  0.00     0.036 A 
HETATM   14  C   UNL     1       6.275  24.948  54.685  1.00  0.00    -0.060 A 
HETATM   15  C   UNL     1       5.237  24.986  53.603  1.00  0.00     0.048 C 
HETATM   16  C   UNL     1       6.964  23.763  54.965  1.00  0.00     0.007 A 
HETATM   17  C   UNL     1       7.922  23.731  55.978  1.00  0.00     0.003 A 
HETATM   18  C   UNL     1       8.189  24.880  56.723  1.00  0.00     0.029 A 
ENDBRANCH   8  12
ENDBRANCH   5   6
ENDBRANCH   1   5
BRANCH   2  19
HETATM   19  C   UNL     1       7.534  31.520  60.893  1.00  0.00     0.041 A 
HETATM   20  C   UNL     1       8.324  31.298  62.041  1.00  0.00    -0.035 A 
HETATM   21  C   UNL     1       9.586  30.476  62.005  1.00  0.00     0.050 C 
HETATM   22  C   UNL     1       7.924  31.848  63.268  1.00  0.00     0.010 A 
HETATM   23  C   UNL     1       6.765  32.619  63.363  1.00  0.00     0.016 A 
HETATM   24  C   UNL     1       5.974  32.854  62.234  1.00  0.00     0.019 A 
HETATM   25  C   UNL     1       6.370  32.295  61.007  1.00  0.00     0.046 A 
BRANCH  24  26
HETATM   26  C   UNL     1       4.764  33.672  62.302  1.00  0.00     0.179 A 
HETATM   27  O   UNL     1       3.704  33.154  63.009  1.00  0.00    -0.302 OA
HETATM   28  C   UNL     1       2.740  34.111  62.917  1.00  0.00     0.163 A 
HETATM   29  C   UNL     1       3.240  35.147  62.173  1.00  0.00     0.144 A 
HETATM   30  N   UNL     1       4.526  34.865  61.788  1.00  0.00    -0.234 NA
ENDBRANCH  24  26
ENDBRANCH   2  19
TORSDOF 5
ENDMDL
MODEL 8
REMARK VINA RESULT:      -8.9      1.781      2.397
REMARK  5 active torsions:
REMARK  status: ('A' for Active; 'I' for Inactive)
REMARK    1  A    between atoms: C_4  and  N_5 
REMARK       I    between atoms: N_5  and  C_6 
REMARK       I    between atoms: C_6  and  N_7 
REMARK    2  A    between atoms: N_7  and  C_8 
REMARK    3  A    between atoms: C_8  and  C_9 
REMARK       I    between atoms: C_9  and  N_10 
REMARK    4  A    between atoms: N_10  and  C_11 
REMARK    5  A    between atoms: C_16  and  C_17 
ROOT
HETATM    1  C   UNL     1       5.743  28.511  55.815  1.00  0.00     0.239 C 
HETATM    2  N   UNL     1       6.390  29.729  55.934  1.00  0.00    -0.325 N 
HETATM    3  O   UNL     1       5.066  27.948  56.670  1.00  0.00    -0.271 OA
HETATM    4  H   UNL     1       7.124  29.889  55.243  1.00  0.00     0.169 HD
ENDROOT
BRANCH   1   5
HETATM    5  C   UNL     1       6.021  27.834  54.469  1.00  0.00     0.227 C 
BRANCH   5   6
HETATM    6  N   UNL     1       7.086  26.852  54.565  1.00  0.00    -0.334 N 
HETATM    7  C   UNL     1       6.775  25.519  54.722  1.00  0.00     0.321 C 
HETATM    8  N   UNL     1       7.915  24.767  54.870  1.00  0.00    -0.309 N 
HETATM    9  O   UNL     1       5.615  25.127  54.738  1.00  0.00    -0.247 OA
HETATM   10  H   UNL     1       8.731  25.287  55.158  1.00  0.00     0.170 HD
HETATM   11  H   UNL     1       7.913  27.043  54.015  1.00  0.00     0.164 HD
BRANCH   8  12
HETATM   12  C   UNL     1       8.010  23.363  54.920  1.00  0.00     0.036 A 
HETATM   13  C   UNL     1       8.108  22.556  53.783  1.00  0.00     0.036 A 
HETATM   14  C   UNL     1       8.238  21.163  53.900  1.00  0.00    -0.060 A 
HETATM   15  C   UNL     1       8.329  20.307  52.671  1.00  0.00     0.048 C 
HETATM   16  C   UNL     1       8.229  20.579  55.171  1.00  0.00     0.007 A 
HETATM   17  C   UNL     1       8.136  21.377  56.310  1.00  0.00     0.003 A 
HETATM   18  C   UNL     1       8.038  22.764  56.184  1.00  0.00     0.029 A 
ENDBRANCH   8  12
ENDBRANCH   5   6
ENDBRANCH   1   5
BRANCH   2  19
HETATM   19  C   UNL     1       6.240  30.703  56.946  1.00  0.00     0.041 A 
HETATM   20  C   UNL     1       5.241  31.689  56.795  1.00  0.00    -0.035 A 
HETATM   21  C   UNL     1       4.367  31.771  55.571  1.00  0.00     0.050 C 
HETATM   22  C   UNL     1       5.053  32.638  57.810  1.00  0.00     0.010 A 
HETATM   23  C   UNL     1       5.832  32.612  58.967  1.00  0.00     0.016 A 
HETATM   24  C   UNL     1       6.821  31.639  59.136  1.00  0.00     0.019 A 
HETATM   25  C   UNL     1       7.015  30.693  58.115  1.00  0.00     0.046 A 
BRANCH  24  26
HETATM   26  C   UNL     1       7.640  31.578  60.346  1.00  0.00     0.179 A 
HETATM   27  O   UNL     1       8.466  30.488  60.482  1.00  0.00    -0.302 OA
HETATM   28  C   UNL     1       9.103  30.695  61.667  1.00  0.00     0.163 A 
HETATM   29  C   UNL     1       8.646  31.875  62.193  1.00  0.00     0.144 A 
HETATM   30  N   UNL     1       7.721  32.433  61.349  1.00  0.00    -0.234 NA
ENDBRANCH  24  26
ENDBRANCH   2  19
TORSDOF 5
ENDMDL
MODEL 9
REMARK VINA RESULT:      -8.9      4.720      7.958
REMARK  5 active torsions:
REMARK  status: ('A' for Active; 'I' for Inactive)
REMARK    1  A    between atoms: C_4  and  N_5 
REMARK       I    between atoms: N_5  and  C_6 
REMARK       I    between atoms: C_6  and  N_7 
REMARK    2  A    between atoms: N_7  and  C_8 
REMARK    3  A    between atoms: C_8  and  C_9 
REMARK       I    between atoms: C_9  and  N_10 
REMARK    4  A    between atoms: N_10  and  C_11 
REMARK    5  A    between atoms: C_16  and  C_17 
ROOT
HETATM    1  C   UNL     1       5.201  27.921  54.159  1.00  0.00     0.239 C 
HETATM    2  N   UNL     1       5.986  27.766  53.029  1.00  0.00    -0.325 N 
HETATM    3  O   UNL     1       4.016  28.239  54.197  1.00  0.00    -0.271 OA
HETATM    4  H   UNL     1       6.992  27.786  53.206  1.00  0.00     0.169 HD
ENDROOT
BRANCH   1   5
HETATM    5  C   UNL     1       5.998  27.728  55.452  1.00  0.00     0.227 C 
BRANCH   5   6
HETATM    6  N   UNL     1       7.078  26.771  55.286  1.00  0.00    -0.334 N 
HETATM    7  C   UNL     1       6.827  25.423  55.436  1.00  0.00     0.321 C 
HETATM    8  N   UNL     1       7.985  24.696  55.317  1.00  0.00    -0.309 N 
HETATM    9  O   UNL     1       5.700  25.001  55.665  1.00  0.00    -0.247 OA
HETATM   10  H   UNL     1       8.834  25.224  55.461  1.00  0.00     0.170 HD
HETATM   11  H   UNL     1       7.774  27.007  54.592  1.00  0.00     0.164 HD
BRANCH   8  12
HETATM   12  C   UNL     1       8.112  23.294  55.279  1.00  0.00     0.036 A 
HETATM   13  C   UNL     1       8.087  22.550  54.096  1.00  0.00     0.036 A 
HETATM   14  C   UNL     1       8.256  21.156  54.120  1.00  0.00    -0.060 A 
HETATM   15  C   UNL     1       8.214  20.368  52.845  1.00  0.00     0.048 C 
HETATM   16  C   UNL     1       8.412  20.507  55.350  1.00  0.00     0.007 A 
HETATM   17  C   UNL     1       8.442  21.243  56.533  1.00  0.00     0.003 A 
HETATM   18  C   UNL     1       8.304  22.631  56.496  1.00  0.00     0.029 A 
ENDBRANCH   8  12
ENDBRANCH   5   6
ENDBRANCH   1   5
BRANCH   2  19
HETATM   19  C   UNL     1       5.574  27.704  51.680  1.00  0.00     0.041 A 
HETATM   20  C   UNL     1       5.196  26.455  51.144  1.00  0.00    -0.035 A 
HETATM   21  C   UNL     1       5.266  25.179  51.942  1.00  0.00     0.050 C 
HETATM   22  C   UNL     1       4.745  26.383  49.817  1.00  0.00     0.010 A 
HETATM   23  C   UNL     1       4.657  27.531  49.029  1.00  0.00     0.016 A 
HETATM   24  C   UNL     1       5.022  28.778  49.546  1.00  0.00     0.019 A 
HETATM   25  C   UNL     1       5.482  28.847  50.873  1.00  0.00     0.046 A 
BRANCH  24  26
HETATM   26  C   UNL     1       4.924  29.999  48.747  1.00  0.00     0.179 A 
HETATM   27  O   UNL     1       5.640  31.087  49.187  1.00  0.00    -0.302 OA
HETATM   28  C   UNL     1       5.377  32.056  48.268  1.00  0.00     0.163 A 
HETATM   29  C   UNL     1       4.529  31.530  47.329  1.00  0.00     0.144 A 
HETATM   30  N   UNL     1       4.247  30.223  47.636  1.00  0.00    -0.234 NA
ENDBRANCH  24  26
ENDBRANCH   2  19
TORSDOF 5
ENDMDL
MODEL 10
REMARK VINA RESULT:      -8.6      4.372      8.801
REMARK  5 active torsions:
REMARK  status: ('A' for Active; 'I' for Inactive)
REMARK    1  A    between atoms: C_4  and  N_5 
REMARK       I    between atoms: N_5  and  C_6 
REMARK       I    between atoms: C_6  and  N_7 
REMARK    2  A    between atoms: N_7  and  C_8 
REMARK    3  A    between atoms: C_8  and  C_9 
REMARK       I    between atoms: C_9  and  N_10 
REMARK    4  A    between atoms: N_10  and  C_11 
REMARK    5  A    between atoms: C_16  and  C_17 
ROOT
HETATM    1  C   UNL     1       5.247  27.267  55.642  1.00  0.00     0.239 C 
HETATM    2  N   UNL     1       6.425  26.808  55.078  1.00  0.00    -0.325 N 
HETATM    3  O   UNL     1       4.592  26.725  56.527  1.00  0.00    -0.271 OA
HETATM    4  H   UNL     1       6.658  27.233  54.179  1.00  0.00     0.169 HD
ENDROOT
BRANCH   1   5
HETATM    5  C   UNL     1       4.747  28.553  54.978  1.00  0.00     0.227 C 
BRANCH   5   6
HETATM    6  N   UNL     1       4.018  28.282  53.751  1.00  0.00    -0.334 N 
HETATM    7  C   UNL     1       4.665  28.369  52.537  1.00  0.00     0.321 C 
HETATM    8  N   UNL     1       3.790  28.154  51.502  1.00  0.00    -0.309 N 
HETATM    9  O   UNL     1       5.860  28.628  52.463  1.00  0.00    -0.247 OA
HETATM   10  H   UNL     1       2.816  28.286  51.736  1.00  0.00     0.170 HD
HETATM   11  H   UNL     1       3.304  27.569  53.811  1.00  0.00     0.164 HD
BRANCH   8  12
HETATM   12  C   UNL     1       4.100  28.032  50.134  1.00  0.00     0.036 A 
HETATM   13  C   UNL     1       4.158  29.119  49.257  1.00  0.00     0.036 A 
HETATM   14  C   UNL     1       4.509  28.937  47.910  1.00  0.00    -0.060 A 
HETATM   15  C   UNL     1       4.554  30.111  46.977  1.00  0.00     0.048 C 
HETATM   16  C   UNL     1       4.768  27.646  47.438  1.00  0.00     0.007 A 
HETATM   17  C   UNL     1       4.717  26.558  48.307  1.00  0.00     0.003 A 
HETATM   18  C   UNL     1       4.396  26.752  49.651  1.00  0.00     0.029 A 
ENDBRANCH   8  12
ENDBRANCH   5   6
ENDBRANCH   1   5
BRANCH   2  19
HETATM   19  C   UNL     1       7.261  25.763  55.530  1.00  0.00     0.041 A 
HETATM   20  C   UNL     1       7.991  25.948  56.724  1.00  0.00    -0.035 A 
HETATM   21  C   UNL     1       7.951  27.236  57.504  1.00  0.00     0.050 C 
HETATM   22  C   UNL     1       8.795  24.904  57.207  1.00  0.00     0.010 A 
HETATM   23  C   UNL     1       8.871  23.687  56.528  1.00  0.00     0.016 A 
HETATM   24  C   UNL     1       8.150  23.486  55.347  1.00  0.00     0.019 A 
HETATM   25  C   UNL     1       7.352  24.535  54.859  1.00  0.00     0.046 A 
BRANCH  24  26
HETATM   26  C   UNL     1       8.199  22.215  54.625  1.00  0.00     0.179 A 
HETATM   27  O   UNL     1       8.813  21.163  55.263  1.00  0.00    -0.302 OA
HETATM   28  C   UNL     1       8.704  20.129  54.384  1.00  0.00     0.163 A 
HETATM   29  C   UNL     1       8.046  20.585  53.272  1.00  0.00     0.144 A 
HETATM   30  N   UNL     1       7.724  21.908  53.432  1.00  0.00    -0.234 NA
ENDBRANCH  24  26
ENDBRANCH   2  19
TORSDOF 5
ENDMDL
