MODEL 1
REMARK VINA RESULT:     -11.0      0.000      0.000
REMARK  4 active torsions:
REMARK  status: ('A' for Active; 'I' for Inactive)
REMARK    1  A    between atoms: C_8  and  C_9 
REMARK       I    between atoms: C_9  and  N_10 
REMARK    2  A    between atoms: N_10  and  C_11 
REMARK    3  A    between atoms: C_12  and  N_13 
REMARK    4  A    between atoms: C_16  and  O_17 
ROOT
HETATM    1  C   UNL     1       6.549  28.184  53.714  1.00  0.00     0.256 C 
HETATM    2  N   UNL     1       6.822  29.121  54.687  1.00  0.00    -0.321 N 
HETATM    3  O   UNL     1       5.753  28.456  52.815  1.00  0.00    -0.267 OA
HETATM    4  H   UNL     1       6.121  29.843  54.797  1.00  0.00     0.169 HD
ENDROOT
BRANCH   2   5
HETATM    5  C   UNL     1       7.910  29.183  55.575  1.00  0.00     0.061 A 
HETATM    6  C   UNL     1       7.715  29.566  56.928  1.00  0.00     0.057 A 
HETATM    7  C   UNL     1       8.890  29.684  57.699  1.00  0.00     0.031 A 
HETATM    8  C   UNL     1      10.170  29.479  57.166  1.00  0.00     0.002 A 
HETATM    9  C   UNL     1      10.323  29.124  55.835  1.00  0.00     0.002 A 
HETATM   10  C   UNL     1       9.194  28.961  55.043  1.00  0.00     0.032 A 
BRANCH   6  11
HETATM   11  N   UNL     1       6.463  29.800  57.494  1.00  0.00    -0.379 N 
HETATM   12  C   UNL     1       6.239  30.891  58.448  1.00  0.00     0.125 C 
HETATM   13  C   UNL     1       4.984  31.652  58.023  1.00  0.00     0.051 C 
HETATM   14  C   UNL     1       3.778  30.735  57.805  1.00  0.00     0.121 C 
HETATM   15  C   UNL     1       4.112  29.485  56.988  1.00  0.00     0.051 C 
HETATM   16  C   UNL     1       5.383  28.805  57.492  1.00  0.00     0.125 C 
BRANCH  14  17
HETATM   17  O   UNL     1       3.200  30.371  59.059  1.00  0.00    -0.395 OA
HETATM   18  H   UNL     1       3.898  30.036  59.646  1.00  0.00     0.210 HD
ENDBRANCH  14  17
ENDBRANCH   6  11
ENDBRANCH   2   5
BRANCH   1  19
HETATM   19  C   UNL     1       7.070  26.784  53.824  1.00  0.00     0.033 A 
HETATM   20  C   UNL     1       6.922  26.028  54.996  1.00  0.00     0.025 A 
HETATM   21  C   UNL     1       7.322  24.700  54.989  1.00  0.00    -0.042 A 
HETATM   22  C   UNL     1       7.835  24.088  53.831  1.00  0.00    -0.019 A 
HETATM   23  C   UNL     1       7.264  23.714  56.135  1.00  0.00     0.078 A 
HETATM   24  C   UNL     1       8.097  22.695  54.126  1.00  0.00    -0.019 A 
HETATM   25  C   UNL     1       7.974  24.818  52.662  1.00  0.00     0.014 A 
HETATM   26  C   UNL     1       7.769  22.449  55.479  1.00  0.00    -0.043 A 
HETATM   27  C   UNL     1       8.558  21.667  53.323  1.00  0.00     0.013 A 
HETATM   28  C   UNL     1       7.904  21.193  56.045  1.00  0.00     0.008 A 
HETATM   29  C   UNL     1       8.371  20.158  55.234  1.00  0.00     0.001 A 
HETATM   30  C   UNL     1       8.693  20.392  53.886  1.00  0.00     0.001 A 
HETATM   31  C   UNL     1       7.590  26.171  52.664  1.00  0.00     0.018 A 
ENDBRANCH   1  19
TORSDOF 4
ENDMDL
MODEL 2
REMARK VINA RESULT:     -10.6      2.242      3.137
REMARK  4 active torsions:
REMARK  status: ('A' for Active; 'I' for Inactive)
REMARK    1  A    between atoms: C_8  and  C_9 
REMARK       I    between atoms: C_9  and  N_10 
REMARK    2  A    between atoms: N_10  and  C_11 
REMARK    3  A    between atoms: C_12  and  N_13 
REMARK    4  A    between atoms: C_16  and  O_17 
ROOT
HETATM    1  C   UNL     1       6.107  28.371  57.257  1.00  0.00     0.256 C 
HETATM    2  N   UNL     1       6.924  29.255  57.929  1.00  0.00    -0.321 N 
HETATM    3  O   UNL     1       4.886  28.467  57.368  1.00  0.00    -0.267 OA
HETATM    4  H   UNL     1       6.497  29.716  58.722  1.00  0.00     0.169 HD
ENDROOT
BRANCH   2   5
HETATM    5  C   UNL     1       8.275  29.564  57.695  1.00  0.00     0.061 A 
HETATM    6  C   UNL     1       8.994  30.387  58.601  1.00  0.00     0.057 A 
HETATM    7  C   UNL     1      10.312  30.707  58.214  1.00  0.00     0.031 A 
HETATM    8  C   UNL     1      10.870  30.280  57.001  1.00  0.00     0.002 A 
HETATM    9  C   UNL     1      10.131  29.492  56.132  1.00  0.00     0.002 A 
HETATM   10  C   UNL     1       8.841  29.121  56.485  1.00  0.00     0.032 A 
BRANCH   6  11
HETATM   11  N   UNL     1       8.471  30.851  59.807  1.00  0.00    -0.379 N 
HETATM   12  C   UNL     1       9.036  30.448  61.099  1.00  0.00     0.125 C 
HETATM   13  C   UNL     1       9.230  31.701  61.952  1.00  0.00     0.051 C 
HETATM   14  C   UNL     1       7.965  32.557  62.046  1.00  0.00     0.121 C 
HETATM   15  C   UNL     1       7.278  32.767  60.695  1.00  0.00     0.051 C 
HETATM   16  C   UNL     1       7.139  31.456  59.924  1.00  0.00     0.125 C 
BRANCH  14  17
HETATM   17  O   UNL     1       7.053  31.990  62.987  1.00  0.00    -0.395 OA
HETATM   18  H   UNL     1       7.228  32.363  63.866  1.00  0.00     0.210 HD
ENDBRANCH  14  17
ENDBRANCH   6  11
ENDBRANCH   2   5
BRANCH   1  19
HETATM   19  C   UNL     1       6.680  27.191  56.532  1.00  0.00     0.033 A 
HETATM   20  C   UNL     1       7.229  26.096  57.215  1.00  0.00     0.025 A 
HETATM   21  C   UNL     1       7.633  24.988  56.486  1.00  0.00    -0.042 A 
HETATM   22  C   UNL     1       7.471  24.923  55.090  1.00  0.00    -0.019 A 
HETATM   23  C   UNL     1       8.255  23.714  57.013  1.00  0.00     0.078 A 
HETATM   24  C   UNL     1       7.926  23.625  54.636  1.00  0.00    -0.019 A 
HETATM   25  C   UNL     1       6.918  25.991  54.402  1.00  0.00     0.014 A 
HETATM   26  C   UNL     1       8.394  22.893  55.751  1.00  0.00    -0.043 A 
HETATM   27  C   UNL     1       7.935  23.055  53.374  1.00  0.00     0.013 A 
HETATM   28  C   UNL     1       8.880  21.603  55.624  1.00  0.00     0.008 A 
HETATM   29  C   UNL     1       8.890  21.031  54.352  1.00  0.00     0.001 A 
HETATM   30  C   UNL     1       8.420  21.749  53.238  1.00  0.00     0.001 A 
HETATM   31  C   UNL     1       6.524  27.127  55.131  1.00  0.00     0.018 A 
ENDBRANCH   1  19
TORSDOF 4
ENDMDL
MODEL 3
REMARK VINA RESULT:     -10.4      1.751      3.593
REMARK  4 active torsions:
REMARK  status: ('A' for Active; 'I' for Inactive)
REMARK    1  A    between atoms: C_8  and  C_9 
REMARK       I    between atoms: C_9  and  N_10 
REMARK    2  A    between atoms: N_10  and  C_11 
REMARK    3  A    between atoms: C_12  and  N_13 
REMARK    4  A    between atoms: C_16  and  O_17 
ROOT
HETATM    1  C   UNL     1       7.515  28.364  54.884  1.00  0.00     0.256 C 
HETATM    2  N   UNL     1       6.832  29.113  53.949  1.00  0.00    -0.321 N 
HETATM    3  O   UNL     1       8.290  28.921  55.659  1.00  0.00    -0.267 OA
HETATM    4  H   UNL     1       7.244  30.012  53.735  1.00  0.00     0.169 HD
ENDROOT
BRANCH   2   5
HETATM    5  C   UNL     1       5.676  28.780  53.222  1.00  0.00     0.061 A 
HETATM    6  C   UNL     1       4.402  28.791  53.848  1.00  0.00     0.057 A 
HETATM    7  C   UNL     1       3.329  28.349  53.048  1.00  0.00     0.031 A 
HETATM    8  C   UNL     1       3.503  27.888  51.735  1.00  0.00     0.002 A 
HETATM    9  C   UNL     1       4.765  27.873  51.163  1.00  0.00     0.002 A 
HETATM   10  C   UNL     1       5.849  28.333  51.899  1.00  0.00     0.032 A 
BRANCH   6  11
HETATM   11  N   UNL     1       4.187  29.221  55.157  1.00  0.00    -0.379 N 
HETATM   12  C   UNL     1       4.247  28.296  56.293  1.00  0.00     0.125 C 
HETATM   13  C   UNL     1       5.114  28.926  57.382  1.00  0.00     0.051 C 
HETATM   14  C   UNL     1       4.679  30.349  57.739  1.00  0.00     0.121 C 
HETATM   15  C   UNL     1       4.408  31.222  56.511  1.00  0.00     0.051 C 
HETATM   16  C   UNL     1       3.538  30.497  55.486  1.00  0.00     0.125 C 
BRANCH  14  17
HETATM   17  O   UNL     1       3.534  30.318  58.591  1.00  0.00    -0.395 OA
HETATM   18  H   UNL     1       3.666  29.644  59.278  1.00  0.00     0.210 HD
ENDBRANCH  14  17
ENDBRANCH   6  11
ENDBRANCH   2   5
BRANCH   1  19
HETATM   19  C   UNL     1       7.460  26.867  54.861  1.00  0.00     0.033 A 
HETATM   20  C   UNL     1       7.688  26.135  53.688  1.00  0.00     0.025 A 
HETATM   21  C   UNL     1       7.738  24.751  53.763  1.00  0.00    -0.042 A 
HETATM   22  C   UNL     1       7.604  24.072  54.988  1.00  0.00    -0.019 A 
HETATM   23  C   UNL     1       7.961  23.773  52.630  1.00  0.00     0.078 A 
HETATM   24  C   UNL     1       7.765  22.653  54.746  1.00  0.00    -0.019 A 
HETATM   25  C   UNL     1       7.391  24.782  56.158  1.00  0.00     0.014 A 
HETATM   26  C   UNL     1       7.976  22.450  53.363  1.00  0.00    -0.043 A 
HETATM   27  C   UNL     1       7.766  21.577  55.617  1.00  0.00     0.013 A 
HETATM   28  C   UNL     1       8.179  21.187  52.834  1.00  0.00     0.008 A 
HETATM   29  C   UNL     1       8.177  20.103  53.713  1.00  0.00     0.001 A 
HETATM   30  C   UNL     1       7.975  20.296  55.091  1.00  0.00     0.001 A 
HETATM   31  C   UNL     1       7.318  26.184  56.088  1.00  0.00     0.018 A 
ENDBRANCH   1  19
TORSDOF 4
ENDMDL
MODEL 4
REMARK VINA RESULT:      -9.8      1.203      2.092
REMARK  4 active torsions:
REMARK  status: ('A' for Active; 'I' for Inactive)
REMARK    1  A    between atoms: C_8  and  C_9 
REMARK       I    between atoms: C_9  and  N_10 
REMARK    2  A    between atoms: N_10  and  C_11 
REMARK    3  A    between atoms: C_12  and  N_13 
REMARK    4  A    between atoms: C_16  and  O_17 
ROOT
HETATM    1  C   UNL     1       6.274  27.988  53.435  1.00  0.00     0.256 C 
HETATM    2  N   UNL     1       6.352  28.980  54.389  1.00  0.00    -0.321 N 
HETATM    3  O   UNL     1       5.886  28.265  52.301  1.00  0.00    -0.267 OA
HETATM    4  H   UNL     1       5.785  29.797  54.205  1.00  0.00     0.169 HD
ENDROOT
BRANCH   2   5
HETATM    5  C   UNL     1       7.070  28.990  55.597  1.00  0.00     0.061 A 
HETATM    6  C   UNL     1       6.651  29.811  56.677  1.00  0.00     0.057 A 
HETATM    7  C   UNL     1       7.500  29.811  57.803  1.00  0.00     0.031 A 
HETATM    8  C   UNL     1       8.699  29.087  57.848  1.00  0.00     0.002 A 
HETATM    9  C   UNL     1       9.086  28.311  56.766  1.00  0.00     0.002 A 
HETATM   10  C   UNL     1       8.265  28.250  55.648  1.00  0.00     0.032 A 
BRANCH   6  11
HETATM   11  N   UNL     1       5.478  30.564  56.668  1.00  0.00    -0.379 N 
HETATM   12  C   UNL     1       4.183  29.981  57.035  1.00  0.00     0.125 C 
HETATM   13  C   UNL     1       3.493  30.922  58.021  1.00  0.00     0.051 C 
HETATM   14  C   UNL     1       3.424  32.365  57.516  1.00  0.00     0.121 C 
HETATM   15  C   UNL     1       4.747  32.863  56.931  1.00  0.00     0.051 C 
HETATM   16  C   UNL     1       5.353  31.847  55.964  1.00  0.00     0.125 C 
BRANCH  14  17
HETATM   17  O   UNL     1       2.372  32.505  56.560  1.00  0.00    -0.395 OA
HETATM   18  H   UNL     1       2.535  31.902  55.817  1.00  0.00     0.210 HD
ENDBRANCH  14  17
ENDBRANCH   6  11
ENDBRANCH   2   5
BRANCH   1  19
HETATM   19  C   UNL     1       6.489  26.550  53.798  1.00  0.00     0.033 A 
HETATM   20  C   UNL     1       7.191  25.671  52.961  1.00  0.00     0.025 A 
HETATM   21  C   UNL     1       7.454  24.386  53.413  1.00  0.00    -0.042 A 
HETATM   22  C   UNL     1       7.068  23.960  54.697  1.00  0.00    -0.019 A 
HETATM   23  C   UNL     1       8.180  23.282  52.677  1.00  0.00     0.078 A 
HETATM   24  C   UNL     1       7.540  22.605  54.891  1.00  0.00    -0.019 A 
HETATM   25  C   UNL     1       6.386  24.822  55.540  1.00  0.00     0.014 A 
HETATM   26  C   UNL     1       8.198  22.181  53.714  1.00  0.00    -0.043 A 
HETATM   27  C   UNL     1       7.458  21.762  55.986  1.00  0.00     0.013 A 
HETATM   28  C   UNL     1       8.769  20.924  53.610  1.00  0.00     0.008 A 
HETATM   29  C   UNL     1       8.684  20.075  54.715  1.00  0.00     0.001 A 
HETATM   30  C   UNL     1       8.037  20.491  55.892  1.00  0.00     0.001 A 
HETATM   31  C   UNL     1       6.097  26.120  55.084  1.00  0.00     0.018 A 
ENDBRANCH   1  19
TORSDOF 4
ENDMDL
MODEL 5
REMARK VINA RESULT:      -9.4      2.232      4.329
REMARK  4 active torsions:
REMARK  status: ('A' for Active; 'I' for Inactive)
REMARK    1  A    between atoms: C_8  and  C_9 
REMARK       I    between atoms: C_9  and  N_10 
REMARK    2  A    between atoms: N_10  and  C_11 
REMARK    3  A    between atoms: C_12  and  N_13 
REMARK    4  A    between atoms: C_16  and  O_17 
ROOT
HETATM    1  C   UNL     1       8.099  28.476  54.529  1.00  0.00     0.256 C 
HETATM    2  N   UNL     1       7.056  29.362  54.694  1.00  0.00    -0.321 N 
HETATM    3  O   UNL     1       9.170  28.876  54.075  1.00  0.00    -0.267 OA
HETATM    4  H   UNL     1       7.116  30.204  54.136  1.00  0.00     0.169 HD
ENDROOT
BRANCH   2   5
HETATM    5  C   UNL     1       5.904  29.234  55.489  1.00  0.00     0.061 A 
HETATM    6  C   UNL     1       4.670  28.832  54.911  1.00  0.00     0.057 A 
HETATM    7  C   UNL     1       3.564  28.830  55.786  1.00  0.00     0.031 A 
HETATM    8  C   UNL     1       3.656  29.234  57.125  1.00  0.00     0.002 A 
HETATM    9  C   UNL     1       4.874  29.638  57.650  1.00  0.00     0.002 A 
HETATM   10  C   UNL     1       6.000  29.623  56.837  1.00  0.00     0.032 A 
BRANCH   6  11
HETATM   11  N   UNL     1       4.529  28.443  53.580  1.00  0.00    -0.379 N 
HETATM   12  C   UNL     1       4.343  29.423  52.505  1.00  0.00     0.125 C 
HETATM   13  C   UNL     1       5.306  29.081  51.369  1.00  0.00     0.051 C 
HETATM   14  C   UNL     1       5.208  27.620  50.926  1.00  0.00     0.121 C 
HETATM   15  C   UNL     1       5.179  26.636  52.098  1.00  0.00     0.051 C 
HETATM   16  C   UNL     1       4.189  27.074  53.177  1.00  0.00     0.125 C 
BRANCH  14  17
HETATM   17  O   UNL     1       4.066  27.433  50.090  1.00  0.00    -0.395 OA
HETATM   18  H   UNL     1       3.487  28.209  50.162  1.00  0.00     0.210 HD
ENDBRANCH  14  17
ENDBRANCH   6  11
ENDBRANCH   2   5
BRANCH   1  19
HETATM   19  C   UNL     1       7.899  27.004  54.731  1.00  0.00     0.033 A 
HETATM   20  C   UNL     1       7.919  26.100  53.659  1.00  0.00     0.025 A 
HETATM   21  C   UNL     1       7.845  24.742  53.930  1.00  0.00    -0.042 A 
HETATM   22  C   UNL     1       7.790  24.253  55.249  1.00  0.00    -0.019 A 
HETATM   23  C   UNL     1       7.840  23.602  52.935  1.00  0.00     0.078 A 
HETATM   24  C   UNL     1       7.787  22.805  55.201  1.00  0.00    -0.019 A 
HETATM   25  C   UNL     1       7.784  25.134  56.318  1.00  0.00     0.014 A 
HETATM   26  C   UNL     1       7.815  22.396  53.848  1.00  0.00    -0.043 A 
HETATM   27  C   UNL     1       7.786  21.863  56.214  1.00  0.00     0.013 A 
HETATM   28  C   UNL     1       7.833  21.059  53.491  1.00  0.00     0.008 A 
HETATM   29  C   UNL     1       7.831  20.110  54.514  1.00  0.00     0.001 A 
HETATM   30  C   UNL     1       7.810  20.508  55.862  1.00  0.00     0.001 A 
HETATM   31  C   UNL     1       7.838  26.513  56.052  1.00  0.00     0.018 A 
ENDBRANCH   1  19
TORSDOF 4
ENDMDL
MODEL 6
REMARK VINA RESULT:      -9.4      4.072      7.481
REMARK  4 active torsions:
REMARK  status: ('A' for Active; 'I' for Inactive)
REMARK    1  A    between atoms: C_8  and  C_9 
REMARK       I    between atoms: C_9  and  N_10 
REMARK    2  A    between atoms: N_10  and  C_11 
REMARK    3  A    between atoms: C_12  and  N_13 
REMARK    4  A    between atoms: C_16  and  O_17 
ROOT
HETATM    1  C   UNL     1       4.571  26.569  53.455  1.00  0.00     0.256 C 
HETATM    2  N   UNL     1       3.596  27.370  52.900  1.00  0.00    -0.321 N 
HETATM    3  O   UNL     1       4.538  25.354  53.269  1.00  0.00    -0.267 OA
HETATM    4  H   UNL     1       2.739  26.893  52.652  1.00  0.00     0.169 HD
ENDROOT
BRANCH   2   5
HETATM    5  C   UNL     1       3.612  28.758  52.679  1.00  0.00     0.061 A 
HETATM    6  C   UNL     1       3.855  29.278  51.380  1.00  0.00     0.057 A 
HETATM    7  C   UNL     1       3.941  30.682  51.296  1.00  0.00     0.031 A 
HETATM    8  C   UNL     1       3.837  31.516  52.418  1.00  0.00     0.002 A 
HETATM    9  C   UNL     1       3.618  30.972  53.674  1.00  0.00     0.002 A 
HETATM   10  C   UNL     1       3.490  29.595  53.803  1.00  0.00     0.032 A 
BRANCH   6  11
HETATM   11  N   UNL     1       3.986  28.485  50.241  1.00  0.00    -0.379 N 
HETATM   12  C   UNL     1       5.174  27.656  50.011  1.00  0.00     0.125 C 
HETATM   13  C   UNL     1       4.713  26.256  49.607  1.00  0.00     0.051 C 
HETATM   14  C   UNL     1       3.709  26.270  48.452  1.00  0.00     0.121 C 
HETATM   15  C   UNL     1       2.604  27.314  48.627  1.00  0.00     0.051 C 
HETATM   16  C   UNL     1       3.171  28.673  49.034  1.00  0.00     0.125 C 
BRANCH  14  17
HETATM   17  O   UNL     1       4.387  26.466  47.210  1.00  0.00    -0.395 OA
HETATM   18  H   UNL     1       4.509  27.417  47.060  1.00  0.00     0.210 HD
ENDBRANCH  14  17
ENDBRANCH   6  11
ENDBRANCH   2   5
BRANCH   1  19
HETATM   19  C   UNL     1       5.571  27.129  54.420  1.00  0.00     0.033 A 
HETATM   20  C   UNL     1       6.818  27.612  53.999  1.00  0.00     0.025 A 
HETATM   21  C   UNL     1       7.646  28.223  54.928  1.00  0.00    -0.042 A 
HETATM   22  C   UNL     1       7.251  28.402  56.267  1.00  0.00    -0.019 A 
HETATM   23  C   UNL     1       9.025  28.802  54.694  1.00  0.00     0.078 A 
HETATM   24  C   UNL     1       8.298  29.122  56.961  1.00  0.00    -0.019 A 
HETATM   25  C   UNL     1       6.017  27.941  56.695  1.00  0.00     0.014 A 
HETATM   26  C   UNL     1       9.356  29.370  56.056  1.00  0.00    -0.043 A 
HETATM   27  C   UNL     1       8.375  29.579  58.266  1.00  0.00     0.013 A 
HETATM   28  C   UNL     1      10.494  30.059  56.437  1.00  0.00     0.008 A 
HETATM   29  C   UNL     1      10.571  30.517  57.753  1.00  0.00     0.001 A 
HETATM   30  C   UNL     1       9.521  30.281  58.657  1.00  0.00     0.001 A 
HETATM   31  C   UNL     1       5.179  27.302  55.765  1.00  0.00     0.018 A 
ENDBRANCH   1  19
TORSDOF 4
ENDMDL
MODEL 7
REMARK VINA RESULT:      -9.1      6.119     12.022
REMARK  4 active torsions:
REMARK  status: ('A' for Active; 'I' for Inactive)
REMARK    1  A    between atoms: C_8  and  C_9 
REMARK       I    between atoms: C_9  and  N_10 
REMARK    2  A    between atoms: N_10  and  C_11 
REMARK    3  A    between atoms: C_12  and  N_13 
REMARK    4  A    between atoms: C_16  and  O_17 
ROOT
HETATM    1  C   UNL     1       5.498  32.151  62.750  1.00  0.00     0.256 C 
HETATM    2  N   UNL     1       6.188  31.396  61.826  1.00  0.00    -0.321 N 
HETATM    3  O   UNL     1       4.627  31.620  63.439  1.00  0.00    -0.267 OA
HETATM    4  H   UNL     1       5.725  30.545  61.535  1.00  0.00     0.169 HD
ENDROOT
BRANCH   2   5
HETATM    5  C   UNL     1       7.416  31.671  61.199  1.00  0.00     0.061 A 
HETATM    6  C   UNL     1       7.496  31.777  59.786  1.00  0.00     0.057 A 
HETATM    7  C   UNL     1       8.793  31.961  59.265  1.00  0.00     0.031 A 
HETATM    8  C   UNL     1       9.937  31.996  60.074  1.00  0.00     0.002 A 
HETATM    9  C   UNL     1       9.822  31.870  61.450  1.00  0.00     0.002 A 
HETATM   10  C   UNL     1       8.562  31.723  62.014  1.00  0.00     0.032 A 
BRANCH   6  11
HETATM   11  N   UNL     1       6.388  31.727  58.942  1.00  0.00    -0.379 N 
HETATM   12  C   UNL     1       6.318  30.791  57.815  1.00  0.00     0.125 C 
HETATM   13  C   UNL     1       4.960  30.092  57.852  1.00  0.00     0.051 C 
HETATM   14  C   UNL     1       3.789  31.073  57.941  1.00  0.00     0.121 C 
HETATM   15  C   UNL     1       4.004  32.174  58.982  1.00  0.00     0.051 C 
HETATM   16  C   UNL     1       5.392  32.802  58.860  1.00  0.00     0.125 C 
BRANCH  14  17
HETATM   17  O   UNL     1       3.523  31.644  56.660  1.00  0.00    -0.395 OA
HETATM   18  H   UNL     1       2.568  31.613  56.489  1.00  0.00     0.210 HD
ENDBRANCH  14  17
ENDBRANCH   6  11
ENDBRANCH   2   5
BRANCH   1  19
HETATM   19  C   UNL     1       5.668  33.638  62.813  1.00  0.00     0.033 A 
HETATM   20  C   UNL     1       5.131  34.487  61.835  1.00  0.00     0.025 A 
HETATM   21  C   UNL     1       5.225  35.859  62.017  1.00  0.00    -0.042 A 
HETATM   22  C   UNL     1       5.809  36.413  63.171  1.00  0.00    -0.019 A 
HETATM   23  C   UNL     1       4.728  36.948  61.092  1.00  0.00     0.078 A 
HETATM   24  C   UNL     1       5.697  37.855  63.094  1.00  0.00    -0.019 A 
HETATM   25  C   UNL     1       6.332  35.587  64.152  1.00  0.00     0.014 A 
HETATM   26  C   UNL     1       5.064  38.196  61.877  1.00  0.00    -0.043 A 
HETATM   27  C   UNL     1       6.072  38.845  63.986  1.00  0.00     0.013 A 
HETATM   28  C   UNL     1       4.806  39.512  61.533  1.00  0.00     0.008 A 
HETATM   29  C   UNL     1       5.187  40.509  62.433  1.00  0.00     0.001 A 
HETATM   30  C   UNL     1       5.811  40.178  63.648  1.00  0.00     0.001 A 
HETATM   31  C   UNL     1       6.260  34.195  63.967  1.00  0.00     0.018 A 
ENDBRANCH   1  19
TORSDOF 4
ENDMDL
MODEL 8
REMARK VINA RESULT:      -9.0      6.960     10.880
REMARK  4 active torsions:
REMARK  status: ('A' for Active; 'I' for Inactive)
REMARK    1  A    between atoms: C_8  and  C_9 
REMARK       I    between atoms: C_9  and  N_10 
REMARK    2  A    between atoms: N_10  and  C_11 
REMARK    3  A    between atoms: C_12  and  N_13 
REMARK    4  A    between atoms: C_16  and  O_17 
ROOT
HETATM    1  C   UNL     1       2.583  34.921  62.145  1.00  0.00     0.256 C 
HETATM    2  N   UNL     1       2.857  35.999  62.959  1.00  0.00    -0.321 N 
HETATM    3  O   UNL     1       1.457  34.425  62.152  1.00  0.00    -0.267 OA
HETATM    4  H   UNL     1       2.230  36.114  63.745  1.00  0.00     0.169 HD
ENDROOT
BRANCH   2   5
HETATM    5  C   UNL     1       3.910  36.926  62.875  1.00  0.00     0.061 A 
HETATM    6  C   UNL     1       4.889  37.000  63.901  1.00  0.00     0.057 A 
HETATM    7  C   UNL     1       5.842  38.029  63.756  1.00  0.00     0.031 A 
HETATM    8  C   UNL     1       5.810  38.947  62.697  1.00  0.00     0.002 A 
HETATM    9  C   UNL     1       4.829  38.855  61.722  1.00  0.00     0.002 A 
HETATM   10  C   UNL     1       3.889  37.836  61.802  1.00  0.00     0.032 A 
BRANCH   6  11
HETATM   11  N   UNL     1       4.945  36.123  64.982  1.00  0.00    -0.379 N 
HETATM   12  C   UNL     1       4.495  36.518  66.321  1.00  0.00     0.125 C 
HETATM   13  C   UNL     1       3.589  35.417  66.870  1.00  0.00     0.051 C 
HETATM   14  C   UNL     1       4.228  34.028  66.794  1.00  0.00     0.121 C 
HETATM   15  C   UNL     1       4.887  33.742  65.443  1.00  0.00     0.051 C 
HETATM   16  C   UNL     1       5.765  34.905  64.986  1.00  0.00     0.125 C 
BRANCH  14  17
HETATM   17  O   UNL     1       5.170  33.859  67.854  1.00  0.00    -0.395 OA
HETATM   18  H   UNL     1       5.279  32.911  68.035  1.00  0.00     0.210 HD
ENDBRANCH  14  17
ENDBRANCH   6  11
ENDBRANCH   2   5
BRANCH   1  19
HETATM   19  C   UNL     1       3.674  34.235  61.381  1.00  0.00     0.033 A 
HETATM   20  C   UNL     1       4.937  33.999  61.942  1.00  0.00     0.025 A 
HETATM   21  C   UNL     1       5.860  33.256  61.222  1.00  0.00    -0.042 A 
HETATM   22  C   UNL     1       5.547  32.706  59.965  1.00  0.00    -0.019 A 
HETATM   23  C   UNL     1       7.271  32.893  61.629  1.00  0.00     0.078 A 
HETATM   24  C   UNL     1       6.685  31.938  59.504  1.00  0.00    -0.019 A 
HETATM   25  C   UNL     1       4.299  32.919  59.403  1.00  0.00     0.014 A 
HETATM   26  C   UNL     1       7.716  32.033  60.467  1.00  0.00    -0.043 A 
HETATM   27  C   UNL     1       6.866  31.176  58.363  1.00  0.00     0.013 A 
HETATM   28  C   UNL     1       8.928  31.385  60.304  1.00  0.00     0.008 A 
HETATM   29  C   UNL     1       9.109  30.618  59.152  1.00  0.00     0.001 A 
HETATM   30  C   UNL     1       8.087  30.513  58.193  1.00  0.00     0.001 A 
HETATM   31  C   UNL     1       3.364  33.689  60.117  1.00  0.00     0.018 A 
ENDBRANCH   1  19
TORSDOF 4
ENDMDL
MODEL 9
REMARK VINA RESULT:      -8.9      4.275      7.397
REMARK  4 active torsions:
REMARK  status: ('A' for Active; 'I' for Inactive)
REMARK    1  A    between atoms: C_8  and  C_9 
REMARK       I    between atoms: C_9  and  N_10 
REMARK    2  A    between atoms: N_10  and  C_11 
REMARK    3  A    between atoms: C_12  and  N_13 
REMARK    4  A    between atoms: C_16  and  O_17 
ROOT
HETATM    1  C   UNL     1       4.243  28.344  54.380  1.00  0.00     0.256 C 
HETATM    2  N   UNL     1       4.642  27.118  54.867  1.00  0.00    -0.321 N 
HETATM    3  O   UNL     1       3.789  29.188  55.152  1.00  0.00    -0.267 OA
HETATM    4  H   UNL     1       4.241  26.861  55.760  1.00  0.00     0.169 HD
ENDROOT
BRANCH   2   5
HETATM    5  C   UNL     1       5.485  26.163  54.275  1.00  0.00     0.061 A 
HETATM    6  C   UNL     1       6.883  26.183  54.523  1.00  0.00     0.057 A 
HETATM    7  C   UNL     1       7.639  25.237  53.801  1.00  0.00     0.031 A 
HETATM    8  C   UNL     1       7.067  24.359  52.870  1.00  0.00     0.002 A 
HETATM    9  C   UNL     1       5.699  24.381  52.641  1.00  0.00     0.002 A 
HETATM   10  C   UNL     1       4.907  25.271  53.353  1.00  0.00     0.032 A 
BRANCH   6  11
HETATM   11  N   UNL     1       7.497  27.051  55.423  1.00  0.00    -0.379 N 
HETATM   12  C   UNL     1       7.986  28.371  55.011  1.00  0.00     0.125 C 
HETATM   13  C   UNL     1       7.496  29.405  56.024  1.00  0.00     0.051 C 
HETATM   14  C   UNL     1       7.826  29.023  57.469  1.00  0.00     0.121 C 
HETATM   15  C   UNL     1       7.505  27.563  57.794  1.00  0.00     0.051 C 
HETATM   16  C   UNL     1       8.035  26.617  56.718  1.00  0.00     0.125 C 
BRANCH  14  17
HETATM   17  O   UNL     1       9.195  29.309  57.756  1.00  0.00    -0.395 OA
HETATM   18  H   UNL     1       9.710  28.488  57.706  1.00  0.00     0.210 HD
ENDBRANCH  14  17
ENDBRANCH   6  11
ENDBRANCH   2   5
BRANCH   1  19
HETATM   19  C   UNL     1       4.192  28.608  52.905  1.00  0.00     0.033 A 
HETATM   20  C   UNL     1       2.980  28.654  52.202  1.00  0.00     0.025 A 
HETATM   21  C   UNL     1       2.997  29.019  50.864  1.00  0.00    -0.042 A 
HETATM   22  C   UNL     1       4.191  29.378  50.211  1.00  0.00    -0.019 A 
HETATM   23  C   UNL     1       1.819  29.123  49.922  1.00  0.00     0.078 A 
HETATM   24  C   UNL     1       3.872  29.766  48.853  1.00  0.00    -0.019 A 
HETATM   25  C   UNL     1       5.395  29.350  50.896  1.00  0.00     0.014 A 
HETATM   26  C   UNL     1       2.479  29.625  48.657  1.00  0.00    -0.043 A 
HETATM   27  C   UNL     1       4.675  30.239  47.830  1.00  0.00     0.013 A 
HETATM   28  C   UNL     1       1.877  29.938  47.450  1.00  0.00     0.008 A 
HETATM   29  C   UNL     1       2.689  30.413  46.419  1.00  0.00     0.001 A 
HETATM   30  C   UNL     1       4.074  30.563  46.608  1.00  0.00     0.001 A 
HETATM   31  C   UNL     1       5.389  28.962  52.248  1.00  0.00     0.018 A 
ENDBRANCH   1  19
TORSDOF 4
ENDMDL
MODEL 10
REMARK VINA RESULT:      -8.7      8.228     13.251
REMARK  4 active torsions:
REMARK  status: ('A' for Active; 'I' for Inactive)
REMARK    1  A    between atoms: C_8  and  C_9 
REMARK       I    between atoms: C_9  and  N_10 
REMARK    2  A    between atoms: N_10  and  C_11 
REMARK    3  A    between atoms: C_12  and  N_13 
REMARK    4  A    between atoms: C_16  and  O_17 
ROOT
HETATM    1  C   UNL     1       3.684  34.264  63.732  1.00  0.00     0.256 C 
HETATM    2  N   UNL     1       4.347  33.116  63.354  1.00  0.00    -0.321 N 
HETATM    3  O   UNL     1       2.579  34.179  64.268  1.00  0.00    -0.267 OA
HETATM    4  H   UNL     1       3.760  32.300  63.238  1.00  0.00     0.169 HD
ENDROOT
BRANCH   2   5
HETATM    5  C   UNL     1       5.710  32.937  63.064  1.00  0.00     0.061 A 
HETATM    6  C   UNL     1       6.132  32.628  61.744  1.00  0.00     0.057 A 
HETATM    7  C   UNL     1       7.511  32.378  61.591  1.00  0.00     0.031 A 
HETATM    8  C   UNL     1       8.407  32.391  62.669  1.00  0.00     0.002 A 
HETATM    9  C   UNL     1       7.956  32.679  63.948  1.00  0.00     0.002 A 
HETATM   10  C   UNL     1       6.612  32.967  64.144  1.00  0.00     0.032 A 
BRANCH   6  11
HETATM   11  N   UNL     1       5.273  32.583  60.648  1.00  0.00    -0.379 N 
HETATM   12  C   UNL     1       3.897  32.087  60.765  1.00  0.00     0.125 C 
HETATM   13  C   UNL     1       2.965  33.085  60.078  1.00  0.00     0.051 C 
HETATM   14  C   UNL     1       3.404  33.424  58.652  1.00  0.00     0.121 C 
HETATM   15  C   UNL     1       4.901  33.718  58.536  1.00  0.00     0.051 C 
HETATM   16  C   UNL     1       5.740  32.665  59.258  1.00  0.00     0.125 C 
BRANCH  14  17
HETATM   17  O   UNL     1       3.031  32.375  57.758  1.00  0.00    -0.395 OA
HETATM   18  H   UNL     1       3.091  31.524  58.221  1.00  0.00     0.210 HD
ENDBRANCH  14  17
ENDBRANCH   6  11
ENDBRANCH   2   5
BRANCH   1  19
HETATM   19  C   UNL     1       4.203  35.616  63.348  1.00  0.00     0.033 A 
HETATM   20  C   UNL     1       4.734  36.502  64.297  1.00  0.00     0.025 A 
HETATM   21  C   UNL     1       5.304  37.687  63.857  1.00  0.00    -0.042 A 
HETATM   22  C   UNL     1       5.395  38.001  62.489  1.00  0.00    -0.019 A 
HETATM   23  C   UNL     1       5.921  38.782  64.700  1.00  0.00     0.078 A 
HETATM   24  C   UNL     1       6.092  39.264  62.353  1.00  0.00    -0.019 A 
HETATM   25  C   UNL     1       4.886  37.130  61.539  1.00  0.00     0.014 A 
HETATM   26  C   UNL     1       6.413  39.745  63.643  1.00  0.00    -0.043 A 
HETATM   27  C   UNL     1       6.471  39.976  61.229  1.00  0.00     0.013 A 
HETATM   28  C   UNL     1       7.099  40.933  63.828  1.00  0.00     0.008 A 
HETATM   29  C   UNL     1       7.479  41.651  62.694  1.00  0.00     0.001 A 
HETATM   30  C   UNL     1       7.170  41.176  61.407  1.00  0.00     0.001 A 
HETATM   31  C   UNL     1       4.288  35.935  61.977  1.00  0.00     0.018 A 
ENDBRANCH   1  19
TORSDOF 4
ENDMDL
