MODEL 1
REMARK VINA RESULT:     -11.4      0.000      0.000
REMARK  7 active torsions:
REMARK  status: ('A' for Active; 'I' for Inactive)
REMARK    1  A    between atoms: O_2  and  C_3 
REMARK    2  A    between atoms: C_6  and  C_11 
REMARK    3  A    between atoms: C_8  and  O_9 
REMARK       I    between atoms: C_11  and  N_13 
REMARK    4  A    between atoms: N_13  and  C_14 
REMARK    5  A    between atoms: C_14  and  C_16 
REMARK    6  A    between atoms: C_20  and  C_22 
REMARK       I    between atoms: C_22  and  N_24 
REMARK    7  A    between atoms: N_24  and  C_25 
ROOT
HETATM    1  C   UNL     1       7.154  30.470  58.500  1.00  0.00    -0.035 A 
HETATM    2  C   UNL     1       6.331  31.520  58.058  1.00  0.00     0.009 A 
HETATM    3  C   UNL     1       5.446  31.338  56.997  1.00  0.00     0.002 A 
HETATM    4  C   UNL     1       5.383  30.107  56.349  1.00  0.00     0.017 A 
HETATM    5  C   UNL     1       6.211  29.051  56.751  1.00  0.00     0.033 A 
HETATM    6  C   UNL     1       7.084  29.235  57.833  1.00  0.00     0.026 A 
ENDROOT
BRANCH   1   7
HETATM    7  C   UNL     1       8.123  30.714  59.644  1.00  0.00     0.114 C 
HETATM    8  C   UNL     1       9.476  31.306  59.243  1.00  0.00     0.037 C 
BRANCH   7   9
HETATM    9  N   UNL     1       7.463  31.422  60.736  1.00  0.00    -0.349 N 
HETATM   10  C   UNL     1       7.826  31.323  62.062  1.00  0.00     0.252 C 
HETATM   11  O   UNL     1       8.715  30.581  62.470  1.00  0.00    -0.268 OA
HETATM   12  H   UNL     1       6.909  32.213  60.450  1.00  0.00     0.163 HD
BRANCH  10  13
HETATM   13  C   UNL     1       7.102  32.202  63.034  1.00  0.00     0.034 A 
HETATM   14  C   UNL     1       7.859  32.899  63.981  1.00  0.00     0.020 A 
HETATM   15  C   UNL     1       7.241  33.735  64.917  1.00  0.00     0.040 A 
HETATM   16  C   UNL     1       5.851  33.906  64.924  1.00  0.00     0.101 A 
HETATM   17  C   UNL     1       5.084  33.210  63.971  1.00  0.00     0.102 A 
HETATM   18  C   UNL     1       5.711  32.349  63.055  1.00  0.00     0.056 A 
BRANCH  16  19
HETATM   19  O   UNL     1       5.193  34.683  65.838  1.00  0.00    -0.353 OA
HETATM   20  C   UNL     1       4.778  34.079  67.056  1.00  0.00     0.210 C 
ENDBRANCH  16  19
BRANCH  17  21
HETATM   21  O   UNL     1       3.719  33.228  63.818  1.00  0.00    -0.353 OA
HETATM   22  C   UNL     1       3.204  33.543  62.531  1.00  0.00     0.210 C 
ENDBRANCH  17  21
ENDBRANCH  10  13
ENDBRANCH   7   9
ENDBRANCH   1   7
BRANCH   5  23
HETATM   23  C   UNL     1       6.101  27.757  56.014  1.00  0.00     0.256 C 
HETATM   24  O   UNL     1       4.979  27.290  55.849  1.00  0.00    -0.267 OA
HETATM   25  N   UNL     1       7.291  27.220  55.551  1.00  0.00    -0.323 N 
HETATM   26  H   UNL     1       8.132  27.769  55.682  1.00  0.00     0.169 HD
BRANCH  25  27
HETATM   27  C   UNL     1       7.461  26.009  54.843  1.00  0.00     0.035 A 
HETATM   28  C   UNL     1       7.448  25.912  53.451  1.00  0.00     0.030 A 
HETATM   29  C   UNL     1       7.633  24.678  52.821  1.00  0.00     0.010 A 
HETATM   30  C   UNL     1       7.837  23.519  53.574  1.00  0.00    -0.048 A 
HETATM   31  C   UNL     1       7.999  22.187  52.887  1.00  0.00     0.069 C 
HETATM   32  C   UNL     1       7.823  23.592  54.976  1.00  0.00    -0.022 A 
HETATM   33  C   UNL     1       8.577  21.113  53.818  1.00  0.00     0.277 C 
HETATM   34  N   UNL     1       7.850  21.092  55.093  1.00  0.00     0.088 N 
HETATM   35  C   UNL     1       8.267  19.955  55.912  1.00  0.00     0.310 C 
HETATM   36  C   UNL     1       8.068  22.357  55.819  1.00  0.00     0.311 C 
HETATM   37  C   UNL     1       7.648  24.842  55.598  1.00  0.00     0.039 A 
ENDBRANCH  25  27
ENDBRANCH   5  23
TORSDOF 7
ENDMDL
MODEL 2
REMARK VINA RESULT:     -11.1      2.603     12.190
REMARK  7 active torsions:
REMARK  status: ('A' for Active; 'I' for Inactive)
REMARK    1  A    between atoms: O_2  and  C_3 
REMARK    2  A    between atoms: C_6  and  C_11 
REMARK    3  A    between atoms: C_8  and  O_9 
REMARK       I    between atoms: C_11  and  N_13 
REMARK    4  A    between atoms: N_13  and  C_14 
REMARK    5  A    between atoms: C_14  and  C_16 
REMARK    6  A    between atoms: C_20  and  C_22 
REMARK       I    between atoms: C_22  and  N_24 
REMARK    7  A    between atoms: N_24  and  C_25 
ROOT
HETATM    1  C   UNL     1       8.129  29.005  56.870  1.00  0.00    -0.035 A 
HETATM    2  C   UNL     1       9.422  28.871  56.334  1.00  0.00     0.009 A 
HETATM    3  C   UNL     1      10.486  29.613  56.843  1.00  0.00     0.002 A 
HETATM    4  C   UNL     1      10.271  30.515  57.882  1.00  0.00     0.017 A 
HETATM    5  C   UNL     1       8.988  30.688  58.416  1.00  0.00     0.033 A 
HETATM    6  C   UNL     1       7.925  29.922  57.915  1.00  0.00     0.026 A 
ENDROOT
BRANCH   1   7
HETATM    7  C   UNL     1       6.989  28.196  56.274  1.00  0.00     0.114 C 
HETATM    8  C   UNL     1       6.034  28.978  55.368  1.00  0.00     0.037 C 
BRANCH   7   9
HETATM    9  N   UNL     1       7.488  26.958  55.685  1.00  0.00    -0.349 N 
HETATM   10  C   UNL     1       7.176  25.695  56.141  1.00  0.00     0.252 C 
HETATM   11  O   UNL     1       6.482  25.484  57.131  1.00  0.00    -0.268 OA
HETATM   12  H   UNL     1       7.847  27.052  54.748  1.00  0.00     0.163 HD
BRANCH  10  13
HETATM   13  C   UNL     1       7.698  24.537  55.350  1.00  0.00     0.034 A 
HETATM   14  C   UNL     1       7.586  24.587  53.957  1.00  0.00     0.020 A 
HETATM   15  C   UNL     1       8.053  23.534  53.162  1.00  0.00     0.040 A 
HETATM   16  C   UNL     1       8.655  22.409  53.739  1.00  0.00     0.101 A 
HETATM   17  C   UNL     1       8.774  22.353  55.140  1.00  0.00     0.102 A 
HETATM   18  C   UNL     1       8.273  23.402  55.931  1.00  0.00     0.056 A 
BRANCH  16  19
HETATM   19  O   UNL     1       9.098  21.337  53.012  1.00  0.00    -0.353 OA
HETATM   20  C   UNL     1       8.190  20.270  52.771  1.00  0.00     0.210 C 
ENDBRANCH  16  19
BRANCH  17  21
HETATM   21  O   UNL     1       9.315  21.343  55.897  1.00  0.00    -0.353 OA
HETATM   22  C   UNL     1       8.438  20.609  56.741  1.00  0.00     0.210 C 
ENDBRANCH  17  21
ENDBRANCH  10  13
ENDBRANCH   7   9
ENDBRANCH   1   7
BRANCH   5  23
HETATM   23  C   UNL     1       8.819  31.673  59.526  1.00  0.00     0.256 C 
HETATM   24  O   UNL     1       9.519  32.680  59.503  1.00  0.00    -0.267 OA
HETATM   25  N   UNL     1       7.849  31.365  60.466  1.00  0.00    -0.323 N 
HETATM   26  H   UNL     1       7.284  30.542  60.301  1.00  0.00     0.169 HD
BRANCH  25  27
HETATM   27  C   UNL     1       7.505  32.118  61.612  1.00  0.00     0.035 A 
HETATM   28  C   UNL     1       8.103  31.953  62.861  1.00  0.00     0.030 A 
HETATM   29  C   UNL     1       7.717  32.744  63.947  1.00  0.00     0.010 A 
HETATM   30  C   UNL     1       6.724  33.717  63.800  1.00  0.00    -0.048 A 
HETATM   31  C   UNL     1       6.288  34.540  64.984  1.00  0.00     0.069 C 
HETATM   32  C   UNL     1       6.091  33.877  62.557  1.00  0.00    -0.022 A 
HETATM   33  C   UNL     1       5.487  35.783  64.573  1.00  0.00     0.277 C 
HETATM   34  N   UNL     1       4.430  35.421  63.620  1.00  0.00     0.088 N 
HETATM   35  C   UNL     1       3.548  36.558  63.365  1.00  0.00     0.310 C 
HETATM   36  C   UNL     1       5.030  34.943  62.361  1.00  0.00     0.311 C 
HETATM   37  C   UNL     1       6.497  33.083  61.469  1.00  0.00     0.039 A 
ENDBRANCH  25  27
ENDBRANCH   5  23
TORSDOF 7
ENDMDL
MODEL 3
REMARK VINA RESULT:     -10.0      2.868     11.410
REMARK  7 active torsions:
REMARK  status: ('A' for Active; 'I' for Inactive)
REMARK    1  A    between atoms: O_2  and  C_3 
REMARK    2  A    between atoms: C_6  and  C_11 
REMARK    3  A    between atoms: C_8  and  O_9 
REMARK       I    between atoms: C_11  and  N_13 
REMARK    4  A    between atoms: N_13  and  C_14 
REMARK    5  A    between atoms: C_14  and  C_16 
REMARK    6  A    between atoms: C_20  and  C_22 
REMARK       I    between atoms: C_22  and  N_24 
REMARK    7  A    between atoms: N_24  and  C_25 
ROOT
HETATM    1  C   UNL     1       4.916  29.253  54.244  1.00  0.00    -0.035 A 
HETATM    2  C   UNL     1       4.192  30.398  53.868  1.00  0.00     0.009 A 
HETATM    3  C   UNL     1       4.158  31.524  54.688  1.00  0.00     0.002 A 
HETATM    4  C   UNL     1       4.831  31.517  55.907  1.00  0.00     0.017 A 
HETATM    5  C   UNL     1       5.538  30.379  56.319  1.00  0.00     0.033 A 
HETATM    6  C   UNL     1       5.586  29.257  55.480  1.00  0.00     0.026 A 
ENDROOT
BRANCH   1   7
HETATM    7  C   UNL     1       4.911  28.036  53.335  1.00  0.00     0.114 C 
HETATM    8  C   UNL     1       5.289  28.306  51.876  1.00  0.00     0.037 C 
BRANCH   7   9
HETATM    9  N   UNL     1       5.644  26.933  53.946  1.00  0.00    -0.349 N 
HETATM   10  C   UNL     1       5.454  25.603  53.637  1.00  0.00     0.252 C 
HETATM   11  O   UNL     1       4.601  25.204  52.848  1.00  0.00    -0.268 OA
HETATM   12  H   UNL     1       6.503  27.199  54.400  1.00  0.00     0.163 HD
BRANCH  10  13
HETATM   13  C   UNL     1       6.369  24.614  54.289  1.00  0.00     0.034 A 
HETATM   14  C   UNL     1       6.480  24.640  55.683  1.00  0.00     0.020 A 
HETATM   15  C   UNL     1       7.320  23.742  56.352  1.00  0.00     0.040 A 
HETATM   16  C   UNL     1       8.062  22.788  55.645  1.00  0.00     0.101 A 
HETATM   17  C   UNL     1       7.953  22.754  54.243  1.00  0.00     0.102 A 
HETATM   18  C   UNL     1       7.130  23.680  53.578  1.00  0.00     0.056 A 
BRANCH  16  19
HETATM   19  O   UNL     1       8.923  21.911  56.245  1.00  0.00    -0.353 OA
HETATM   20  C   UNL     1       8.433  20.622  56.593  1.00  0.00     0.210 C 
ENDBRANCH  16  19
BRANCH  17  21
HETATM   21  O   UNL     1       8.600  21.914  53.371  1.00  0.00    -0.353 OA
HETATM   22  C   UNL     1       7.902  20.756  52.929  1.00  0.00     0.210 C 
ENDBRANCH  17  21
ENDBRANCH  10  13
ENDBRANCH   7   9
ENDBRANCH   1   7
BRANCH   5  23
HETATM   23  C   UNL     1       6.235  30.430  57.639  1.00  0.00     0.256 C 
HETATM   24  O   UNL     1       6.895  29.450  57.971  1.00  0.00    -0.267 OA
HETATM   25  N   UNL     1       6.097  31.609  58.352  1.00  0.00    -0.323 N 
HETATM   26  H   UNL     1       5.597  32.368  57.906  1.00  0.00     0.169 HD
BRANCH  25  27
HETATM   27  C   UNL     1       6.641  31.905  59.623  1.00  0.00     0.035 A 
HETATM   28  C   UNL     1       7.999  31.812  59.929  1.00  0.00     0.030 A 
HETATM   29  C   UNL     1       8.465  32.131  61.208  1.00  0.00     0.010 A 
HETATM   30  C   UNL     1       7.578  32.551  62.203  1.00  0.00    -0.048 A 
HETATM   31  C   UNL     1       8.083  32.859  63.589  1.00  0.00     0.069 C 
HETATM   32  C   UNL     1       6.204  32.622  61.922  1.00  0.00    -0.022 A 
HETATM   33  C   UNL     1       7.067  33.647  64.424  1.00  0.00     0.277 C 
HETATM   34  N   UNL     1       5.741  33.018  64.350  1.00  0.00     0.088 N 
HETATM   35  C   UNL     1       4.812  33.650  65.284  1.00  0.00     0.310 C 
HETATM   36  C   UNL     1       5.222  33.100  62.972  1.00  0.00     0.311 C 
HETATM   37  C   UNL     1       5.750  32.309  60.627  1.00  0.00     0.039 A 
ENDBRANCH  25  27
ENDBRANCH   5  23
TORSDOF 7
ENDMDL
MODEL 4
REMARK VINA RESULT:      -9.9      2.190      3.233
REMARK  7 active torsions:
REMARK  status: ('A' for Active; 'I' for Inactive)
REMARK    1  A    between atoms: O_2  and  C_3 
REMARK    2  A    between atoms: C_6  and  C_11 
REMARK    3  A    between atoms: C_8  and  O_9 
REMARK       I    between atoms: C_11  and  N_13 
REMARK    4  A    between atoms: N_13  and  C_14 
REMARK    5  A    between atoms: C_14  and  C_16 
REMARK    6  A    between atoms: C_20  and  C_22 
REMARK       I    between atoms: C_22  and  N_24 
REMARK    7  A    between atoms: N_24  and  C_25 
ROOT
HETATM    1  C   UNL     1       7.244  32.245  60.085  1.00  0.00    -0.035 A 
HETATM    2  C   UNL     1       8.490  32.563  60.655  1.00  0.00     0.009 A 
HETATM    3  C   UNL     1       9.656  31.938  60.216  1.00  0.00     0.002 A 
HETATM    4  C   UNL     1       9.594  30.972  59.215  1.00  0.00     0.017 A 
HETATM    5  C   UNL     1       8.362  30.617  58.649  1.00  0.00     0.033 A 
HETATM    6  C   UNL     1       7.195  31.265  59.079  1.00  0.00     0.026 A 
ENDROOT
BRANCH   1   7
HETATM    7  C   UNL     1       5.992  32.930  60.606  1.00  0.00     0.114 C 
HETATM    8  C   UNL     1       4.668  32.301  60.162  1.00  0.00     0.037 C 
BRANCH   7   9
HETATM    9  N   UNL     1       6.089  33.159  62.043  1.00  0.00    -0.349 N 
HETATM   10  C   UNL     1       5.997  34.396  62.644  1.00  0.00     0.252 C 
HETATM   11  O   UNL     1       5.877  35.446  62.021  1.00  0.00    -0.268 OA
HETATM   12  H   UNL     1       5.941  32.340  62.611  1.00  0.00     0.163 HD
BRANCH  10  13
HETATM   13  C   UNL     1       6.017  34.430  64.141  1.00  0.00     0.034 A 
HETATM   14  C   UNL     1       7.100  33.837  64.798  1.00  0.00     0.020 A 
HETATM   15  C   UNL     1       7.175  33.834  66.195  1.00  0.00     0.040 A 
HETATM   16  C   UNL     1       6.176  34.434  66.971  1.00  0.00     0.101 A 
HETATM   17  C   UNL     1       5.085  35.036  66.317  1.00  0.00     0.102 A 
HETATM   18  C   UNL     1       5.003  35.006  64.914  1.00  0.00     0.056 A 
BRANCH  16  19
HETATM   19  O   UNL     1       6.183  34.430  68.340  1.00  0.00    -0.353 OA
HETATM   20  C   UNL     1       7.395  34.764  69.004  1.00  0.00     0.210 C 
ENDBRANCH  16  19
BRANCH  17  21
HETATM   21  O   UNL     1       4.004  35.660  66.888  1.00  0.00    -0.353 OA
HETATM   22  C   UNL     1       2.708  35.215  66.508  1.00  0.00     0.210 C 
ENDBRANCH  17  21
ENDBRANCH  10  13
ENDBRANCH   7   9
ENDBRANCH   1   7
BRANCH   5  23
HETATM   23  C   UNL     1       8.358  29.572  57.583  1.00  0.00     0.256 C 
HETATM   24  O   UNL     1       9.160  29.695  56.663  1.00  0.00    -0.267 OA
HETATM   25  N   UNL     1       7.461  28.531  57.758  1.00  0.00    -0.323 N 
HETATM   26  H   UNL     1       6.927  28.516  58.618  1.00  0.00     0.169 HD
BRANCH  25  27
HETATM   27  C   UNL     1       7.251  27.433  56.893  1.00  0.00     0.035 A 
HETATM   28  C   UNL     1       6.483  27.492  55.731  1.00  0.00     0.030 A 
HETATM   29  C   UNL     1       6.330  26.365  54.919  1.00  0.00     0.010 A 
HETATM   30  C   UNL     1       6.946  25.157  55.257  1.00  0.00    -0.048 A 
HETATM   31  C   UNL     1       6.746  23.937  54.395  1.00  0.00     0.069 C 
HETATM   32  C   UNL     1       7.699  25.070  56.438  1.00  0.00    -0.022 A 
HETATM   33  C   UNL     1       7.770  22.834  54.691  1.00  0.00     0.277 C 
HETATM   34  N   UNL     1       7.860  22.590  56.137  1.00  0.00     0.088 N 
HETATM   35  C   UNL     1       8.690  21.420  56.418  1.00  0.00     0.310 C 
HETATM   36  C   UNL     1       8.402  23.781  56.816  1.00  0.00     0.311 C 
HETATM   37  C   UNL     1       7.855  26.216  57.240  1.00  0.00     0.039 A 
ENDBRANCH  25  27
ENDBRANCH   5  23
TORSDOF 7
ENDMDL
MODEL 5
REMARK VINA RESULT:      -9.8      4.538      8.133
REMARK  7 active torsions:
REMARK  status: ('A' for Active; 'I' for Inactive)
REMARK    1  A    between atoms: O_2  and  C_3 
REMARK    2  A    between atoms: C_6  and  C_11 
REMARK    3  A    between atoms: C_8  and  O_9 
REMARK       I    between atoms: C_11  and  N_13 
REMARK    4  A    between atoms: N_13  and  C_14 
REMARK    5  A    between atoms: C_14  and  C_16 
REMARK    6  A    between atoms: C_20  and  C_22 
REMARK       I    between atoms: C_22  and  N_24 
REMARK    7  A    between atoms: N_24  and  C_25 
ROOT
HETATM    1  C   UNL     1       7.517  24.593  54.944  1.00  0.00    -0.035 A 
HETATM    2  C   UNL     1       8.208  23.587  54.246  1.00  0.00     0.009 A 
HETATM    3  C   UNL     1       8.031  23.417  52.874  1.00  0.00     0.002 A 
HETATM    4  C   UNL     1       7.146  24.239  52.181  1.00  0.00     0.017 A 
HETATM    5  C   UNL     1       6.424  25.232  52.856  1.00  0.00     0.033 A 
HETATM    6  C   UNL     1       6.623  25.412  54.232  1.00  0.00     0.026 A 
ENDROOT
BRANCH   1   7
HETATM    7  C   UNL     1       7.718  24.733  56.443  1.00  0.00     0.114 C 
HETATM    8  C   UNL     1       8.618  23.674  57.085  1.00  0.00     0.037 C 
BRANCH   7   9
HETATM    9  N   UNL     1       8.072  26.105  56.790  1.00  0.00    -0.349 N 
HETATM   10  C   UNL     1       7.163  27.083  57.130  1.00  0.00     0.252 C 
HETATM   11  O   UNL     1       5.947  26.913  57.122  1.00  0.00    -0.268 OA
HETATM   12  H   UNL     1       9.036  26.237  57.052  1.00  0.00     0.163 HD
BRANCH  10  13
HETATM   13  C   UNL     1       7.715  28.408  57.557  1.00  0.00     0.034 A 
HETATM   14  C   UNL     1       9.090  28.622  57.423  1.00  0.00     0.020 A 
HETATM   15  C   UNL     1       9.666  29.838  57.806  1.00  0.00     0.040 A 
HETATM   16  C   UNL     1       8.880  30.876  58.322  1.00  0.00     0.101 A 
HETATM   17  C   UNL     1       7.495  30.669  58.456  1.00  0.00     0.102 A 
HETATM   18  C   UNL     1       6.931  29.433  58.097  1.00  0.00     0.056 A 
BRANCH  16  19
HETATM   19  O   UNL     1       9.397  32.071  58.743  1.00  0.00    -0.353 OA
HETATM   20  C   UNL     1       9.683  32.227  60.128  1.00  0.00     0.210 C 
ENDBRANCH  16  19
BRANCH  17  21
HETATM   21  O   UNL     1       6.559  31.545  58.947  1.00  0.00    -0.353 OA
HETATM   22  C   UNL     1       5.639  32.114  58.025  1.00  0.00     0.210 C 
ENDBRANCH  17  21
ENDBRANCH  10  13
ENDBRANCH   7   9
ENDBRANCH   1   7
BRANCH   5  23
HETATM   23  C   UNL     1       5.487  26.079  52.059  1.00  0.00     0.256 C 
HETATM   24  O   UNL     1       4.593  26.661  52.664  1.00  0.00    -0.267 OA
HETATM   25  N   UNL     1       5.744  26.153  50.700  1.00  0.00    -0.323 N 
HETATM   26  H   UNL     1       6.578  25.691  50.357  1.00  0.00     0.169 HD
BRANCH  25  27
HETATM   27  C   UNL     1       5.005  26.869  49.731  1.00  0.00     0.035 A 
HETATM   28  C   UNL     1       4.020  26.298  48.925  1.00  0.00     0.030 A 
HETATM   29  C   UNL     1       3.322  27.074  47.995  1.00  0.00     0.010 A 
HETATM   30  C   UNL     1       3.598  28.437  47.857  1.00  0.00    -0.048 A 
HETATM   31  C   UNL     1       2.867  29.258  46.826  1.00  0.00     0.069 C 
HETATM   32  C   UNL     1       4.607  29.022  48.638  1.00  0.00    -0.022 A 
HETATM   33  C   UNL     1       3.015  30.767  47.063  1.00  0.00     0.277 C 
HETATM   34  N   UNL     1       4.424  31.118  47.280  1.00  0.00     0.088 N 
HETATM   35  C   UNL     1       4.599  32.568  47.322  1.00  0.00     0.310 C 
HETATM   36  C   UNL     1       4.910  30.504  48.530  1.00  0.00     0.311 C 
HETATM   37  C   UNL     1       5.293  28.233  49.579  1.00  0.00     0.039 A 
ENDBRANCH  25  27
ENDBRANCH   5  23
TORSDOF 7
ENDMDL
MODEL 6
REMARK VINA RESULT:      -9.6      2.715     12.217
REMARK  7 active torsions:
REMARK  status: ('A' for Active; 'I' for Inactive)
REMARK    1  A    between atoms: O_2  and  C_3 
REMARK    2  A    between atoms: C_6  and  C_11 
REMARK    3  A    between atoms: C_8  and  O_9 
REMARK       I    between atoms: C_11  and  N_13 
REMARK    4  A    between atoms: N_13  and  C_14 
REMARK    5  A    between atoms: C_14  and  C_16 
REMARK    6  A    between atoms: C_20  and  C_22 
REMARK       I    between atoms: C_22  and  N_24 
REMARK    7  A    between atoms: N_24  and  C_25 
ROOT
HETATM    1  C   UNL     1       5.402  28.840  56.259  1.00  0.00    -0.035 A 
HETATM    2  C   UNL     1       6.806  28.903  56.266  1.00  0.00     0.009 A 
HETATM    3  C   UNL     1       7.478  29.793  57.102  1.00  0.00     0.002 A 
HETATM    4  C   UNL     1       6.756  30.648  57.930  1.00  0.00     0.017 A 
HETATM    5  C   UNL     1       5.356  30.625  57.924  1.00  0.00     0.033 A 
HETATM    6  C   UNL     1       4.686  29.712  57.097  1.00  0.00     0.026 A 
ENDROOT
BRANCH   1   7
HETATM    7  C   UNL     1       4.704  27.873  55.318  1.00  0.00     0.114 C 
HETATM    8  C   UNL     1       3.999  28.517  54.121  1.00  0.00     0.037 C 
BRANCH   7   9
HETATM    9  N   UNL     1       5.589  26.769  54.964  1.00  0.00    -0.349 N 
HETATM   10  C   UNL     1       5.653  25.571  55.642  1.00  0.00     0.252 C 
HETATM   11  O   UNL     1       5.004  25.330  56.656  1.00  0.00    -0.268 OA
HETATM   12  H   UNL     1       5.953  26.806  54.025  1.00  0.00     0.163 HD
BRANCH  10  13
HETATM   13  C   UNL     1       6.547  24.513  55.075  1.00  0.00     0.034 A 
HETATM   14  C   UNL     1       6.584  24.358  53.685  1.00  0.00     0.020 A 
HETATM   15  C   UNL     1       7.398  23.386  53.094  1.00  0.00     0.040 A 
HETATM   16  C   UNL     1       8.205  22.550  53.876  1.00  0.00     0.101 A 
HETATM   17  C   UNL     1       8.176  22.703  55.274  1.00  0.00     0.102 A 
HETATM   18  C   UNL     1       7.331  23.662  55.860  1.00  0.00     0.056 A 
BRANCH  16  19
HETATM   19  O   UNL     1       8.993  21.562  53.352  1.00  0.00    -0.353 OA
HETATM   20  C   UNL     1       8.358  20.383  52.871  1.00  0.00     0.210 C 
ENDBRANCH  16  19
BRANCH  17  21
HETATM   21  O   UNL     1       8.874  21.983  56.212  1.00  0.00    -0.353 OA
HETATM   22  C   UNL     1       8.292  20.774  56.684  1.00  0.00     0.210 C 
ENDBRANCH  17  21
ENDBRANCH  10  13
ENDBRANCH   7   9
ENDBRANCH   1   7
BRANCH   5  23
HETATM   23  C   UNL     1       4.637  31.569  58.832  1.00  0.00     0.256 C 
HETATM   24  O   UNL     1       3.419  31.653  58.715  1.00  0.00    -0.267 OA
HETATM   25  N   UNL     1       5.424  32.241  59.753  1.00  0.00    -0.323 N 
HETATM   26  H   UNL     1       6.406  31.997  59.793  1.00  0.00     0.169 HD
BRANCH  25  27
HETATM   27  C   UNL     1       4.995  33.191  60.707  1.00  0.00     0.035 A 
HETATM   28  C   UNL     1       4.402  34.411  60.380  1.00  0.00     0.030 A 
HETATM   29  C   UNL     1       3.993  35.296  61.380  1.00  0.00     0.010 A 
HETATM   30  C   UNL     1       4.169  34.974  62.729  1.00  0.00    -0.048 A 
HETATM   31  C   UNL     1       3.758  35.951  63.801  1.00  0.00     0.069 C 
HETATM   32  C   UNL     1       4.791  33.765  63.077  1.00  0.00    -0.022 A 
HETATM   33  C   UNL     1       3.673  35.300  65.188  1.00  0.00     0.277 C 
HETATM   34  N   UNL     1       4.884  34.517  65.464  1.00  0.00     0.088 N 
HETATM   35  C   UNL     1       4.896  34.046  66.848  1.00  0.00     0.310 C 
HETATM   36  C   UNL     1       4.971  33.377  64.532  1.00  0.00     0.311 C 
HETATM   37  C   UNL     1       5.187  32.877  62.060  1.00  0.00     0.039 A 
ENDBRANCH  25  27
ENDBRANCH   5  23
TORSDOF 7
ENDMDL
MODEL 7
REMARK VINA RESULT:      -9.6      2.554      3.814
REMARK  7 active torsions:
REMARK  status: ('A' for Active; 'I' for Inactive)
REMARK    1  A    between atoms: O_2  and  C_3 
REMARK    2  A    between atoms: C_6  and  C_11 
REMARK    3  A    between atoms: C_8  and  O_9 
REMARK       I    between atoms: C_11  and  N_13 
REMARK    4  A    between atoms: N_13  and  C_14 
REMARK    5  A    between atoms: C_14  and  C_16 
REMARK    6  A    between atoms: C_20  and  C_22 
REMARK       I    between atoms: C_22  and  N_24 
REMARK    7  A    between atoms: N_24  and  C_25 
ROOT
HETATM    1  C   UNL     1       7.378  32.211  60.023  1.00  0.00    -0.035 A 
HETATM    2  C   UNL     1       8.599  32.588  60.610  1.00  0.00     0.009 A 
HETATM    3  C   UNL     1       9.797  32.000  60.208  1.00  0.00     0.002 A 
HETATM    4  C   UNL     1       9.791  31.011  59.227  1.00  0.00     0.017 A 
HETATM    5  C   UNL     1       8.586  30.597  58.645  1.00  0.00     0.033 A 
HETATM    6  C   UNL     1       7.386  31.208  59.038  1.00  0.00     0.026 A 
ENDROOT
BRANCH   1   7
HETATM    7  C   UNL     1       6.090  32.857  60.504  1.00  0.00     0.114 C 
HETATM    8  C   UNL     1       4.801  32.179  60.034  1.00  0.00     0.037 C 
BRANCH   7   9
HETATM    9  N   UNL     1       6.143  33.105  61.940  1.00  0.00    -0.349 N 
HETATM   10  C   UNL     1       5.971  34.341  62.526  1.00  0.00     0.252 C 
HETATM   11  O   UNL     1       5.809  35.378  61.889  1.00  0.00    -0.268 OA
HETATM   12  H   UNL     1       6.025  32.285  62.514  1.00  0.00     0.163 HD
BRANCH  10  13
HETATM   13  C   UNL     1       5.955  34.390  64.022  1.00  0.00     0.034 A 
HETATM   14  C   UNL     1       6.969  33.719  64.713  1.00  0.00     0.020 A 
HETATM   15  C   UNL     1       7.008  33.726  66.112  1.00  0.00     0.040 A 
HETATM   16  C   UNL     1       6.041  34.415  66.856  1.00  0.00     0.101 A 
HETATM   17  C   UNL     1       5.021  35.095  66.167  1.00  0.00     0.102 A 
HETATM   18  C   UNL     1       4.973  35.056  64.763  1.00  0.00     0.056 A 
BRANCH  16  19
HETATM   19  O   UNL     1       6.013  34.425  68.224  1.00  0.00    -0.353 OA
HETATM   20  C   UNL     1       6.934  35.267  68.906  1.00  0.00     0.210 C 
ENDBRANCH  16  19
BRANCH  17  21
HETATM   21  O   UNL     1       3.980  35.812  66.703  1.00  0.00    -0.353 OA
HETATM   22  C   UNL     1       2.708  35.180  66.769  1.00  0.00     0.210 C 
ENDBRANCH  17  21
ENDBRANCH  10  13
ENDBRANCH   7   9
ENDBRANCH   1   7
BRANCH   5  23
HETATM   23  C   UNL     1       8.644  29.530  57.602  1.00  0.00     0.256 C 
HETATM   24  O   UNL     1       9.450  29.671  56.689  1.00  0.00    -0.267 OA
HETATM   25  N   UNL     1       7.793  28.453  57.790  1.00  0.00    -0.323 N 
HETATM   26  H   UNL     1       7.250  28.431  58.644  1.00  0.00     0.169 HD
BRANCH  25  27
HETATM   27  C   UNL     1       7.646  27.328  56.948  1.00  0.00     0.035 A 
HETATM   28  C   UNL     1       8.035  26.035  57.299  1.00  0.00     0.030 A 
HETATM   29  C   UNL     1       7.847  24.968  56.416  1.00  0.00     0.010 A 
HETATM   30  C   UNL     1       7.264  25.178  55.163  1.00  0.00    -0.048 A 
HETATM   31  C   UNL     1       7.098  24.029  54.202  1.00  0.00     0.069 C 
HETATM   32  C   UNL     1       6.894  26.477  54.780  1.00  0.00    -0.022 A 
HETATM   33  C   UNL     1       6.124  24.352  53.062  1.00  0.00     0.277 C 
HETATM   34  N   UNL     1       6.451  25.651  52.458  1.00  0.00     0.088 N 
HETATM   35  C   UNL     1       5.651  25.883  51.257  1.00  0.00     0.310 C 
HETATM   36  C   UNL     1       6.234  26.731  53.439  1.00  0.00     0.311 C 
HETATM   37  C   UNL     1       7.077  27.539  55.684  1.00  0.00     0.039 A 
ENDBRANCH  25  27
ENDBRANCH   5  23
TORSDOF 7
ENDMDL
MODEL 8
REMARK VINA RESULT:      -9.5      4.336      7.871
REMARK  7 active torsions:
REMARK  status: ('A' for Active; 'I' for Inactive)
REMARK    1  A    between atoms: O_2  and  C_3 
REMARK    2  A    between atoms: C_6  and  C_11 
REMARK    3  A    between atoms: C_8  and  O_9 
REMARK       I    between atoms: C_11  and  N_13 
REMARK    4  A    between atoms: N_13  and  C_14 
REMARK    5  A    between atoms: C_14  and  C_16 
REMARK    6  A    between atoms: C_20  and  C_22 
REMARK       I    between atoms: C_22  and  N_24 
REMARK    7  A    between atoms: N_24  and  C_25 
ROOT
HETATM    1  C   UNL     1       7.505  24.383  55.530  1.00  0.00    -0.035 A 
HETATM    2  C   UNL     1       8.409  23.457  54.979  1.00  0.00     0.009 A 
HETATM    3  C   UNL     1       8.365  23.134  53.625  1.00  0.00     0.002 A 
HETATM    4  C   UNL     1       7.404  23.715  52.802  1.00  0.00     0.017 A 
HETATM    5  C   UNL     1       6.474  24.620  53.329  1.00  0.00     0.033 A 
HETATM    6  C   UNL     1       6.536  24.958  54.689  1.00  0.00     0.026 A 
ENDROOT
BRANCH   1   7
HETATM    7  C   UNL     1       7.568  24.693  57.015  1.00  0.00     0.114 C 
HETATM    8  C   UNL     1       8.930  24.464  57.675  1.00  0.00     0.037 C 
BRANCH   7   9
HETATM    9  N   UNL     1       6.983  25.999  57.294  1.00  0.00    -0.349 N 
HETATM   10  C   UNL     1       7.680  27.188  57.269  1.00  0.00     0.252 C 
HETATM   11  O   UNL     1       8.887  27.263  57.061  1.00  0.00    -0.268 OA
HETATM   12  H   UNL     1       5.978  26.034  57.227  1.00  0.00     0.163 HD
BRANCH  10  13
HETATM   13  C   UNL     1       6.893  28.444  57.481  1.00  0.00     0.034 A 
HETATM   14  C   UNL     1       5.528  28.424  57.179  1.00  0.00     0.020 A 
HETATM   15  C   UNL     1       4.739  29.567  57.353  1.00  0.00     0.040 A 
HETATM   16  C   UNL     1       5.292  30.756  57.845  1.00  0.00     0.101 A 
HETATM   17  C   UNL     1       6.664  30.782  58.154  1.00  0.00     0.102 A 
HETATM   18  C   UNL     1       7.455  29.638  57.946  1.00  0.00     0.056 A 
BRANCH  16  19
HETATM   19  O   UNL     1       4.575  31.910  58.002  1.00  0.00    -0.353 OA
HETATM   20  C   UNL     1       3.741  32.030  59.148  1.00  0.00     0.210 C 
ENDBRANCH  16  19
BRANCH  17  21
HETATM   21  O   UNL     1       7.397  31.841  58.631  1.00  0.00    -0.353 OA
HETATM   22  C   UNL     1       7.500  31.992  60.041  1.00  0.00     0.210 C 
ENDBRANCH  17  21
ENDBRANCH  10  13
ENDBRANCH   7   9
ENDBRANCH   1   7
BRANCH   5  23
HETATM   23  C   UNL     1       5.464  25.207  52.398  1.00  0.00     0.256 C 
HETATM   24  O   UNL     1       4.279  25.058  52.677  1.00  0.00    -0.267 OA
HETATM   25  N   UNL     1       5.973  25.903  51.313  1.00  0.00    -0.323 N 
HETATM   26  H   UNL     1       6.977  26.022  51.266  1.00  0.00     0.169 HD
BRANCH  25  27
HETATM   27  C   UNL     1       5.237  26.536  50.287  1.00  0.00     0.035 A 
HETATM   28  C   UNL     1       4.380  25.864  49.415  1.00  0.00     0.030 A 
HETATM   29  C   UNL     1       3.676  26.561  48.429  1.00  0.00     0.010 A 
HETATM   30  C   UNL     1       3.816  27.945  48.300  1.00  0.00    -0.048 A 
HETATM   31  C   UNL     1       3.081  28.684  47.211  1.00  0.00     0.069 C 
HETATM   32  C   UNL     1       4.697  28.634  49.149  1.00  0.00    -0.022 A 
HETATM   33  C   UNL     1       3.052  30.200  47.445  1.00  0.00     0.277 C 
HETATM   34  N   UNL     1       4.396  30.698  47.763  1.00  0.00     0.088 N 
HETATM   35  C   UNL     1       4.414  32.158  47.805  1.00  0.00     0.310 C 
HETATM   36  C   UNL     1       4.850  30.139  49.050  1.00  0.00     0.311 C 
HETATM   37  C   UNL     1       5.390  27.923  50.145  1.00  0.00     0.039 A 
ENDBRANCH  25  27
ENDBRANCH   5  23
TORSDOF 7
ENDMDL
MODEL 9
REMARK VINA RESULT:      -9.4      5.228      8.331
REMARK  7 active torsions:
REMARK  status: ('A' for Active; 'I' for Inactive)
REMARK    1  A    between atoms: O_2  and  C_3 
REMARK    2  A    between atoms: C_6  and  C_11 
REMARK    3  A    between atoms: C_8  and  O_9 
REMARK       I    between atoms: C_11  and  N_13 
REMARK    4  A    between atoms: N_13  and  C_14 
REMARK    5  A    between atoms: C_14  and  C_16 
REMARK    6  A    between atoms: C_20  and  C_22 
REMARK       I    between atoms: C_22  and  N_24 
REMARK    7  A    between atoms: N_24  and  C_25 
ROOT
HETATM    1  C   UNL     1       6.700  25.565  54.306  1.00  0.00    -0.035 A 
HETATM    2  C   UNL     1       7.693  24.677  53.858  1.00  0.00     0.009 A 
HETATM    3  C   UNL     1       7.947  24.515  52.498  1.00  0.00     0.002 A 
HETATM    4  C   UNL     1       7.198  25.224  51.562  1.00  0.00     0.017 A 
HETATM    5  C   UNL     1       6.184  26.096  51.979  1.00  0.00     0.033 A 
HETATM    6  C   UNL     1       5.949  26.271  53.351  1.00  0.00     0.026 A 
ENDROOT
BRANCH   1   7
HETATM    7  C   UNL     1       6.436  25.698  55.796  1.00  0.00     0.114 C 
HETATM    8  C   UNL     1       6.754  24.454  56.631  1.00  0.00     0.037 C 
BRANCH   7   9
HETATM    9  N   UNL     1       7.020  26.929  56.316  1.00  0.00    -0.349 N 
HETATM   10  C   UNL     1       6.308  27.924  56.950  1.00  0.00     0.252 C 
HETATM   11  O   UNL     1       5.089  27.899  57.095  1.00  0.00    -0.268 OA
HETATM   12  H   UNL     1       8.018  26.898  56.449  1.00  0.00     0.163 HD
BRANCH  10  13
HETATM   13  C   UNL     1       7.089  29.072  57.509  1.00  0.00     0.034 A 
HETATM   14  C   UNL     1       8.475  28.928  57.628  1.00  0.00     0.020 A 
HETATM   15  C   UNL     1       9.261  29.964  58.145  1.00  0.00     0.040 A 
HETATM   16  C   UNL     1       8.683  31.175  58.546  1.00  0.00     0.101 A 
HETATM   17  C   UNL     1       7.290  31.328  58.426  1.00  0.00     0.102 A 
HETATM   18  C   UNL     1       6.506  30.270  57.935  1.00  0.00     0.056 A 
BRANCH  16  19
HETATM   19  O   UNL     1       9.400  32.206  59.090  1.00  0.00    -0.353 OA
HETATM   20  C   UNL     1       9.663  32.176  60.487  1.00  0.00     0.210 C 
ENDBRANCH  16  19
BRANCH  17  21
HETATM   21  O   UNL     1       6.532  32.420  58.772  1.00  0.00    -0.353 OA
HETATM   22  C   UNL     1       5.914  32.416  60.052  1.00  0.00     0.210 C 
ENDBRANCH  17  21
ENDBRANCH  10  13
ENDBRANCH   7   9
ENDBRANCH   1   7
BRANCH   5  23
HETATM   23  C   UNL     1       5.413  26.826  50.929  1.00  0.00     0.256 C 
HETATM   24  O   UNL     1       5.707  27.998  50.719  1.00  0.00    -0.267 OA
HETATM   25  N   UNL     1       4.452  26.086  50.259  1.00  0.00    -0.323 N 
HETATM   26  H   UNL     1       4.387  25.100  50.478  1.00  0.00     0.169 HD
BRANCH  25  27
HETATM   27  C   UNL     1       3.585  26.541  49.241  1.00  0.00     0.035 A 
HETATM   28  C   UNL     1       3.331  25.838  48.063  1.00  0.00     0.030 A 
HETATM   29  C   UNL     1       2.450  26.347  47.104  1.00  0.00     0.010 A 
HETATM   30  C   UNL     1       1.807  27.571  47.309  1.00  0.00    -0.048 A 
HETATM   31  C   UNL     1       0.888  28.131  46.254  1.00  0.00     0.069 C 
HETATM   32  C   UNL     1       2.073  28.307  48.475  1.00  0.00    -0.022 A 
HETATM   33  C   UNL     1      -0.002  29.260  46.789  1.00  0.00     0.277 C 
HETATM   34  N   UNL     1       0.802  30.244  47.526  1.00  0.00     0.088 N 
HETATM   35  C   UNL     1      -0.001  31.413  47.879  1.00  0.00     0.310 C 
HETATM   36  C   UNL     1       1.370  29.624  48.737  1.00  0.00     0.311 C 
HETATM   37  C   UNL     1       2.952  27.777  49.438  1.00  0.00     0.039 A 
ENDBRANCH  25  27
ENDBRANCH   5  23
TORSDOF 7
ENDMDL
MODEL 10
REMARK VINA RESULT:      -9.3      2.654      4.156
REMARK  7 active torsions:
REMARK  status: ('A' for Active; 'I' for Inactive)
REMARK    1  A    between atoms: O_2  and  C_3 
REMARK    2  A    between atoms: C_6  and  C_11 
REMARK    3  A    between atoms: C_8  and  O_9 
REMARK       I    between atoms: C_11  and  N_13 
REMARK    4  A    between atoms: N_13  and  C_14 
REMARK    5  A    between atoms: C_14  and  C_16 
REMARK    6  A    between atoms: C_20  and  C_22 
REMARK       I    between atoms: C_22  and  N_24 
REMARK    7  A    between atoms: N_24  and  C_25 
ROOT
HETATM    1  C   UNL     1       8.175  31.319  60.123  1.00  0.00    -0.035 A 
HETATM    2  C   UNL     1       9.352  32.088  60.130  1.00  0.00     0.009 A 
HETATM    3  C   UNL     1      10.336  31.899  59.162  1.00  0.00     0.002 A 
HETATM    4  C   UNL     1      10.169  30.923  58.182  1.00  0.00     0.017 A 
HETATM    5  C   UNL     1       9.019  30.124  58.168  1.00  0.00     0.033 A 
HETATM    6  C   UNL     1       8.022  30.334  59.132  1.00  0.00     0.026 A 
ENDROOT
BRANCH   1   7
HETATM    7  C   UNL     1       7.135  31.538  61.209  1.00  0.00     0.114 C 
HETATM    8  C   UNL     1       7.695  31.808  62.608  1.00  0.00     0.037 C 
BRANCH   7   9
HETATM    9  N   UNL     1       6.132  32.503  60.773  1.00  0.00    -0.349 N 
HETATM   10  C   UNL     1       4.893  32.658  61.357  1.00  0.00     0.252 C 
HETATM   11  O   UNL     1       4.484  31.956  62.278  1.00  0.00    -0.268 OA
HETATM   12  H   UNL     1       6.489  33.254  60.204  1.00  0.00     0.163 HD
BRANCH  10  13
HETATM   13  C   UNL     1       4.031  33.769  60.843  1.00  0.00     0.034 A 
HETATM   14  C   UNL     1       3.263  34.487  61.765  1.00  0.00     0.020 A 
HETATM   15  C   UNL     1       2.437  35.535  61.347  1.00  0.00     0.040 A 
HETATM   16  C   UNL     1       2.365  35.901  59.997  1.00  0.00     0.101 A 
HETATM   17  C   UNL     1       3.138  35.185  59.064  1.00  0.00     0.102 A 
HETATM   18  C   UNL     1       3.941  34.114  59.490  1.00  0.00     0.056 A 
BRANCH  16  19
HETATM   19  O   UNL     1       1.548  36.894  59.530  1.00  0.00    -0.353 OA
HETATM   20  C   UNL     1       2.036  38.230  59.554  1.00  0.00     0.210 C 
ENDBRANCH  16  19
BRANCH  17  21
HETATM   21  O   UNL     1       3.200  35.374  57.705  1.00  0.00    -0.353 OA
HETATM   22  C   UNL     1       4.475  35.281  57.084  1.00  0.00     0.210 C 
ENDBRANCH  17  21
ENDBRANCH  10  13
ENDBRANCH   7   9
ENDBRANCH   1   7
BRANCH   5  23
HETATM   23  C   UNL     1       8.898  29.091  57.095  1.00  0.00     0.256 C 
HETATM   24  O   UNL     1       9.508  29.285  56.049  1.00  0.00    -0.267 OA
HETATM   25  N   UNL     1       8.127  27.983  57.405  1.00  0.00    -0.323 N 
HETATM   26  H   UNL     1       7.761  27.918  58.347  1.00  0.00     0.169 HD
BRANCH  25  27
HETATM   27  C   UNL     1       7.846  26.880  56.567  1.00  0.00     0.035 A 
HETATM   28  C   UNL     1       7.205  26.984  55.332  1.00  0.00     0.030 A 
HETATM   29  C   UNL     1       6.970  25.848  54.553  1.00  0.00     0.010 A 
HETATM   30  C   UNL     1       7.376  24.586  54.997  1.00  0.00    -0.048 A 
HETATM   31  C   UNL     1       7.086  23.361  54.167  1.00  0.00     0.069 C 
HETATM   32  C   UNL     1       7.996  24.458  56.250  1.00  0.00    -0.022 A 
HETATM   33  C   UNL     1       7.912  22.145  54.606  1.00  0.00     0.277 C 
HETATM   34  N   UNL     1       7.831  21.967  56.062  1.00  0.00     0.088 N 
HETATM   35  C   UNL     1       8.458  20.711  56.468  1.00  0.00     0.310 C 
HETATM   36  C   UNL     1       8.471  23.107  56.745  1.00  0.00     0.311 C 
HETATM   37  C   UNL     1       8.237  25.612  57.019  1.00  0.00     0.039 A 
ENDBRANCH  25  27
ENDBRANCH   5  23
TORSDOF 7
ENDMDL
