MODEL 1
REMARK VINA RESULT:      -8.6      0.000      0.000
REMARK  7 active torsions:
REMARK  status: ('A' for Active; 'I' for Inactive)
REMARK    1  A    between atoms: C_2  and  C_3 
REMARK    2  A    between atoms: C_3  and  O_4 
REMARK    3  A    between atoms: O_4  and  C_5 
REMARK    4  A    between atoms: C_9  and  C_10 
REMARK    5  A    between atoms: C_10  and  N_11 
REMARK    6  A    between atoms: N_11  and  C_12 
REMARK    7  A    between atoms: C_19  and  C_20 
REMARK       I    between atoms: C_20  and  N_21 
ROOT
HETATM    1  C   UNL     1       7.844  28.998  56.671  1.00  0.00     0.009 A 
HETATM    2  C   UNL     1       7.494  29.743  57.813  1.00  0.00     0.039 A 
HETATM    3  C   UNL     1       8.416  30.636  58.399  1.00  0.00     0.030 A 
HETATM    4  C   UNL     1       9.685  30.737  57.848  1.00  0.00     0.063 A 
HETATM    5  N   UNL     1      10.344  31.653  58.618  1.00  0.00    -0.277 N 
HETATM    6  H   UNL     1      11.300  31.972  58.510  1.00  0.00     0.189 HD
HETATM    7  N   UNL     1       9.613  32.163  59.625  1.00  0.00    -0.168 NA
HETATM    8  C   UNL     1       8.418  31.540  59.501  1.00  0.00     0.156 A 
HETATM    9  C   UNL     1      10.093  29.991  56.741  1.00  0.00     0.034 A 
HETATM   10  C   UNL     1       9.151  29.115  56.179  1.00  0.00     0.026 A 
ENDROOT
BRANCH   1  11
HETATM   11  N   UNL     1       6.914  28.076  56.173  1.00  0.00    -0.289 NA
HETATM   12  H   UNL     1       7.102  27.840  55.199  1.00  0.00     0.128 HD
BRANCH  11  13
HETATM   13  C   UNL     1       6.576  26.905  56.966  1.00  0.00     0.131 C 
BRANCH  13  14
HETATM   14  C   UNL     1       7.293  25.694  56.415  1.00  0.00    -0.043 A 
HETATM   15  C   UNL     1       7.289  25.417  55.042  1.00  0.00     0.035 A 
HETATM   16  C   UNL     1       7.985  24.313  54.540  1.00  0.00     0.068 A 
HETATM   17  C   UNL     1       8.704  23.469  55.399  1.00  0.00     0.090 A 
HETATM   18 CL   UNL     1       7.954  24.044  52.831  1.00  0.00    -0.081 Cl
HETATM   19  C   UNL     1       8.676  23.721  56.774  1.00  0.00     0.039 A 
HETATM   20  C   UNL     1       7.980  24.827  57.274  1.00  0.00     0.011 A 
BRANCH  17  21
HETATM   21  O   UNL     1       9.370  22.410  54.837  1.00  0.00    -0.346 OA
BRANCH  21  22
HETATM   22  C   UNL     1       8.934  21.114  55.243  1.00  0.00     0.202 C 
BRANCH  22  23
HETATM   23  C   UNL     1       7.926  20.645  54.236  1.00  0.00    -0.011 C 
HETATM   24  C   UNL     1       8.180  20.433  52.939  1.00  0.00     0.009 C 
ENDBRANCH  22  23
ENDBRANCH  21  22
ENDBRANCH  17  21
ENDBRANCH  13  14
ENDBRANCH  11  13
ENDBRANCH   1  11
BRANCH   8  25
HETATM   25  C   UNL     1       7.312  31.819  60.427  1.00  0.00     0.270 C 
HETATM   26  N   UNL     1       7.348  31.080  61.578  1.00  0.00    -0.365 N 
HETATM   27  H   UNL     1       8.105  30.420  61.707  1.00  0.00     0.159 HD
HETATM   28  H   UNL     1       6.633  31.205  62.277  1.00  0.00     0.159 HD
HETATM   29  O   UNL     1       6.421  32.637  60.223  1.00  0.00    -0.266 OA
ENDBRANCH   8  25
TORSDOF 7
ENDMDL
MODEL 2
REMARK VINA RESULT:      -8.4      3.449      9.021
REMARK  7 active torsions:
REMARK  status: ('A' for Active; 'I' for Inactive)
REMARK    1  A    between atoms: C_2  and  C_3 
REMARK    2  A    between atoms: C_3  and  O_4 
REMARK    3  A    between atoms: O_4  and  C_5 
REMARK    4  A    between atoms: C_9  and  C_10 
REMARK    5  A    between atoms: C_10  and  N_11 
REMARK    6  A    between atoms: N_11  and  C_12 
REMARK    7  A    between atoms: C_19  and  C_20 
REMARK       I    between atoms: C_20  and  N_21 
ROOT
HETATM    1  C   UNL     1       7.588  25.422  55.500  1.00  0.00     0.009 A 
HETATM    2  C   UNL     1       7.845  24.087  55.865  1.00  0.00     0.039 A 
HETATM    3  C   UNL     1       7.890  23.071  54.887  1.00  0.00     0.030 A 
HETATM    4  C   UNL     1       7.640  23.409  53.565  1.00  0.00     0.063 A 
HETATM    5  N   UNL     1       7.741  22.240  52.865  1.00  0.00    -0.277 N 
HETATM    6  H   UNL     1       7.614  22.109  51.868  1.00  0.00     0.189 HD
HETATM    7  N   UNL     1       8.041  21.166  53.616  1.00  0.00    -0.168 NA
HETATM    8  C   UNL     1       8.133  21.666  54.870  1.00  0.00     0.156 A 
HETATM    9  C   UNL     1       7.340  24.711  53.159  1.00  0.00     0.034 A 
HETATM   10  C   UNL     1       7.308  25.699  54.155  1.00  0.00     0.026 A 
ENDROOT
BRANCH   1  11
HETATM   11  N   UNL     1       7.486  26.378  56.520  1.00  0.00    -0.289 NA
HETATM   12  H   UNL     1       8.378  26.521  56.993  1.00  0.00     0.128 HD
BRANCH  11  13
HETATM   13  C   UNL     1       6.796  27.631  56.257  1.00  0.00     0.131 C 
BRANCH  13  14
HETATM   14  C   UNL     1       7.490  28.756  56.992  1.00  0.00    -0.043 A 
HETATM   15  C   UNL     1       8.876  28.933  56.894  1.00  0.00     0.035 A 
HETATM   16  C   UNL     1       9.501  29.998  57.552  1.00  0.00     0.068 A 
HETATM   17  C   UNL     1       8.753  30.910  58.311  1.00  0.00     0.090 A 
HETATM   18 CL   UNL     1      11.213  30.169  57.371  1.00  0.00    -0.081 Cl
HETATM   19  C   UNL     1       7.375  30.710  58.441  1.00  0.00     0.039 A 
HETATM   20  C   UNL     1       6.750  29.645  57.783  1.00  0.00     0.011 A 
BRANCH  17  21
HETATM   21  O   UNL     1       9.430  31.934  58.921  1.00  0.00    -0.346 OA
BRANCH  21  22
HETATM   22  C   UNL     1       8.874  32.405  60.147  1.00  0.00     0.202 C 
BRANCH  22  23
HETATM   23  C   UNL     1       9.663  31.788  61.263  1.00  0.00    -0.011 C 
HETATM   24  C   UNL     1       9.385  30.611  61.839  1.00  0.00     0.009 C 
ENDBRANCH  22  23
ENDBRANCH  21  22
ENDBRANCH  17  21
ENDBRANCH  13  14
ENDBRANCH  11  13
ENDBRANCH   1  11
BRANCH   8  25
HETATM   25  C   UNL     1       8.452  20.803  56.015  1.00  0.00     0.270 C 
HETATM   26  N   UNL     1       8.976  19.587  55.669  1.00  0.00    -0.365 N 
HETATM   27  H   UNL     1       9.105  19.377  54.687  1.00  0.00     0.159 HD
HETATM   28  H   UNL     1       9.231  18.928  56.387  1.00  0.00     0.159 HD
HETATM   29  O   UNL     1       8.281  21.112  57.190  1.00  0.00    -0.266 OA
ENDBRANCH   8  25
TORSDOF 7
ENDMDL
MODEL 3
REMARK VINA RESULT:      -8.0      3.505      8.970
REMARK  7 active torsions:
REMARK  status: ('A' for Active; 'I' for Inactive)
REMARK    1  A    between atoms: C_2  and  C_3 
REMARK    2  A    between atoms: C_3  and  O_4 
REMARK    3  A    between atoms: O_4  and  C_5 
REMARK    4  A    between atoms: C_9  and  C_10 
REMARK    5  A    between atoms: C_10  and  N_11 
REMARK    6  A    between atoms: N_11  and  C_12 
REMARK    7  A    between atoms: C_19  and  C_20 
REMARK       I    between atoms: C_20  and  N_21 
ROOT
HETATM    1  C   UNL     1       7.555  25.966  54.357  1.00  0.00     0.009 A 
HETATM    2  C   UNL     1       7.687  24.770  55.088  1.00  0.00     0.039 A 
HETATM    3  C   UNL     1       7.824  23.534  54.423  1.00  0.00     0.030 A 
HETATM    4  C   UNL     1       7.788  23.517  53.036  1.00  0.00     0.063 A 
HETATM    5  N   UNL     1       7.933  22.205  52.684  1.00  0.00    -0.277 N 
HETATM    6  H   UNL     1       7.947  21.818  51.747  1.00  0.00     0.189 HD
HETATM    7  N   UNL     1       8.063  21.361  53.723  1.00  0.00    -0.168 NA
HETATM    8  C   UNL     1       7.995  22.171  54.805  1.00  0.00     0.156 A 
HETATM    9  C   UNL     1       7.619  24.670  52.268  1.00  0.00     0.034 A 
HETATM   10  C   UNL     1       7.490  25.885  52.959  1.00  0.00     0.026 A 
ENDROOT
BRANCH   1  11
HETATM   11  N   UNL     1       7.352  27.156  55.068  1.00  0.00    -0.289 NA
HETATM   12  H   UNL     1       6.685  27.767  54.599  1.00  0.00     0.128 HD
BRANCH  11  13
HETATM   13  C   UNL     1       7.129  27.100  56.505  1.00  0.00     0.131 C 
BRANCH  13  14
HETATM   14  C   UNL     1       7.534  28.415  57.133  1.00  0.00    -0.043 A 
HETATM   15  C   UNL     1       6.569  29.348  57.534  1.00  0.00     0.035 A 
HETATM   16  C   UNL     1       6.955  30.546  58.145  1.00  0.00     0.068 A 
HETATM   17  C   UNL     1       8.309  30.830  58.374  1.00  0.00     0.090 A 
HETATM   18 CL   UNL     1       5.711  31.643  58.635  1.00  0.00    -0.081 Cl
HETATM   19  C   UNL     1       9.275  29.917  57.938  1.00  0.00     0.039 A 
HETATM   20  C   UNL     1       8.888  28.719  57.327  1.00  0.00     0.011 A 
BRANCH  17  21
HETATM   21  O   UNL     1       8.614  32.018  58.985  1.00  0.00    -0.346 OA
BRANCH  21  22
HETATM   22  C   UNL     1       9.309  31.920  60.227  1.00  0.00     0.202 C 
BRANCH  22  23
HETATM   23  C   UNL     1       8.277  31.813  61.310  1.00  0.00    -0.011 C 
HETATM   24  C   UNL     1       8.462  32.180  62.585  1.00  0.00     0.009 C 
ENDBRANCH  22  23
ENDBRANCH  21  22
ENDBRANCH  17  21
ENDBRANCH  13  14
ENDBRANCH  11  13
ENDBRANCH   1  11
BRANCH   8  25
HETATM   25  C   UNL     1       8.097  21.633  56.169  1.00  0.00     0.270 C 
HETATM   26  N   UNL     1       7.798  20.302  56.268  1.00  0.00    -0.365 N 
HETATM   27  H   UNL     1       7.539  19.800  55.427  1.00  0.00     0.159 HD
HETATM   28  H   UNL     1       7.845  19.842  57.163  1.00  0.00     0.159 HD
HETATM   29  O   UNL     1       8.422  22.288  57.154  1.00  0.00    -0.266 OA
ENDBRANCH   8  25
TORSDOF 7
ENDMDL
MODEL 4
REMARK VINA RESULT:      -8.0      2.449      3.323
REMARK  7 active torsions:
REMARK  status: ('A' for Active; 'I' for Inactive)
REMARK    1  A    between atoms: C_2  and  C_3 
REMARK    2  A    between atoms: C_3  and  O_4 
REMARK    3  A    between atoms: O_4  and  C_5 
REMARK    4  A    between atoms: C_9  and  C_10 
REMARK    5  A    between atoms: C_10  and  N_11 
REMARK    6  A    between atoms: N_11  and  C_12 
REMARK    7  A    between atoms: C_19  and  C_20 
REMARK       I    between atoms: C_20  and  N_21 
ROOT
HETATM    1  C   UNL     1       4.917  28.142  55.774  1.00  0.00     0.009 A 
HETATM    2  C   UNL     1       5.929  28.495  56.686  1.00  0.00     0.039 A 
HETATM    3  C   UNL     1       6.039  29.820  57.160  1.00  0.00     0.030 A 
HETATM    4  C   UNL     1       5.153  30.773  56.680  1.00  0.00     0.063 A 
HETATM    5  N   UNL     1       5.503  31.939  57.299  1.00  0.00    -0.277 N 
HETATM    6  H   UNL     1       5.072  32.850  57.183  1.00  0.00     0.189 HD
HETATM    7  N   UNL     1       6.542  31.830  58.146  1.00  0.00    -0.168 NA
HETATM    8  C   UNL     1       6.884  30.524  58.068  1.00  0.00     0.156 A 
HETATM    9  C   UNL     1       4.158  30.481  55.746  1.00  0.00     0.034 A 
HETATM   10  C   UNL     1       4.072  29.154  55.298  1.00  0.00     0.026 A 
ENDROOT
BRANCH   1  11
HETATM   11  N   UNL     1       4.897  26.829  55.284  1.00  0.00    -0.289 NA
HETATM   12  H   UNL     1       4.008  26.369  55.474  1.00  0.00     0.128 HD
BRANCH  11  13
HETATM   13  C   UNL     1       5.377  26.564  53.936  1.00  0.00     0.131 C 
BRANCH  13  14
HETATM   14  C   UNL     1       6.378  25.431  53.969  1.00  0.00    -0.043 A 
HETATM   15  C   UNL     1       7.135  25.171  55.118  1.00  0.00     0.035 A 
HETATM   16  C   UNL     1       8.033  24.099  55.146  1.00  0.00     0.068 A 
HETATM   17  C   UNL     1       8.185  23.262  54.031  1.00  0.00     0.090 A 
HETATM   18 CL   UNL     1       8.920  23.824  56.606  1.00  0.00    -0.081 Cl
HETATM   19  C   UNL     1       7.458  23.544  52.870  1.00  0.00     0.039 A 
HETATM   20  C   UNL     1       6.560  24.617  52.843  1.00  0.00     0.011 A 
BRANCH  17  21
HETATM   21  O   UNL     1       9.076  22.225  54.133  1.00  0.00    -0.346 OA
BRANCH  21  22
HETATM   22  C   UNL     1       8.562  20.929  53.829  1.00  0.00     0.202 C 
BRANCH  22  23
HETATM   23  C   UNL     1       8.611  20.121  55.092  1.00  0.00    -0.011 C 
HETATM   24  C   UNL     1       7.930  20.404  56.210  1.00  0.00     0.009 C 
ENDBRANCH  22  23
ENDBRANCH  21  22
ENDBRANCH  17  21
ENDBRANCH  13  14
ENDBRANCH  11  13
ENDBRANCH   1  11
BRANCH   8  25
HETATM   25  C   UNL     1       7.998  29.977  58.855  1.00  0.00     0.270 C 
HETATM   26  N   UNL     1       7.999  30.368  60.166  1.00  0.00    -0.365 N 
HETATM   27  H   UNL     1       7.261  30.981  60.489  1.00  0.00     0.159 HD
HETATM   28  H   UNL     1       8.722  30.040  60.786  1.00  0.00     0.159 HD
HETATM   29  O   UNL     1       8.864  29.230  58.412  1.00  0.00    -0.266 OA
ENDBRANCH   8  25
TORSDOF 7
ENDMDL
MODEL 5
REMARK VINA RESULT:      -7.9      4.992      9.832
REMARK  7 active torsions:
REMARK  status: ('A' for Active; 'I' for Inactive)
REMARK    1  A    between atoms: C_2  and  C_3 
REMARK    2  A    between atoms: C_3  and  O_4 
REMARK    3  A    between atoms: O_4  and  C_5 
REMARK    4  A    between atoms: C_9  and  C_10 
REMARK    5  A    between atoms: C_10  and  N_11 
REMARK    6  A    between atoms: N_11  and  C_12 
REMARK    7  A    between atoms: C_19  and  C_20 
REMARK       I    between atoms: C_20  and  N_21 
ROOT
HETATM    1  C   UNL     1       8.383  29.704  58.620  1.00  0.00     0.009 A 
HETATM    2  C   UNL     1       7.183  29.273  58.025  1.00  0.00     0.039 A 
HETATM    3  C   UNL     1       7.141  28.940  56.654  1.00  0.00     0.030 A 
HETATM    4  C   UNL     1       8.296  29.080  55.900  1.00  0.00     0.063 A 
HETATM    5  N   UNL     1       7.953  28.699  54.634  1.00  0.00    -0.277 N 
HETATM    6  H   UNL     1       8.550  28.680  53.815  1.00  0.00     0.189 HD
HETATM    7  N   UNL     1       6.671  28.318  54.496  1.00  0.00    -0.168 NA
HETATM    8  C   UNL     1       6.157  28.464  55.739  1.00  0.00     0.156 A 
HETATM    9  C   UNL     1       9.500  29.542  56.436  1.00  0.00     0.034 A 
HETATM   10  C   UNL     1       9.510  29.861  57.802  1.00  0.00     0.026 A 
ENDROOT
BRANCH   1  11
HETATM   11  N   UNL     1       8.351  30.088  59.968  1.00  0.00    -0.289 NA
HETATM   12  H   UNL     1       8.883  29.447  60.555  1.00  0.00     0.128 HD
BRANCH  11  13
HETATM   13  C   UNL     1       8.588  31.480  60.319  1.00  0.00     0.131 C 
BRANCH  13  14
HETATM   14  C   UNL     1       7.666  31.882  61.448  1.00  0.00    -0.043 A 
HETATM   15  C   UNL     1       6.280  31.949  61.258  1.00  0.00     0.035 A 
HETATM   16  C   UNL     1       5.436  32.289  62.320  1.00  0.00     0.068 A 
HETATM   17  C   UNL     1       5.959  32.559  63.592  1.00  0.00     0.090 A 
HETATM   18 CL   UNL     1       3.733  32.331  62.019  1.00  0.00    -0.081 Cl
HETATM   19  C   UNL     1       7.345  32.532  63.773  1.00  0.00     0.039 A 
HETATM   20  C   UNL     1       8.189  32.192  62.711  1.00  0.00     0.011 A 
BRANCH  17  21
HETATM   21  O   UNL     1       5.072  32.877  64.588  1.00  0.00    -0.346 OA
BRANCH  21  22
HETATM   22  C   UNL     1       5.080  34.238  65.019  1.00  0.00     0.202 C 
BRANCH  22  23
HETATM   23  C   UNL     1       4.226  34.323  66.249  1.00  0.00    -0.011 C 
HETATM   24  C   UNL     1       3.366  35.315  66.517  1.00  0.00     0.009 C 
ENDBRANCH  22  23
ENDBRANCH  21  22
ENDBRANCH  17  21
ENDBRANCH  13  14
ENDBRANCH  11  13
ENDBRANCH   1  11
BRANCH   8  25
HETATM   25  C   UNL     1       4.751  28.147  56.026  1.00  0.00     0.270 C 
HETATM   26  N   UNL     1       4.571  26.971  56.702  1.00  0.00    -0.365 N 
HETATM   27  H   UNL     1       5.387  26.424  56.948  1.00  0.00     0.159 HD
HETATM   28  H   UNL     1       3.641  26.671  56.948  1.00  0.00     0.159 HD
HETATM   29  O   UNL     1       3.799  28.852  55.709  1.00  0.00    -0.266 OA
ENDBRANCH   8  25
TORSDOF 7
ENDMDL
MODEL 6
REMARK VINA RESULT:      -7.8      1.292      1.612
REMARK  7 active torsions:
REMARK  status: ('A' for Active; 'I' for Inactive)
REMARK    1  A    between atoms: C_2  and  C_3 
REMARK    2  A    between atoms: C_3  and  O_4 
REMARK    3  A    between atoms: O_4  and  C_5 
REMARK    4  A    between atoms: C_9  and  C_10 
REMARK    5  A    between atoms: C_10  and  N_11 
REMARK    6  A    between atoms: N_11  and  C_12 
REMARK    7  A    between atoms: C_19  and  C_20 
REMARK       I    between atoms: C_20  and  N_21 
ROOT
HETATM    1  C   UNL     1       7.605  29.112  56.897  1.00  0.00     0.009 A 
HETATM    2  C   UNL     1       7.291  29.887  58.030  1.00  0.00     0.039 A 
HETATM    3  C   UNL     1       8.247  30.762  58.588  1.00  0.00     0.030 A 
HETATM    4  C   UNL     1       9.511  30.815  58.021  1.00  0.00     0.063 A 
HETATM    5  N   UNL     1      10.207  31.724  58.766  1.00  0.00    -0.277 N 
HETATM    6  H   UNL     1      11.170  32.013  58.641  1.00  0.00     0.189 HD
HETATM    7  N   UNL     1       9.504  32.274  59.772  1.00  0.00    -0.168 NA
HETATM    8  C   UNL     1       8.289  31.685  59.674  1.00  0.00     0.156 A 
HETATM    9  C   UNL     1       9.883  30.037  56.923  1.00  0.00     0.034 A 
HETATM   10  C   UNL     1       8.908  29.180  56.388  1.00  0.00     0.026 A 
ENDROOT
BRANCH   1  11
HETATM   11  N   UNL     1       6.641  28.209  56.427  1.00  0.00    -0.289 NA
HETATM   12  H   UNL     1       5.695  28.554  56.581  1.00  0.00     0.128 HD
BRANCH  11  13
HETATM   13  C   UNL     1       6.803  27.615  55.109  1.00  0.00     0.131 C 
BRANCH  13  14
HETATM   14  C   UNL     1       7.074  26.134  55.251  1.00  0.00    -0.043 A 
HETATM   15  C   UNL     1       7.753  25.629  56.367  1.00  0.00     0.035 A 
HETATM   16  C   UNL     1       7.967  24.253  56.502  1.00  0.00     0.068 A 
HETATM   17  C   UNL     1       7.499  23.357  55.530  1.00  0.00     0.090 A 
HETATM   18 CL   UNL     1       8.794  23.697  57.916  1.00  0.00    -0.081 Cl
HETATM   19  C   UNL     1       6.856  23.863  54.397  1.00  0.00     0.039 A 
HETATM   20  C   UNL     1       6.642  25.239  54.262  1.00  0.00     0.011 A 
BRANCH  17  21
HETATM   21  O   UNL     1       7.737  22.022  55.732  1.00  0.00    -0.346 OA
BRANCH  21  22
HETATM   22  C   UNL     1       8.793  21.453  54.959  1.00  0.00     0.202 C 
BRANCH  22  23
HETATM   23  C   UNL     1       8.179  20.447  54.032  1.00  0.00    -0.011 C 
HETATM   24  C   UNL     1       8.255  20.489  52.696  1.00  0.00     0.009 C 
ENDBRANCH  22  23
ENDBRANCH  21  22
ENDBRANCH  17  21
ENDBRANCH  13  14
ENDBRANCH  11  13
ENDBRANCH   1  11
BRANCH   8  25
HETATM   25  C   UNL     1       7.204  32.014  60.608  1.00  0.00     0.270 C 
HETATM   26  N   UNL     1       7.065  31.124  61.638  1.00  0.00    -0.365 N 
HETATM   27  H   UNL     1       7.696  30.334  61.684  1.00  0.00     0.159 HD
HETATM   28  H   UNL     1       6.349  31.269  62.333  1.00  0.00     0.159 HD
HETATM   29  O   UNL     1       6.470  32.992  60.508  1.00  0.00    -0.266 OA
ENDBRANCH   8  25
TORSDOF 7
ENDMDL
MODEL 7
REMARK VINA RESULT:      -7.8      3.361      5.419
REMARK  7 active torsions:
REMARK  status: ('A' for Active; 'I' for Inactive)
REMARK    1  A    between atoms: C_2  and  C_3 
REMARK    2  A    between atoms: C_3  and  O_4 
REMARK    3  A    between atoms: O_4  and  C_5 
REMARK    4  A    between atoms: C_9  and  C_10 
REMARK    5  A    between atoms: C_10  and  N_11 
REMARK    6  A    between atoms: N_11  and  C_12 
REMARK    7  A    between atoms: C_19  and  C_20 
REMARK       I    between atoms: C_20  and  N_21 
ROOT
HETATM    1  C   UNL     1       8.241  32.268  60.353  1.00  0.00     0.009 A 
HETATM    2  C   UNL     1       6.834  32.294  60.298  1.00  0.00     0.039 A 
HETATM    3  C   UNL     1       6.070  32.350  61.483  1.00  0.00     0.030 A 
HETATM    4  C   UNL     1       6.732  32.342  62.702  1.00  0.00     0.063 A 
HETATM    5  N   UNL     1       5.749  32.393  63.650  1.00  0.00    -0.277 N 
HETATM    6  H   UNL     1       5.867  32.397  64.657  1.00  0.00     0.189 HD
HETATM    7  N   UNL     1       4.500  32.438  63.155  1.00  0.00    -0.168 NA
HETATM    8  C   UNL     1       4.685  32.409  61.815  1.00  0.00     0.156 A 
HETATM    9  C   UNL     1       8.122  32.276  62.809  1.00  0.00     0.034 A 
HETATM   10  C   UNL     1       8.854  32.226  61.613  1.00  0.00     0.026 A 
ENDROOT
BRANCH   1  11
HETATM   11  N   UNL     1       8.947  32.142  59.149  1.00  0.00    -0.289 NA
HETATM   12  H   UNL     1       9.485  32.982  58.939  1.00  0.00     0.128 HD
BRANCH  11  13
HETATM   13  C   UNL     1       9.701  30.926  58.888  1.00  0.00     0.131 C 
BRANCH  13  14
HETATM   14  C   UNL     1       8.989  30.104  57.837  1.00  0.00    -0.043 A 
HETATM   15  C   UNL     1       7.694  29.619  58.058  1.00  0.00     0.035 A 
HETATM   16  C   UNL     1       7.033  28.889  57.064  1.00  0.00     0.068 A 
HETATM   17  C   UNL     1       7.650  28.637  55.831  1.00  0.00     0.090 A 
HETATM   18 CL   UNL     1       5.427  28.339  57.396  1.00  0.00    -0.081 Cl
HETATM   19  C   UNL     1       8.958  29.086  55.625  1.00  0.00     0.039 A 
HETATM   20  C   UNL     1       9.618  29.817  56.619  1.00  0.00     0.011 A 
BRANCH  17  21
HETATM   21  O   UNL     1       6.941  27.922  54.900  1.00  0.00    -0.346 OA
BRANCH  21  22
HETATM   22  C   UNL     1       7.662  27.530  53.733  1.00  0.00     0.202 C 
BRANCH  22  23
HETATM   23  C   UNL     1       7.369  26.080  53.491  1.00  0.00    -0.011 C 
HETATM   24  C   UNL     1       7.951  25.326  52.549  1.00  0.00     0.009 C 
ENDBRANCH  22  23
ENDBRANCH  21  22
ENDBRANCH  17  21
ENDBRANCH  13  14
ENDBRANCH  11  13
ENDBRANCH   1  11
BRANCH   8  25
HETATM   25  C   UNL     1       3.547  32.442  60.886  1.00  0.00     0.270 C 
HETATM   26  N   UNL     1       3.123  31.207  60.479  1.00  0.00    -0.365 N 
HETATM   27  H   UNL     1       3.603  30.389  60.833  1.00  0.00     0.159 HD
HETATM   28  H   UNL     1       2.344  31.128  59.845  1.00  0.00     0.159 HD
HETATM   29  O   UNL     1       2.997  33.466  60.493  1.00  0.00    -0.266 OA
ENDBRANCH   8  25
TORSDOF 7
ENDMDL
MODEL 8
REMARK VINA RESULT:      -7.7      3.918      6.956
REMARK  7 active torsions:
REMARK  status: ('A' for Active; 'I' for Inactive)
REMARK    1  A    between atoms: C_2  and  C_3 
REMARK    2  A    between atoms: C_3  and  O_4 
REMARK    3  A    between atoms: O_4  and  C_5 
REMARK    4  A    between atoms: C_9  and  C_10 
REMARK    5  A    between atoms: C_10  and  N_11 
REMARK    6  A    between atoms: N_11  and  C_12 
REMARK    7  A    between atoms: C_19  and  C_20 
REMARK       I    between atoms: C_20  and  N_21 
ROOT
HETATM    1  C   UNL     1       7.043  32.279  62.520  1.00  0.00     0.009 A 
HETATM    2  C   UNL     1       5.699  32.697  62.504  1.00  0.00     0.039 A 
HETATM    3  C   UNL     1       5.172  33.457  63.570  1.00  0.00     0.030 A 
HETATM    4  C   UNL     1       5.994  33.752  64.648  1.00  0.00     0.063 A 
HETATM    5  N   UNL     1       5.219  34.476  65.509  1.00  0.00    -0.277 N 
HETATM    6  H   UNL     1       5.492  34.856  66.408  1.00  0.00     0.189 HD
HETATM    7  N   UNL     1       3.961  34.683  65.085  1.00  0.00    -0.168 NA
HETATM    8  C   UNL     1       3.918  34.056  63.887  1.00  0.00     0.156 A 
HETATM    9  C   UNL     1       7.321  33.325  64.727  1.00  0.00     0.034 A 
HETATM   10  C   UNL     1       7.817  32.575  63.650  1.00  0.00     0.026 A 
ENDROOT
BRANCH   1  11
HETATM   11  N   UNL     1       7.495  31.468  61.470  1.00  0.00    -0.289 NA
HETATM   12  H   UNL     1       6.728  30.963  61.027  1.00  0.00     0.128 HD
BRANCH  11  13
HETATM   13  C   UNL     1       8.428  32.014  60.496  1.00  0.00     0.131 C 
BRANCH  13  14
HETATM   14  C   UNL     1       8.388  31.183  59.234  1.00  0.00    -0.043 A 
HETATM   15  C   UNL     1       9.569  30.735  58.629  1.00  0.00     0.035 A 
HETATM   16  C   UNL     1       9.518  29.938  57.481  1.00  0.00     0.068 A 
HETATM   17  C   UNL     1       8.287  29.568  56.920  1.00  0.00     0.090 A 
HETATM   18 CL   UNL     1      11.015  29.402  56.799  1.00  0.00    -0.081 Cl
HETATM   19  C   UNL     1       7.108  30.048  57.500  1.00  0.00     0.039 A 
HETATM   20  C   UNL     1       7.161  30.844  58.649  1.00  0.00     0.011 A 
BRANCH  17  21
HETATM   21  O   UNL     1       8.312  28.779  55.800  1.00  0.00    -0.346 OA
BRANCH  21  22
HETATM   22  C   UNL     1       7.475  27.623  55.833  1.00  0.00     0.202 C 
BRANCH  22  23
HETATM   23  C   UNL     1       8.114  26.635  56.763  1.00  0.00    -0.011 C 
HETATM   24  C   UNL     1       7.474  25.974  57.736  1.00  0.00     0.009 C 
ENDBRANCH  22  23
ENDBRANCH  21  22
ENDBRANCH  17  21
ENDBRANCH  13  14
ENDBRANCH  11  13
ENDBRANCH   1  11
BRANCH   8  25
HETATM   25  C   UNL     1       2.693  34.044  63.075  1.00  0.00     0.270 C 
HETATM   26  N   UNL     1       1.551  33.812  63.791  1.00  0.00    -0.365 N 
HETATM   27  H   UNL     1       1.626  33.673  64.792  1.00  0.00     0.159 HD
HETATM   28  H   UNL     1       0.659  33.790  63.321  1.00  0.00     0.159 HD
HETATM   29  O   UNL     1       2.659  34.226  61.862  1.00  0.00    -0.266 OA
ENDBRANCH   8  25
TORSDOF 7
ENDMDL
MODEL 9
REMARK VINA RESULT:      -7.5      3.562      9.433
REMARK  7 active torsions:
REMARK  status: ('A' for Active; 'I' for Inactive)
REMARK    1  A    between atoms: C_2  and  C_3 
REMARK    2  A    between atoms: C_3  and  O_4 
REMARK    3  A    between atoms: O_4  and  C_5 
REMARK    4  A    between atoms: C_9  and  C_10 
REMARK    5  A    between atoms: C_10  and  N_11 
REMARK    6  A    between atoms: N_11  and  C_12 
REMARK    7  A    between atoms: C_19  and  C_20 
REMARK       I    between atoms: C_20  and  N_21 
ROOT
HETATM    1  C   UNL     1       7.685  27.093  56.417  1.00  0.00     0.009 A 
HETATM    2  C   UNL     1       7.232  26.612  55.174  1.00  0.00     0.039 A 
HETATM    3  C   UNL     1       7.264  25.231  54.884  1.00  0.00     0.030 A 
HETATM    4  C   UNL     1       7.784  24.364  55.833  1.00  0.00     0.063 A 
HETATM    5  N   UNL     1       7.694  23.120  55.276  1.00  0.00    -0.277 N 
HETATM    6  H   UNL     1       7.987  22.240  55.688  1.00  0.00     0.189 HD
HETATM    7  N   UNL     1       7.155  23.098  54.045  1.00  0.00    -0.168 NA
HETATM    8  C   UNL     1       6.886  24.399  53.789  1.00  0.00     0.156 A 
HETATM    9  C   UNL     1       8.283  24.797  57.062  1.00  0.00     0.034 A 
HETATM   10  C   UNL     1       8.233  26.175  57.323  1.00  0.00     0.026 A 
ENDROOT
BRANCH   1  11
HETATM   11  N   UNL     1       7.696  28.479  56.625  1.00  0.00    -0.289 NA
HETATM   12  H   UNL     1       6.815  28.807  57.019  1.00  0.00     0.128 HD
BRANCH  11  13
HETATM   13  C   UNL     1       8.848  29.096  57.263  1.00  0.00     0.131 C 
BRANCH  13  14
HETATM   14  C   UNL     1       8.381  30.100  58.293  1.00  0.00    -0.043 A 
HETATM   15  C   UNL     1       9.203  30.468  59.365  1.00  0.00     0.035 A 
HETATM   16  C   UNL     1       8.772  31.422  60.292  1.00  0.00     0.068 A 
HETATM   17  C   UNL     1       7.517  32.034  60.160  1.00  0.00     0.090 A 
HETATM   18 CL   UNL     1       9.848  31.845  61.579  1.00  0.00    -0.081 Cl
HETATM   19  C   UNL     1       6.679  31.638  59.112  1.00  0.00     0.039 A 
HETATM   20  C   UNL     1       7.111  30.683  58.186  1.00  0.00     0.011 A 
BRANCH  17  21
HETATM   21  O   UNL     1       7.163  32.967  61.100  1.00  0.00    -0.346 OA
BRANCH  21  22
HETATM   22  C   UNL     1       6.607  32.454  62.309  1.00  0.00     0.202 C 
BRANCH  22  23
HETATM   23  C   UNL     1       6.818  33.489  63.374  1.00  0.00    -0.011 C 
HETATM   24  C   UNL     1       7.517  33.298  64.500  1.00  0.00     0.009 C 
ENDBRANCH  22  23
ENDBRANCH  21  22
ENDBRANCH  17  21
ENDBRANCH  13  14
ENDBRANCH  11  13
ENDBRANCH   1  11
BRANCH   8  25
HETATM   25  C   UNL     1       6.278  24.818  52.519  1.00  0.00     0.270 C 
HETATM   26  N   UNL     1       7.183  25.215  51.571  1.00  0.00    -0.365 N 
HETATM   27  H   UNL     1       8.168  25.191  51.803  1.00  0.00     0.159 HD
HETATM   28  H   UNL     1       6.860  25.516  50.665  1.00  0.00     0.159 HD
HETATM   29  O   UNL     1       5.073  24.821  52.290  1.00  0.00    -0.266 OA
ENDBRANCH   8  25
TORSDOF 7
ENDMDL
MODEL 10
REMARK VINA RESULT:      -7.5      9.279     13.658
REMARK  7 active torsions:
REMARK  status: ('A' for Active; 'I' for Inactive)
REMARK    1  A    between atoms: C_2  and  C_3 
REMARK    2  A    between atoms: C_3  and  O_4 
REMARK    3  A    between atoms: O_4  and  C_5 
REMARK    4  A    between atoms: C_9  and  C_10 
REMARK    5  A    between atoms: C_10  and  N_11 
REMARK    6  A    between atoms: N_11  and  C_12 
REMARK    7  A    between atoms: C_19  and  C_20 
REMARK       I    between atoms: C_20  and  N_21 
ROOT
HETATM    1  C   UNL     1       6.087  33.687  69.815  1.00  0.00     0.009 A 
HETATM    2  C   UNL     1       6.506  34.968  70.222  1.00  0.00     0.039 A 
HETATM    3  C   UNL     1       7.392  35.121  71.309  1.00  0.00     0.030 A 
HETATM    4  C   UNL     1       7.812  33.988  71.990  1.00  0.00     0.063 A 
HETATM    5  N   UNL     1       8.639  34.442  72.978  1.00  0.00    -0.277 N 
HETATM    6  H   UNL     1       9.125  33.889  73.675  1.00  0.00     0.189 HD
HETATM    7  N   UNL     1       8.799  35.777  73.000  1.00  0.00    -0.168 NA
HETATM    8  C   UNL     1       8.031  36.209  71.974  1.00  0.00     0.156 A 
HETATM    9  C   UNL     1       7.393  32.701  71.649  1.00  0.00     0.034 A 
HETATM   10  C   UNL     1       6.515  32.582  70.561  1.00  0.00     0.026 A 
ENDROOT
BRANCH   1  11
HETATM   11  N   UNL     1       5.152  33.598  68.774  1.00  0.00    -0.289 NA
HETATM   12  H   UNL     1       4.236  33.310  69.115  1.00  0.00     0.128 HD
BRANCH  11  13
HETATM   13  C   UNL     1       5.063  34.676  67.801  1.00  0.00     0.131 C 
BRANCH  13  14
HETATM   14  C   UNL     1       5.517  34.175  66.448  1.00  0.00    -0.043 A 
HETATM   15  C   UNL     1       4.594  33.930  65.424  1.00  0.00     0.035 A 
HETATM   16  C   UNL     1       5.031  33.500  64.166  1.00  0.00     0.068 A 
HETATM   17  C   UNL     1       6.396  33.316  63.906  1.00  0.00     0.090 A 
HETATM   18 CL   UNL     1       3.838  33.236  62.941  1.00  0.00    -0.081 Cl
HETATM   19  C   UNL     1       7.315  33.523  64.940  1.00  0.00     0.039 A 
HETATM   20  C   UNL     1       6.878  33.953  66.197  1.00  0.00     0.011 A 
BRANCH  17  21
HETATM   21  O   UNL     1       6.753  32.902  62.649  1.00  0.00    -0.346 OA
BRANCH  21  22
HETATM   22  C   UNL     1       7.455  31.662  62.577  1.00  0.00     0.202 C 
BRANCH  22  23
HETATM   23  C   UNL     1       8.851  31.964  62.121  1.00  0.00    -0.011 C 
HETATM   24  C   UNL     1       9.255  31.975  60.844  1.00  0.00     0.009 C 
ENDBRANCH  22  23
ENDBRANCH  21  22
ENDBRANCH  17  21
ENDBRANCH  13  14
ENDBRANCH  11  13
ENDBRANCH   1  11
BRANCH   8  25
HETATM   25  C   UNL     1       7.925  37.638  71.648  1.00  0.00     0.270 C 
HETATM   26  N   UNL     1       8.636  38.013  70.541  1.00  0.00    -0.365 N 
HETATM   27  H   UNL     1       9.163  37.306  70.042  1.00  0.00     0.159 HD
HETATM   28  H   UNL     1       8.620  38.973  70.236  1.00  0.00     0.159 HD
HETATM   29  O   UNL     1       7.264  38.452  72.286  1.00  0.00    -0.266 OA
ENDBRANCH   8  25
TORSDOF 7
ENDMDL
