MODEL 1
REMARK VINA RESULT:      -9.9      0.000      0.000
REMARK  3 active torsions:
REMARK  status: ('A' for Active; 'I' for Inactive)
REMARK    1  A    between atoms: C_3  and  N_4 
REMARK    2  A    between atoms: C_10  and  O_11 
REMARK    3  A    between atoms: C_14  and  C_15 
ROOT
HETATM    1  N   UNL     1       7.860  24.182  55.614  1.00  0.00    -0.212 N 
HETATM    2  N   UNL     1       8.774  24.403  56.596  1.00  0.00    -0.177 NA
HETATM    3  C   UNL     1       8.611  25.679  56.922  1.00  0.00     0.152 C 
HETATM    4  C   UNL     1       7.563  26.317  56.216  1.00  0.00     0.027 C 
HETATM    5  C   UNL     1       7.018  25.295  55.440  1.00  0.00     0.163 C 
HETATM    6  N   UNL     1       5.871  25.203  54.716  1.00  0.00    -0.208 NA
HETATM    7  C   UNL     1       5.544  26.193  53.960  1.00  0.00     0.149 C 
HETATM    8  C   UNL     1       6.242  27.506  53.776  1.00  0.00     0.161 C 
HETATM    9  S   UNL     1       5.967  28.513  55.256  1.00  0.00    -0.146 SA
HETATM   10  C   UNL     1       7.133  27.743  56.454  1.00  0.00     0.124 C 
ENDROOT
BRANCH  10  11
HETATM   11  C   UNL     1       8.318  28.681  56.608  1.00  0.00     0.028 A 
HETATM   12  C   UNL     1       8.535  29.259  57.975  1.00  0.00     0.253 A 
HETATM   13  O   UNL     1       7.826  28.966  58.932  1.00  0.00    -0.268 OA
HETATM   14  N   UNL     1       9.596  30.122  58.111  1.00  0.00    -0.333 N 
HETATM   15  C   UNL     1      10.456  30.454  57.099  1.00  0.00     0.091 A 
HETATM   16  H   UNL     1       9.727  30.512  59.038  1.00  0.00     0.168 HD
HETATM   17  C   UNL     1      10.290  29.925  55.883  1.00  0.00     0.018 A 
HETATM   18  C   UNL     1       9.196  29.014  55.638  1.00  0.00     0.015 A 
ENDBRANCH  10  11
BRANCH   1  19
HETATM   19  C   UNL     1       7.854  22.922  54.953  1.00  0.00     0.099 A 
HETATM   20  C   UNL     1       7.734  21.752  55.724  1.00  0.00     0.035 A 
HETATM   21  C   UNL     1       7.705  20.496  55.110  1.00  0.00     0.002 A 
HETATM   22  C   UNL     1       7.817  20.394  53.726  1.00  0.00     0.003 A 
HETATM   23  C   UNL     1       7.974  21.546  52.958  1.00  0.00     0.045 A 
HETATM   24  C   UNL     1       8.000  22.801  53.570  1.00  0.00     0.145 A 
HETATM   25  F   UNL     1       8.283  23.850  52.786  1.00  0.00    -0.204 F 
ENDBRANCH   1  19
BRANCH   7  26
HETATM   26  O   UNL     1       4.421  26.056  53.236  1.00  0.00    -0.347 OA
HETATM   27  H   UNL     1       4.211  25.107  53.214  1.00  0.00     0.219 HD
ENDBRANCH   7  26
TORSDOF 3
ENDMDL
MODEL 2
REMARK VINA RESULT:      -8.8      1.434      1.921
REMARK  3 active torsions:
REMARK  status: ('A' for Active; 'I' for Inactive)
REMARK    1  A    between atoms: C_3  and  N_4 
REMARK    2  A    between atoms: C_10  and  O_11 
REMARK    3  A    between atoms: C_14  and  C_15 
ROOT
HETATM    1  N   UNL     1       7.803  24.566  55.853  1.00  0.00    -0.212 N 
HETATM    2  N   UNL     1       8.706  24.711  56.859  1.00  0.00    -0.177 NA
HETATM    3  C   UNL     1       8.490  25.932  57.328  1.00  0.00     0.152 C 
HETATM    4  C   UNL     1       7.417  26.604  56.693  1.00  0.00     0.027 C 
HETATM    5  C   UNL     1       6.916  25.657  55.803  1.00  0.00     0.163 C 
HETATM    6  N   UNL     1       5.775  25.602  55.066  1.00  0.00    -0.208 NA
HETATM    7  C   UNL     1       5.409  26.658  54.427  1.00  0.00     0.149 C 
HETATM    8  C   UNL     1       6.052  28.011  54.398  1.00  0.00     0.161 C 
HETATM    9  S   UNL     1       5.735  28.830  55.981  1.00  0.00    -0.146 SA
HETATM   10  C   UNL     1       6.930  27.975  57.090  1.00  0.00     0.124 C 
ENDROOT
BRANCH  10  11
HETATM   11  C   UNL     1       8.074  28.937  57.358  1.00  0.00     0.028 A 
HETATM   12  C   UNL     1       8.995  29.211  56.206  1.00  0.00     0.253 A 
HETATM   13  O   UNL     1       8.821  28.722  55.095  1.00  0.00    -0.268 OA
HETATM   14  N   UNL     1      10.042  30.068  56.452  1.00  0.00    -0.333 N 
HETATM   15  C   UNL     1      10.267  30.686  57.652  1.00  0.00     0.091 A 
HETATM   16  H   UNL     1      10.662  30.238  55.668  1.00  0.00     0.168 HD
HETATM   17  C   UNL     1       9.439  30.472  58.678  1.00  0.00     0.018 A 
HETATM   18  C   UNL     1       8.314  29.580  58.520  1.00  0.00     0.015 A 
ENDBRANCH  10  11
BRANCH   1  19
HETATM   19  C   UNL     1       7.849  23.391  55.052  1.00  0.00     0.099 A 
HETATM   20  C   UNL     1       7.815  23.520  53.652  1.00  0.00     0.035 A 
HETATM   21  C   UNL     1       7.877  22.389  52.833  1.00  0.00     0.002 A 
HETATM   22  C   UNL     1       7.952  21.120  53.400  1.00  0.00     0.003 A 
HETATM   23  C   UNL     1       7.948  20.981  54.786  1.00  0.00     0.045 A 
HETATM   24  C   UNL     1       7.889  22.110  55.606  1.00  0.00     0.145 A 
HETATM   25  F   UNL     1       7.758  21.895  56.922  1.00  0.00    -0.204 F 
ENDBRANCH   1  19
BRANCH   7  26
HETATM   26  O   UNL     1       4.293  26.559  53.685  1.00  0.00    -0.347 OA
HETATM   27  H   UNL     1       3.637  26.081  54.220  1.00  0.00     0.219 HD
ENDBRANCH   7  26
TORSDOF 3
ENDMDL
MODEL 3
REMARK VINA RESULT:      -8.2      3.134      7.080
REMARK  3 active torsions:
REMARK  status: ('A' for Active; 'I' for Inactive)
REMARK    1  A    between atoms: C_3  and  N_4 
REMARK    2  A    between atoms: C_10  and  O_11 
REMARK    3  A    between atoms: C_14  and  C_15 
ROOT
HETATM    1  N   UNL     1       7.378  29.230  56.773  1.00  0.00    -0.212 N 
HETATM    2  N   UNL     1       6.659  29.839  55.793  1.00  0.00    -0.177 NA
HETATM    3  C   UNL     1       6.051  28.846  55.159  1.00  0.00     0.152 C 
HETATM    4  C   UNL     1       6.301  27.572  55.725  1.00  0.00     0.027 C 
HETATM    5  C   UNL     1       7.088  27.855  56.840  1.00  0.00     0.163 C 
HETATM    6  N   UNL     1       7.474  27.106  57.906  1.00  0.00    -0.208 NA
HETATM    7  C   UNL     1       7.897  25.908  57.690  1.00  0.00     0.149 C 
HETATM    8  C   UNL     1       7.997  25.165  56.393  1.00  0.00     0.161 C 
HETATM    9  S   UNL     1       6.328  24.696  55.871  1.00  0.00    -0.146 SA
HETATM   10  C   UNL     1       5.674  26.293  55.230  1.00  0.00     0.124 C 
ENDROOT
BRANCH  10  11
HETATM   11  C   UNL     1       5.663  26.207  53.714  1.00  0.00     0.028 A 
HETATM   12  C   UNL     1       4.504  26.857  53.019  1.00  0.00     0.253 A 
HETATM   13  O   UNL     1       3.628  27.461  53.628  1.00  0.00    -0.268 OA
HETATM   14  N   UNL     1       4.484  26.765  51.647  1.00  0.00    -0.333 N 
HETATM   15  C   UNL     1       5.453  26.149  50.902  1.00  0.00     0.091 A 
HETATM   16  H   UNL     1       3.692  27.201  51.191  1.00  0.00     0.168 HD
HETATM   17  C   UNL     1       6.506  25.590  51.506  1.00  0.00     0.018 A 
HETATM   18  C   UNL     1       6.611  25.627  52.946  1.00  0.00     0.015 A 
ENDBRANCH  10  11
BRANCH   1  19
HETATM   19  C   UNL     1       8.251  30.017  57.575  1.00  0.00     0.099 A 
HETATM   20  C   UNL     1       7.728  30.680  58.699  1.00  0.00     0.035 A 
HETATM   21  C   UNL     1       8.558  31.448  59.521  1.00  0.00     0.002 A 
HETATM   22  C   UNL     1       9.911  31.580  59.219  1.00  0.00     0.003 A 
HETATM   23  C   UNL     1      10.429  30.957  58.085  1.00  0.00     0.045 A 
HETATM   24  C   UNL     1       9.602  30.187  57.265  1.00  0.00     0.145 A 
HETATM   25  F   UNL     1      10.139  29.727  56.127  1.00  0.00    -0.204 F 
ENDBRANCH   1  19
BRANCH   7  26
HETATM   26  O   UNL     1       8.300  25.207  58.762  1.00  0.00    -0.347 OA
HETATM   27  H   UNL     1       8.635  25.848  59.413  1.00  0.00     0.219 HD
ENDBRANCH   7  26
TORSDOF 3
ENDMDL
MODEL 4
REMARK VINA RESULT:      -8.1      5.868      8.442
REMARK  3 active torsions:
REMARK  status: ('A' for Active; 'I' for Inactive)
REMARK    1  A    between atoms: C_3  and  N_4 
REMARK    2  A    between atoms: C_10  and  O_11 
REMARK    3  A    between atoms: C_14  and  C_15 
ROOT
HETATM    1  N   UNL     1       7.812  31.079  59.679  1.00  0.00    -0.212 N 
HETATM    2  N   UNL     1       8.157  31.061  60.994  1.00  0.00    -0.177 NA
HETATM    3  C   UNL     1       7.170  31.702  61.606  1.00  0.00     0.152 C 
HETATM    4  C   UNL     1       6.129  32.109  60.735  1.00  0.00     0.027 C 
HETATM    5  C   UNL     1       6.520  31.602  59.496  1.00  0.00     0.163 C 
HETATM    6  N   UNL     1       5.866  31.464  58.313  1.00  0.00    -0.208 NA
HETATM    7  C   UNL     1       5.159  32.453  57.886  1.00  0.00     0.149 C 
HETATM    8  C   UNL     1       4.903  33.777  58.538  1.00  0.00     0.161 C 
HETATM    9  S   UNL     1       3.758  33.524  59.918  1.00  0.00    -0.146 SA
HETATM   10  C   UNL     1       4.866  32.793  61.194  1.00  0.00     0.124 C 
ENDROOT
BRANCH  10  11
HETATM   11  C   UNL     1       5.139  33.867  62.232  1.00  0.00     0.028 A 
HETATM   12  C   UNL     1       4.975  33.462  63.667  1.00  0.00     0.253 A 
HETATM   13  O   UNL     1       4.675  32.319  63.996  1.00  0.00    -0.268 OA
HETATM   14  N   UNL     1       5.205  34.438  64.608  1.00  0.00    -0.333 N 
HETATM   15  C   UNL     1       5.589  35.718  64.312  1.00  0.00     0.091 A 
HETATM   16  H   UNL     1       5.083  34.153  65.572  1.00  0.00     0.168 HD
HETATM   17  C   UNL     1       5.766  36.085  63.039  1.00  0.00     0.018 A 
HETATM   18  C   UNL     1       5.539  35.131  61.978  1.00  0.00     0.015 A 
ENDBRANCH  10  11
BRANCH   1  19
HETATM   19  C   UNL     1       8.733  30.567  58.721  1.00  0.00     0.099 A 
HETATM   20  C   UNL     1       9.871  31.328  58.400  1.00  0.00     0.035 A 
HETATM   21  C   UNL     1      10.807  30.851  57.478  1.00  0.00     0.002 A 
HETATM   22  C   UNL     1      10.608  29.622  56.853  1.00  0.00     0.003 A 
HETATM   23  C   UNL     1       9.463  28.880  57.139  1.00  0.00     0.045 A 
HETATM   24  C   UNL     1       8.529  29.355  58.061  1.00  0.00     0.145 A 
HETATM   25  F   UNL     1       7.395  28.652  58.188  1.00  0.00    -0.204 F 
ENDBRANCH   1  19
BRANCH   7  26
HETATM   26  O   UNL     1       4.551  32.294  56.699  1.00  0.00    -0.347 OA
HETATM   27  H   UNL     1       3.609  32.139  56.880  1.00  0.00     0.219 HD
ENDBRANCH   7  26
TORSDOF 3
ENDMDL
MODEL 5
REMARK VINA RESULT:      -8.1      2.076      2.374
REMARK  3 active torsions:
REMARK  status: ('A' for Active; 'I' for Inactive)
REMARK    1  A    between atoms: C_3  and  N_4 
REMARK    2  A    between atoms: C_10  and  O_11 
REMARK    3  A    between atoms: C_14  and  C_15 
ROOT
HETATM    1  N   UNL     1       6.713  25.076  55.579  1.00  0.00    -0.212 N 
HETATM    2  N   UNL     1       7.023  25.232  56.893  1.00  0.00    -0.177 NA
HETATM    3  C   UNL     1       6.457  26.382  57.235  1.00  0.00     0.152 C 
HETATM    4  C   UNL     1       5.719  26.986  56.188  1.00  0.00     0.027 C 
HETATM    5  C   UNL     1       5.813  26.066  55.145  1.00  0.00     0.163 C 
HETATM    6  N   UNL     1       5.158  25.950  53.960  1.00  0.00    -0.208 NA
HETATM    7  C   UNL     1       4.991  27.010  53.248  1.00  0.00     0.149 C 
HETATM    8  C   UNL     1       5.391  28.422  53.553  1.00  0.00     0.161 C 
HETATM    9  S   UNL     1       4.276  29.071  54.823  1.00  0.00    -0.146 SA
HETATM   10  C   UNL     1       4.927  28.260  56.342  1.00  0.00     0.124 C 
ENDROOT
BRANCH  10  11
HETATM   11  C   UNL     1       5.682  29.313  57.135  1.00  0.00     0.028 A 
HETATM   12  C   UNL     1       4.847  30.293  57.903  1.00  0.00     0.253 A 
HETATM   13  O   UNL     1       3.622  30.233  57.929  1.00  0.00    -0.268 OA
HETATM   14  N   UNL     1       5.528  31.257  58.607  1.00  0.00    -0.333 N 
HETATM   15  C   UNL     1       6.893  31.352  58.661  1.00  0.00     0.091 A 
HETATM   16  H   UNL     1       4.952  31.918  59.115  1.00  0.00     0.168 HD
HETATM   17  C   UNL     1       7.650  30.469  58.003  1.00  0.00     0.018 A 
HETATM   18  C   UNL     1       7.024  29.423  57.228  1.00  0.00     0.015 A 
ENDBRANCH  10  11
BRANCH   1  19
HETATM   19  C   UNL     1       7.277  23.980  54.866  1.00  0.00     0.099 A 
HETATM   20  C   UNL     1       7.269  22.706  55.461  1.00  0.00     0.035 A 
HETATM   21  C   UNL     1       7.796  21.603  54.785  1.00  0.00     0.002 A 
HETATM   22  C   UNL     1       8.356  21.762  53.519  1.00  0.00     0.003 A 
HETATM   23  C   UNL     1       8.402  23.028  52.939  1.00  0.00     0.045 A 
HETATM   24  C   UNL     1       7.873  24.131  53.613  1.00  0.00     0.145 A 
HETATM   25  F   UNL     1       8.068  25.332  53.052  1.00  0.00    -0.204 F 
ENDBRANCH   1  19
BRANCH   7  26
HETATM   26  O   UNL     1       4.366  26.854  52.069  1.00  0.00    -0.347 OA
HETATM   27  H   UNL     1       3.596  27.448  52.074  1.00  0.00     0.219 HD
ENDBRANCH   7  26
TORSDOF 3
ENDMDL
MODEL 6
REMARK VINA RESULT:      -7.9      3.085      5.167
REMARK  3 active torsions:
REMARK  status: ('A' for Active; 'I' for Inactive)
REMARK    1  A    between atoms: C_3  and  N_4 
REMARK    2  A    between atoms: C_10  and  O_11 
REMARK    3  A    between atoms: C_14  and  C_15 
ROOT
HETATM    1  N   UNL     1       7.629  24.014  53.788  1.00  0.00    -0.212 N 
HETATM    2  N   UNL     1       7.994  23.937  52.481  1.00  0.00    -0.177 NA
HETATM    3  C   UNL     1       7.539  25.060  51.940  1.00  0.00     0.152 C 
HETATM    4  C   UNL     1       6.917  25.927  52.870  1.00  0.00     0.027 C 
HETATM    5  C   UNL     1       7.076  25.272  54.090  1.00  0.00     0.163 C 
HETATM    6  N   UNL     1       6.896  25.670  55.377  1.00  0.00    -0.208 NA
HETATM    7  C   UNL     1       5.830  26.332  55.669  1.00  0.00     0.149 C 
HETATM    8  C   UNL     1       4.726  26.785  54.763  1.00  0.00     0.161 C 
HETATM    9  S   UNL     1       5.337  28.164  53.761  1.00  0.00    -0.146 SA
HETATM   10  C   UNL     1       6.379  27.292  52.519  1.00  0.00     0.124 C 
ENDROOT
BRANCH  10  11
HETATM   11  C   UNL     1       5.619  27.290  51.205  1.00  0.00     0.028 A 
HETATM   12  C   UNL     1       5.529  28.603  50.486  1.00  0.00     0.253 A 
HETATM   13  O   UNL     1       6.069  29.620  50.907  1.00  0.00    -0.268 OA
HETATM   14  N   UNL     1       4.826  28.606  49.304  1.00  0.00    -0.333 N 
HETATM   15  C   UNL     1       4.241  27.498  48.753  1.00  0.00     0.091 A 
HETATM   16  H   UNL     1       4.766  29.501  48.833  1.00  0.00     0.168 HD
HETATM   17  C   UNL     1       4.336  26.316  49.369  1.00  0.00     0.018 A 
HETATM   18  C   UNL     1       5.048  26.214  50.622  1.00  0.00     0.015 A 
ENDBRANCH  10  11
BRANCH   1  19
HETATM   19  C   UNL     1       7.867  22.896  54.635  1.00  0.00     0.099 A 
HETATM   20  C   UNL     1       8.278  23.123  55.960  1.00  0.00     0.035 A 
HETATM   21  C   UNL     1       8.504  22.050  56.828  1.00  0.00     0.002 A 
HETATM   22  C   UNL     1       8.344  20.742  56.377  1.00  0.00     0.003 A 
HETATM   23  C   UNL     1       7.974  20.509  55.054  1.00  0.00     0.045 A 
HETATM   24  C   UNL     1       7.745  21.580  54.187  1.00  0.00     0.145 A 
HETATM   25  F   UNL     1       7.520  21.278  52.901  1.00  0.00    -0.204 F 
ENDBRANCH   1  19
BRANCH   7  26
HETATM   26  O   UNL     1       5.669  26.683  56.955  1.00  0.00    -0.347 OA
HETATM   27  H   UNL     1       5.525  25.863  57.459  1.00  0.00     0.219 HD
ENDBRANCH   7  26
TORSDOF 3
ENDMDL
MODEL 7
REMARK VINA RESULT:      -7.8      3.688      5.772
REMARK  3 active torsions:
REMARK  status: ('A' for Active; 'I' for Inactive)
REMARK    1  A    between atoms: C_3  and  N_4 
REMARK    2  A    between atoms: C_10  and  O_11 
REMARK    3  A    between atoms: C_14  and  C_15 
ROOT
HETATM    1  N   UNL     1       4.966  26.922  51.600  1.00  0.00    -0.212 N 
HETATM    2  N   UNL     1       5.567  25.766  51.990  1.00  0.00    -0.177 NA
HETATM    3  C   UNL     1       5.561  25.818  53.316  1.00  0.00     0.152 C 
HETATM    4  C   UNL     1       4.915  26.965  53.837  1.00  0.00     0.027 C 
HETATM    5  C   UNL     1       4.444  27.623  52.703  1.00  0.00     0.163 C 
HETATM    6  N   UNL     1       3.572  28.652  52.533  1.00  0.00    -0.208 NA
HETATM    7  C   UNL     1       3.683  29.680  53.301  1.00  0.00     0.149 C 
HETATM    8  C   UNL     1       4.641  29.912  54.429  1.00  0.00     0.161 C 
HETATM    9  S   UNL     1       4.133  28.888  55.833  1.00  0.00    -0.146 SA
HETATM   10  C   UNL     1       4.715  27.222  55.310  1.00  0.00     0.124 C 
ENDROOT
BRANCH  10  11
HETATM   11  C   UNL     1       5.955  26.894  56.124  1.00  0.00     0.028 A 
HETATM   12  C   UNL     1       5.866  25.692  57.016  1.00  0.00     0.253 A 
HETATM   13  O   UNL     1       4.867  24.982  57.064  1.00  0.00    -0.268 OA
HETATM   14  N   UNL     1       6.982  25.404  57.766  1.00  0.00    -0.333 N 
HETATM   15  C   UNL     1       8.145  26.124  57.724  1.00  0.00     0.091 A 
HETATM   16  H   UNL     1       6.906  24.594  58.371  1.00  0.00     0.168 HD
HETATM   17  C   UNL     1       8.248  27.181  56.914  1.00  0.00     0.018 A 
HETATM   18  C   UNL     1       7.125  27.568  56.092  1.00  0.00     0.015 A 
ENDBRANCH  10  11
BRANCH   1  19
HETATM   19  C   UNL     1       4.918  27.237  50.213  1.00  0.00     0.099 A 
HETATM   20  C   UNL     1       4.437  26.269  49.314  1.00  0.00     0.035 A 
HETATM   21  C   UNL     1       4.356  26.548  47.946  1.00  0.00     0.002 A 
HETATM   22  C   UNL     1       4.774  27.784  47.460  1.00  0.00     0.003 A 
HETATM   23  C   UNL     1       5.288  28.734  48.341  1.00  0.00     0.045 A 
HETATM   24  C   UNL     1       5.365  28.458  49.708  1.00  0.00     0.145 A 
HETATM   25  F   UNL     1       5.987  29.366  50.473  1.00  0.00    -0.204 F 
ENDBRANCH   1  19
BRANCH   7  26
HETATM   26  O   UNL     1       2.825  30.691  53.086  1.00  0.00    -0.347 OA
HETATM   27  H   UNL     1       2.035  30.514  53.624  1.00  0.00     0.219 HD
ENDBRANCH   7  26
TORSDOF 3
ENDMDL
MODEL 8
REMARK VINA RESULT:      -7.8      4.332      8.450
REMARK  3 active torsions:
REMARK  status: ('A' for Active; 'I' for Inactive)
REMARK    1  A    between atoms: C_3  and  N_4 
REMARK    2  A    between atoms: C_10  and  O_11 
REMARK    3  A    between atoms: C_14  and  C_15 
ROOT
HETATM    1  N   UNL     1       7.640  30.881  59.698  1.00  0.00    -0.212 N 
HETATM    2  N   UNL     1       8.463  29.822  59.475  1.00  0.00    -0.177 NA
HETATM    3  C   UNL     1       8.110  29.372  58.278  1.00  0.00     0.152 C 
HETATM    4  C   UNL     1       7.096  30.141  57.657  1.00  0.00     0.027 C 
HETATM    5  C   UNL     1       6.875  31.182  58.557  1.00  0.00     0.163 C 
HETATM    6  N   UNL     1       6.194  32.354  58.457  1.00  0.00    -0.208 NA
HETATM    7  C   UNL     1       5.026  32.338  57.914  1.00  0.00     0.149 C 
HETATM    8  C   UNL     1       4.284  31.184  57.312  1.00  0.00     0.161 C 
HETATM    9  S   UNL     1       5.055  30.771  55.727  1.00  0.00    -0.146 SA
HETATM   10  C   UNL     1       6.570  29.878  56.269  1.00  0.00     0.124 C 
ENDROOT
BRANCH  10  11
HETATM   11  C   UNL     1       6.346  28.398  56.010  1.00  0.00     0.028 A 
HETATM   12  C   UNL     1       7.227  27.763  54.976  1.00  0.00     0.253 A 
HETATM   13  O   UNL     1       8.109  28.385  54.393  1.00  0.00    -0.268 OA
HETATM   14  N   UNL     1       7.014  26.427  54.729  1.00  0.00    -0.333 N 
HETATM   15  C   UNL     1       6.082  25.663  55.377  1.00  0.00     0.091 A 
HETATM   16  H   UNL     1       7.610  26.013  54.022  1.00  0.00     0.168 HD
HETATM   17  C   UNL     1       5.309  26.209  56.320  1.00  0.00     0.018 A 
HETATM   18  C   UNL     1       5.453  27.609  56.644  1.00  0.00     0.015 A 
ENDBRANCH  10  11
BRANCH   1  19
HETATM   19  C   UNL     1       7.682  31.527  60.966  1.00  0.00     0.099 A 
HETATM   20  C   UNL     1       6.486  31.674  61.692  1.00  0.00     0.035 A 
HETATM   21  C   UNL     1       6.490  32.286  62.949  1.00  0.00     0.002 A 
HETATM   22  C   UNL     1       7.679  32.775  63.483  1.00  0.00     0.003 A 
HETATM   23  C   UNL     1       8.861  32.667  62.753  1.00  0.00     0.045 A 
HETATM   24  C   UNL     1       8.859  32.053  61.499  1.00  0.00     0.145 A 
HETATM   25  F   UNL     1      10.002  32.101  60.802  1.00  0.00    -0.204 F 
ENDBRANCH   1  19
BRANCH   7  26
HETATM   26  O   UNL     1       4.369  33.508  57.858  1.00  0.00    -0.347 OA
HETATM   27  H   UNL     1       3.537  33.346  57.382  1.00  0.00     0.219 HD
ENDBRANCH   7  26
TORSDOF 3
ENDMDL
MODEL 9
REMARK VINA RESULT:      -7.6      4.523      7.550
REMARK  3 active torsions:
REMARK  status: ('A' for Active; 'I' for Inactive)
REMARK    1  A    between atoms: C_3  and  N_4 
REMARK    2  A    between atoms: C_10  and  O_11 
REMARK    3  A    between atoms: C_14  and  C_15 
ROOT
HETATM    1  N   UNL     1       5.708  26.259  52.486  1.00  0.00    -0.212 N 
HETATM    2  N   UNL     1       5.687  25.397  51.435  1.00  0.00    -0.177 NA
HETATM    3  C   UNL     1       5.195  26.108  50.429  1.00  0.00     0.152 C 
HETATM    4  C   UNL     1       4.933  27.459  50.763  1.00  0.00     0.027 C 
HETATM    5  C   UNL     1       5.371  27.564  52.082  1.00  0.00     0.163 C 
HETATM    6  N   UNL     1       5.591  28.631  52.895  1.00  0.00    -0.208 NA
HETATM    7  C   UNL     1       4.709  29.568  52.926  1.00  0.00     0.149 C 
HETATM    8  C   UNL     1       3.439  29.691  52.141  1.00  0.00     0.161 C 
HETATM    9  S   UNL     1       3.860  30.111  50.431  1.00  0.00    -0.146 SA
HETATM   10  C   UNL     1       4.437  28.489  49.779  1.00  0.00     0.124 C 
ENDROOT
BRANCH  10  11
HETATM   11  C   UNL     1       3.342  27.942  48.879  1.00  0.00     0.028 A 
HETATM   12  C   UNL     1       3.787  27.355  47.573  1.00  0.00     0.253 A 
HETATM   13  O   UNL     1       4.969  27.278  47.255  1.00  0.00    -0.268 OA
HETATM   14  N   UNL     1       2.795  26.875  46.749  1.00  0.00    -0.333 N 
HETATM   15  C   UNL     1       1.463  26.884  47.062  1.00  0.00     0.091 A 
HETATM   16  H   UNL     1       3.109  26.488  45.867  1.00  0.00     0.168 HD
HETATM   17  C   UNL     1       1.055  27.380  48.234  1.00  0.00     0.018 A 
HETATM   18  C   UNL     1       2.023  27.915  49.163  1.00  0.00     0.015 A 
ENDBRANCH  10  11
BRANCH   1  19
HETATM   19  C   UNL     1       6.078  25.769  53.769  1.00  0.00     0.099 A 
HETATM   20  C   UNL     1       5.176  25.913  54.838  1.00  0.00     0.035 A 
HETATM   21  C   UNL     1       5.496  25.427  56.108  1.00  0.00     0.002 A 
HETATM   22  C   UNL     1       6.725  24.813  56.332  1.00  0.00     0.003 A 
HETATM   23  C   UNL     1       7.641  24.700  55.287  1.00  0.00     0.045 A 
HETATM   24  C   UNL     1       7.321  25.182  54.016  1.00  0.00     0.145 A 
HETATM   25  F   UNL     1       8.295  25.156  53.097  1.00  0.00    -0.204 F 
ENDBRANCH   1  19
BRANCH   7  26
HETATM   26  O   UNL     1       4.944  30.592  53.762  1.00  0.00    -0.347 OA
HETATM   27  H   UNL     1       4.318  30.506  54.502  1.00  0.00     0.219 HD
ENDBRANCH   7  26
TORSDOF 3
ENDMDL
MODEL 10
REMARK VINA RESULT:      -7.5     10.196     13.038
REMARK  3 active torsions:
REMARK  status: ('A' for Active; 'I' for Inactive)
REMARK    1  A    between atoms: C_3  and  N_4 
REMARK    2  A    between atoms: C_10  and  O_11 
REMARK    3  A    between atoms: C_14  and  C_15 
ROOT
HETATM    1  N   UNL     1       4.269  34.221  64.722  1.00  0.00    -0.212 N 
HETATM    2  N   UNL     1       3.294  35.156  64.567  1.00  0.00    -0.177 NA
HETATM    3  C   UNL     1       2.870  34.992  63.321  1.00  0.00     0.152 C 
HETATM    4  C   UNL     1       3.501  33.922  62.641  1.00  0.00     0.027 C 
HETATM    5  C   UNL     1       4.339  33.367  63.607  1.00  0.00     0.163 C 
HETATM    6  N   UNL     1       5.041  32.204  63.655  1.00  0.00    -0.208 NA
HETATM    7  C   UNL     1       5.712  31.852  62.613  1.00  0.00     0.149 C 
HETATM    8  C   UNL     1       5.813  32.535  61.284  1.00  0.00     0.161 C 
HETATM    9  S   UNL     1       4.256  32.288  60.393  1.00  0.00    -0.146 SA
HETATM   10  C   UNL     1       3.147  33.488  61.241  1.00  0.00     0.124 C 
ENDROOT
BRANCH  10  11
HETATM   11  C   UNL     1       2.950  34.669  60.306  1.00  0.00     0.028 A 
HETATM   12  C   UNL     1       1.531  35.034  59.986  1.00  0.00     0.253 A 
HETATM   13  O   UNL     1       0.574  34.445  60.477  1.00  0.00    -0.268 OA
HETATM   14  N   UNL     1       1.352  36.092  59.126  1.00  0.00    -0.333 N 
HETATM   15  C   UNL     1       2.372  36.824  58.581  1.00  0.00     0.091 A 
HETATM   16  H   UNL     1       0.389  36.323  58.912  1.00  0.00     0.168 HD
HETATM   17  C   UNL     1       3.640  36.526  58.879  1.00  0.00     0.018 A 
HETATM   18  C   UNL     1       3.930  35.425  59.768  1.00  0.00     0.015 A 
ENDBRANCH  10  11
BRANCH   1  19
HETATM   19  C   UNL     1       5.023  34.208  65.929  1.00  0.00     0.099 A 
HETATM   20  C   UNL     1       4.338  34.223  67.157  1.00  0.00     0.035 A 
HETATM   21  C   UNL     1       5.042  34.192  68.364  1.00  0.00     0.002 A 
HETATM   22  C   UNL     1       6.435  34.169  68.359  1.00  0.00     0.003 A 
HETATM   23  C   UNL     1       7.121  34.193  67.146  1.00  0.00     0.045 A 
HETATM   24  C   UNL     1       6.418  34.220  65.940  1.00  0.00     0.145 A 
HETATM   25  F   UNL     1       7.142  34.373  64.823  1.00  0.00    -0.204 F 
ENDBRANCH   1  19
BRANCH   7  26
HETATM   26  O   UNL     1       6.419  30.713  62.706  1.00  0.00    -0.347 OA
HETATM   27  H   UNL     1       7.333  30.923  62.451  1.00  0.00     0.219 HD
ENDBRANCH   7  26
TORSDOF 3
ENDMDL
