MODEL 1
REMARK VINA RESULT:      -9.7      0.000      0.000
REMARK  4 active torsions:
REMARK  status: ('A' for Active; 'I' for Inactive)
REMARK    1  A    between atoms: C_3  and  C_4 
REMARK       I    between atoms: C_4  and  N_5 
REMARK    2  A    between atoms: N_5  and  C_6 
REMARK    3  A    between atoms: C_13  and  C_14 
REMARK       I    between atoms: C_14  and  N_15 
REMARK    4  A    between atoms: C_25  and  O_26 
ROOT
HETATM    1  C   UNL     1       6.902  26.766  55.798  1.00  0.00     0.280 C 
HETATM    2  N   UNL     1       7.935  26.068  55.197  1.00  0.00    -0.321 N 
HETATM    3  O   UNL     1       5.720  26.441  55.781  1.00  0.00    -0.265 OA
HETATM    4  H   UNL     1       8.846  26.502  55.300  1.00  0.00     0.169 HD
ENDROOT
BRANCH   2   5
HETATM    5  C   UNL     1       7.885  24.834  54.521  1.00  0.00     0.036 A 
HETATM    6  C   UNL     1       8.079  23.594  55.145  1.00  0.00     0.046 A 
HETATM    7  C   UNL     1       8.046  22.412  54.373  1.00  0.00     0.030 A 
HETATM    8  C   UNL     1       7.814  22.509  53.007  1.00  0.00     0.063 A 
HETATM    9  C   UNL     1       8.203  21.014  54.623  1.00  0.00     0.156 A 
HETATM   10  N   UNL     1       7.846  21.225  52.540  1.00  0.00    -0.277 N 
HETATM   11  C   UNL     1       7.607  23.725  52.353  1.00  0.00     0.034 A 
HETATM   12  H   UNL     1       7.719  20.916  51.584  1.00  0.00     0.189 HD
HETATM   13  N   UNL     1       8.080  20.296  53.482  1.00  0.00    -0.168 NA
HETATM   14  C   UNL     1       7.648  24.883  53.140  1.00  0.00     0.032 A 
BRANCH   9  15
HETATM   15  C   UNL     1       8.472  20.358  55.908  1.00  0.00     0.270 C 
HETATM   16  N   UNL     1       9.754  19.893  56.041  1.00  0.00    -0.365 N 
HETATM   17  H   UNL     1      10.400  20.032  55.275  1.00  0.00     0.159 HD
HETATM   18  H   UNL     1      10.031  19.431  56.891  1.00  0.00     0.159 HD
HETATM   19  O   UNL     1       7.652  20.218  56.809  1.00  0.00    -0.266 OA
ENDBRANCH   9  15
ENDBRANCH   2   5
BRANCH   1  20
HETATM   20  C   UNL     1       7.370  27.956  56.496  1.00  0.00     0.150 A 
HETATM   21  C   UNL     1       6.686  28.927  57.219  1.00  0.00    -0.009 A 
HETATM   22  C   UNL     1       5.218  28.995  57.440  1.00  0.00     0.052 C 
HETATM   23  C   UNL     1       7.681  29.816  57.727  1.00  0.00     0.009 A 
HETATM   24  C   UNL     1       8.898  29.342  57.257  1.00  0.00     0.087 A 
HETATM   25  C   UNL     1       7.689  30.964  58.542  1.00  0.00     0.051 A 
HETATM   26  O   UNL     1       8.715  28.224  56.510  1.00  0.00    -0.304 OA
HETATM   27  C   UNL     1      10.127  29.937  57.530  1.00  0.00     0.041 A 
HETATM   28  C   UNL     1      10.109  31.075  58.348  1.00  0.00     0.039 A 
HETATM   29  C   UNL     1       8.910  31.581  58.860  1.00  0.00     0.069 A 
BRANCH  29  30
HETATM   30  O   UNL     1       8.789  32.673  59.677  1.00  0.00    -0.356 OA
HETATM   31  C   UNL     1       7.914  32.552  60.791  1.00  0.00     0.210 C 
ENDBRANCH  29  30
ENDBRANCH   1  20
TORSDOF 4
ENDMDL
MODEL 2
REMARK VINA RESULT:      -9.6      2.884      4.435
REMARK  4 active torsions:
REMARK  status: ('A' for Active; 'I' for Inactive)
REMARK    1  A    between atoms: C_3  and  C_4 
REMARK       I    between atoms: C_4  and  N_5 
REMARK    2  A    between atoms: N_5  and  C_6 
REMARK    3  A    between atoms: C_13  and  C_14 
REMARK       I    between atoms: C_14  and  N_15 
REMARK    4  A    between atoms: C_25  and  O_26 
ROOT
HETATM    1  C   UNL     1       8.413  28.999  57.730  1.00  0.00     0.280 C 
HETATM    2  N   UNL     1       7.652  27.853  57.889  1.00  0.00    -0.321 N 
HETATM    3  O   UNL     1       9.216  29.199  56.827  1.00  0.00    -0.265 OA
HETATM    4  H   UNL     1       7.056  27.860  58.710  1.00  0.00     0.169 HD
ENDROOT
BRANCH   2   5
HETATM    5  C   UNL     1       7.569  26.730  57.045  1.00  0.00     0.036 A 
HETATM    6  C   UNL     1       6.883  26.721  55.823  1.00  0.00     0.046 A 
HETATM    7  C   UNL     1       6.826  25.532  55.064  1.00  0.00     0.030 A 
HETATM    8  C   UNL     1       7.461  24.396  55.548  1.00  0.00     0.063 A 
HETATM    9  C   UNL     1       6.240  25.128  53.825  1.00  0.00     0.156 A 
HETATM   10  N   UNL     1       7.228  23.423  54.616  1.00  0.00    -0.277 N 
HETATM   11  C   UNL     1       8.162  24.370  56.755  1.00  0.00     0.034 A 
HETATM   12  H   UNL     1       7.541  22.460  54.642  1.00  0.00     0.189 HD
HETATM   13  N   UNL     1       6.496  23.825  53.564  1.00  0.00    -0.168 NA
HETATM   14  C   UNL     1       8.200  25.560  57.491  1.00  0.00     0.032 A 
BRANCH   9  15
HETATM   15  C   UNL     1       5.447  25.947  52.899  1.00  0.00     0.270 C 
HETATM   16  N   UNL     1       4.128  26.064  53.248  1.00  0.00    -0.365 N 
HETATM   17  H   UNL     1       3.806  25.599  54.087  1.00  0.00     0.159 HD
HETATM   18  H   UNL     1       3.506  26.609  52.673  1.00  0.00     0.159 HD
HETATM   19  O   UNL     1       5.887  26.494  51.894  1.00  0.00    -0.266 OA
ENDBRANCH   9  15
ENDBRANCH   2   5
BRANCH   1  20
HETATM   20  C   UNL     1       8.143  29.990  58.763  1.00  0.00     0.150 A 
HETATM   21  C   UNL     1       7.206  31.014  58.834  1.00  0.00    -0.009 A 
HETATM   22  C   UNL     1       6.211  31.375  57.791  1.00  0.00     0.052 C 
HETATM   23  C   UNL     1       7.373  31.616  60.118  1.00  0.00     0.009 A 
HETATM   24  C   UNL     1       8.418  30.938  60.729  1.00  0.00     0.087 A 
HETATM   25  C   UNL     1       6.750  32.655  60.835  1.00  0.00     0.051 A 
HETATM   26  O   UNL     1       8.889  29.959  59.915  1.00  0.00    -0.304 OA
HETATM   27  C   UNL     1       8.897  31.226  62.004  1.00  0.00     0.041 A 
HETATM   28  C   UNL     1       8.257  32.259  62.700  1.00  0.00     0.039 A 
HETATM   29  C   UNL     1       7.188  32.962  62.134  1.00  0.00     0.069 A 
BRANCH  29  30
HETATM   30  O   UNL     1       6.490  33.974  62.736  1.00  0.00    -0.356 OA
HETATM   31  C   UNL     1       6.509  34.013  64.158  1.00  0.00     0.210 C 
ENDBRANCH  29  30
ENDBRANCH   1  20
TORSDOF 4
ENDMDL
MODEL 3
REMARK VINA RESULT:      -9.6      2.926      9.226
REMARK  4 active torsions:
REMARK  status: ('A' for Active; 'I' for Inactive)
REMARK    1  A    between atoms: C_3  and  C_4 
REMARK       I    between atoms: C_4  and  N_5 
REMARK    2  A    between atoms: N_5  and  C_6 
REMARK    3  A    between atoms: C_13  and  C_14 
REMARK       I    between atoms: C_14  and  N_15 
REMARK    4  A    between atoms: C_25  and  O_26 
ROOT
HETATM    1  C   UNL     1       7.343  26.942  55.369  1.00  0.00     0.280 C 
HETATM    2  N   UNL     1       6.724  27.260  56.565  1.00  0.00    -0.321 N 
HETATM    3  O   UNL     1       7.711  27.748  54.522  1.00  0.00    -0.265 OA
HETATM    4  H   UNL     1       6.473  26.457  57.131  1.00  0.00     0.169 HD
ENDROOT
BRANCH   2   5
HETATM    5  C   UNL     1       6.452  28.533  57.102  1.00  0.00     0.036 A 
HETATM    6  C   UNL     1       7.410  29.331  57.743  1.00  0.00     0.046 A 
HETATM    7  C   UNL     1       7.029  30.580  58.282  1.00  0.00     0.030 A 
HETATM    8  C   UNL     1       5.709  30.991  58.156  1.00  0.00     0.063 A 
HETATM    9  C   UNL     1       7.680  31.636  58.990  1.00  0.00     0.156 A 
HETATM   10  N   UNL     1       5.648  32.211  58.769  1.00  0.00    -0.277 N 
HETATM   11  C   UNL     1       4.730  30.228  57.516  1.00  0.00     0.034 A 
HETATM   12  H   UNL     1       4.834  32.806  58.872  1.00  0.00     0.189 HD
HETATM   13  N   UNL     1       6.814  32.633  59.285  1.00  0.00    -0.168 NA
HETATM   14  C   UNL     1       5.131  28.992  56.994  1.00  0.00     0.032 A 
BRANCH   9  15
HETATM   15  C   UNL     1       9.090  31.711  59.392  1.00  0.00     0.270 C 
HETATM   16  N   UNL     1       9.395  30.965  60.500  1.00  0.00    -0.365 N 
HETATM   17  H   UNL     1       8.657  30.433  60.943  1.00  0.00     0.159 HD
HETATM   18  H   UNL     1      10.340  30.953  60.848  1.00  0.00     0.159 HD
HETATM   19  O   UNL     1       9.949  32.370  58.817  1.00  0.00    -0.266 OA
ENDBRANCH   9  15
ENDBRANCH   2   5
BRANCH   1  20
HETATM   20  C   UNL     1       7.544  25.508  55.215  1.00  0.00     0.150 A 
HETATM   21  C   UNL     1       7.599  24.703  54.082  1.00  0.00    -0.009 A 
HETATM   22  C   UNL     1       7.429  25.145  52.674  1.00  0.00     0.052 C 
HETATM   23  C   UNL     1       7.885  23.383  54.547  1.00  0.00     0.009 A 
HETATM   24  C   UNL     1       7.957  23.469  55.931  1.00  0.00     0.087 A 
HETATM   25  C   UNL     1       8.101  22.127  53.951  1.00  0.00     0.051 A 
HETATM   26  O   UNL     1       7.747  24.747  56.339  1.00  0.00    -0.304 OA
HETATM   27  C   UNL     1       8.217  22.388  56.768  1.00  0.00     0.041 A 
HETATM   28  C   UNL     1       8.435  21.149  56.150  1.00  0.00     0.039 A 
HETATM   29  C   UNL     1       8.390  21.015  54.759  1.00  0.00     0.069 A 
BRANCH  29  30
HETATM   30  O   UNL     1       8.603  19.856  54.062  1.00  0.00    -0.356 OA
HETATM   31  C   UNL     1       8.751  19.969  52.652  1.00  0.00     0.210 C 
ENDBRANCH  29  30
ENDBRANCH   1  20
TORSDOF 4
ENDMDL
MODEL 4
REMARK VINA RESULT:      -9.3      3.106      9.162
REMARK  4 active torsions:
REMARK  status: ('A' for Active; 'I' for Inactive)
REMARK    1  A    between atoms: C_3  and  C_4 
REMARK       I    between atoms: C_4  and  N_5 
REMARK    2  A    between atoms: N_5  and  C_6 
REMARK    3  A    between atoms: C_13  and  C_14 
REMARK       I    between atoms: C_14  and  N_15 
REMARK    4  A    between atoms: C_25  and  O_26 
ROOT
HETATM    1  C   UNL     1       7.314  27.449  54.954  1.00  0.00     0.280 C 
HETATM    2  N   UNL     1       6.406  27.740  55.958  1.00  0.00    -0.321 N 
HETATM    3  O   UNL     1       7.898  28.275  54.263  1.00  0.00    -0.265 OA
HETATM    4  H   UNL     1       6.009  26.923  56.409  1.00  0.00     0.169 HD
ENDROOT
BRANCH   2   5
HETATM    5  C   UNL     1       6.015  28.999  56.451  1.00  0.00     0.036 A 
HETATM    6  C   UNL     1       6.718  29.703  57.438  1.00  0.00     0.046 A 
HETATM    7  C   UNL     1       6.223  30.946  57.894  1.00  0.00     0.030 A 
HETATM    8  C   UNL     1       5.050  31.444  57.343  1.00  0.00     0.063 A 
HETATM    9  C   UNL     1       6.625  31.924  58.855  1.00  0.00     0.156 A 
HETATM   10  N   UNL     1       4.827  32.634  57.976  1.00  0.00    -0.277 N 
HETATM   11  C   UNL     1       4.330  30.776  56.351  1.00  0.00     0.034 A 
HETATM   12  H   UNL     1       4.055  33.273  57.828  1.00  0.00     0.189 HD
HETATM   13  N   UNL     1       5.752  32.957  58.895  1.00  0.00    -0.168 NA
HETATM   14  C   UNL     1       4.838  29.544  55.919  1.00  0.00     0.032 A 
BRANCH   9  15
HETATM   15  C   UNL     1       7.805  31.891  59.728  1.00  0.00     0.270 C 
HETATM   16  N   UNL     1       7.764  30.910  60.684  1.00  0.00    -0.365 N 
HETATM   17  H   UNL     1       6.958  30.300  60.717  1.00  0.00     0.159 HD
HETATM   18  H   UNL     1       8.532  30.809  61.327  1.00  0.00     0.159 HD
HETATM   19  O   UNL     1       8.761  32.653  59.644  1.00  0.00    -0.266 OA
ENDBRANCH   9  15
ENDBRANCH   2   5
BRANCH   1  20
HETATM   20  C   UNL     1       7.535  26.017  54.806  1.00  0.00     0.150 A 
HETATM   21  C   UNL     1       7.743  25.015  55.748  1.00  0.00    -0.009 A 
HETATM   22  C   UNL     1       7.819  25.190  57.222  1.00  0.00     0.052 C 
HETATM   23  C   UNL     1       7.832  23.794  55.014  1.00  0.00     0.009 A 
HETATM   24  C   UNL     1       7.701  24.137  53.676  1.00  0.00     0.087 A 
HETATM   25  C   UNL     1       8.000  22.433  55.334  1.00  0.00     0.051 A 
HETATM   26  O   UNL     1       7.527  25.477  53.545  1.00  0.00    -0.304 OA
HETATM   27  C   UNL     1       7.737  23.222  52.627  1.00  0.00     0.041 A 
HETATM   28  C   UNL     1       7.898  21.874  52.972  1.00  0.00     0.039 A 
HETATM   29  C   UNL     1       8.018  21.476  54.308  1.00  0.00     0.069 A 
BRANCH  29  30
HETATM   30  O   UNL     1       8.164  20.187  54.746  1.00  0.00    -0.356 OA
HETATM   31  C   UNL     1       8.249  19.989  56.151  1.00  0.00     0.210 C 
ENDBRANCH  29  30
ENDBRANCH   1  20
TORSDOF 4
ENDMDL
MODEL 5
REMARK VINA RESULT:      -9.3      5.415     11.270
REMARK  4 active torsions:
REMARK  status: ('A' for Active; 'I' for Inactive)
REMARK    1  A    between atoms: C_3  and  C_4 
REMARK       I    between atoms: C_4  and  N_5 
REMARK    2  A    between atoms: N_5  and  C_6 
REMARK    3  A    between atoms: C_13  and  C_14 
REMARK       I    between atoms: C_14  and  N_15 
REMARK    4  A    between atoms: C_25  and  O_26 
ROOT
HETATM    1  C   UNL     1       7.711  31.561  59.471  1.00  0.00     0.280 C 
HETATM    2  N   UNL     1       6.911  31.343  60.579  1.00  0.00    -0.321 N 
HETATM    3  O   UNL     1       8.486  32.500  59.328  1.00  0.00    -0.265 OA
HETATM    4  H   UNL     1       6.318  30.523  60.509  1.00  0.00     0.169 HD
ENDROOT
BRANCH   2   5
HETATM    5  C   UNL     1       6.857  32.072  61.782  1.00  0.00     0.036 A 
HETATM    6  C   UNL     1       5.714  32.741  62.240  1.00  0.00     0.046 A 
HETATM    7  C   UNL     1       5.771  33.477  63.444  1.00  0.00     0.030 A 
HETATM    8  C   UNL     1       6.965  33.514  64.151  1.00  0.00     0.063 A 
HETATM    9  C   UNL     1       4.864  34.273  64.208  1.00  0.00     0.156 A 
HETATM   10  N   UNL     1       6.716  34.294  65.246  1.00  0.00    -0.277 N 
HETATM   11  C   UNL     1       8.121  32.852  63.732  1.00  0.00     0.034 A 
HETATM   12  H   UNL     1       7.365  34.543  65.983  1.00  0.00     0.189 HD
HETATM   13  N   UNL     1       5.462  34.771  65.315  1.00  0.00    -0.168 NA
HETATM   14  C   UNL     1       8.040  32.133  62.533  1.00  0.00     0.032 A 
BRANCH   9  15
HETATM   15  C   UNL     1       3.458  34.570  63.906  1.00  0.00     0.270 C 
HETATM   16  N   UNL     1       3.186  35.906  63.772  1.00  0.00    -0.365 N 
HETATM   17  H   UNL     1       3.943  36.567  63.883  1.00  0.00     0.159 HD
HETATM   18  H   UNL     1       2.247  36.205  63.561  1.00  0.00     0.159 HD
HETATM   19  O   UNL     1       2.576  33.728  63.777  1.00  0.00    -0.266 OA
ENDBRANCH   9  15
ENDBRANCH   2   5
BRANCH   1  20
HETATM   20  C   UNL     1       7.557  30.522  58.463  1.00  0.00     0.150 A 
HETATM   21  C   UNL     1       8.494  29.822  57.711  1.00  0.00    -0.009 A 
HETATM   22  C   UNL     1       9.969  30.003  57.747  1.00  0.00     0.052 C 
HETATM   23  C   UNL     1       7.755  28.880  56.934  1.00  0.00     0.009 A 
HETATM   24  C   UNL     1       6.418  29.088  57.243  1.00  0.00     0.087 A 
HETATM   25  C   UNL     1       8.069  27.866  56.009  1.00  0.00     0.051 A 
HETATM   26  O   UNL     1       6.293  30.081  58.161  1.00  0.00    -0.304 OA
HETATM   27  C   UNL     1       5.366  28.366  56.688  1.00  0.00     0.041 A 
HETATM   28  C   UNL     1       5.704  27.358  55.775  1.00  0.00     0.039 A 
HETATM   29  C   UNL     1       7.038  27.099  55.444  1.00  0.00     0.069 A 
BRANCH  29  30
HETATM   30  O   UNL     1       7.471  26.130  54.577  1.00  0.00    -0.356 OA
HETATM   31  C   UNL     1       6.620  25.006  54.390  1.00  0.00     0.210 C 
ENDBRANCH  29  30
ENDBRANCH   1  20
TORSDOF 4
ENDMDL
MODEL 6
REMARK VINA RESULT:      -9.1      5.506      8.977
REMARK  4 active torsions:
REMARK  status: ('A' for Active; 'I' for Inactive)
REMARK    1  A    between atoms: C_3  and  C_4 
REMARK       I    between atoms: C_4  and  N_5 
REMARK    2  A    between atoms: N_5  and  C_6 
REMARK    3  A    between atoms: C_13  and  C_14 
REMARK       I    between atoms: C_14  and  N_15 
REMARK    4  A    between atoms: C_25  and  O_26 
ROOT
HETATM    1  C   UNL     1       5.270  26.291  52.610  1.00  0.00     0.280 C 
HETATM    2  N   UNL     1       5.715  26.604  51.337  1.00  0.00    -0.321 N 
HETATM    3  O   UNL     1       4.308  26.801  53.172  1.00  0.00    -0.265 OA
HETATM    4  H   UNL     1       6.541  26.092  51.047  1.00  0.00     0.169 HD
ENDROOT
BRANCH   2   5
HETATM    5  C   UNL     1       5.146  27.487  50.400  1.00  0.00     0.036 A 
HETATM    6  C   UNL     1       4.086  27.145  49.549  1.00  0.00     0.046 A 
HETATM    7  C   UNL     1       3.608  28.091  48.616  1.00  0.00     0.030 A 
HETATM    8  C   UNL     1       4.199  29.347  48.570  1.00  0.00     0.063 A 
HETATM    9  C   UNL     1       2.596  28.122  47.607  1.00  0.00     0.156 A 
HETATM   10  N   UNL     1       3.539  30.024  47.583  1.00  0.00    -0.277 N 
HETATM   11  C   UNL     1       5.249  29.726  49.409  1.00  0.00     0.034 A 
HETATM   12  H   UNL     1       3.709  30.973  47.271  1.00  0.00     0.189 HD
HETATM   13  N   UNL     1       2.568  29.320  46.979  1.00  0.00    -0.168 NA
HETATM   14  C   UNL     1       5.708  28.769  50.323  1.00  0.00     0.032 A 
BRANCH   9  15
HETATM   15  C   UNL     1       1.671  27.045  47.232  1.00  0.00     0.270 C 
HETATM   16  N   UNL     1       2.252  26.038  46.509  1.00  0.00    -0.365 N 
HETATM   17  H   UNL     1       3.239  26.102  46.296  1.00  0.00     0.159 HD
HETATM   18  H   UNL     1       1.695  25.254  46.209  1.00  0.00     0.159 HD
HETATM   19  O   UNL     1       0.480  27.012  47.519  1.00  0.00    -0.266 OA
ENDBRANCH   9  15
ENDBRANCH   2   5
BRANCH   1  20
HETATM   20  C   UNL     1       6.069  25.245  53.234  1.00  0.00     0.150 A 
HETATM   21  C   UNL     1       6.352  24.976  54.568  1.00  0.00    -0.009 A 
HETATM   22  C   UNL     1       5.895  25.760  55.745  1.00  0.00     0.052 C 
HETATM   23  C   UNL     1       7.135  23.782  54.574  1.00  0.00     0.009 A 
HETATM   24  C   UNL     1       7.299  23.421  53.244  1.00  0.00     0.087 A 
HETATM   25  C   UNL     1       7.716  22.960  55.558  1.00  0.00     0.051 A 
HETATM   26  O   UNL     1       6.662  24.303  52.432  1.00  0.00    -0.304 OA
HETATM   27  C   UNL     1       8.012  22.304  52.819  1.00  0.00     0.041 A 
HETATM   28  C   UNL     1       8.575  21.498  53.818  1.00  0.00     0.039 A 
HETATM   29  C   UNL     1       8.424  21.810  55.173  1.00  0.00     0.069 A 
BRANCH  29  30
HETATM   30  O   UNL     1       8.922  21.081  56.219  1.00  0.00    -0.356 OA
HETATM   31  C   UNL     1       8.287  21.248  57.481  1.00  0.00     0.210 C 
ENDBRANCH  29  30
ENDBRANCH   1  20
TORSDOF 4
ENDMDL
MODEL 7
REMARK VINA RESULT:      -9.1      3.889      9.081
REMARK  4 active torsions:
REMARK  status: ('A' for Active; 'I' for Inactive)
REMARK    1  A    between atoms: C_3  and  C_4 
REMARK       I    between atoms: C_4  and  N_5 
REMARK    2  A    between atoms: N_5  and  C_6 
REMARK    3  A    between atoms: C_13  and  C_14 
REMARK       I    between atoms: C_14  and  N_15 
REMARK    4  A    between atoms: C_25  and  O_26 
ROOT
HETATM    1  C   UNL     1       6.879  27.371  54.553  1.00  0.00     0.280 C 
HETATM    2  N   UNL     1       5.522  27.543  54.767  1.00  0.00    -0.321 N 
HETATM    3  O   UNL     1       7.693  28.273  54.393  1.00  0.00    -0.265 OA
HETATM    4  H   UNL     1       5.002  26.677  54.856  1.00  0.00     0.169 HD
ENDROOT
BRANCH   2   5
HETATM    5  C   UNL     1       4.802  28.743  54.924  1.00  0.00     0.036 A 
HETATM    6  C   UNL     1       4.637  29.399  56.152  1.00  0.00     0.046 A 
HETATM    7  C   UNL     1       3.865  30.580  56.213  1.00  0.00     0.030 A 
HETATM    8  C   UNL     1       3.292  31.068  55.046  1.00  0.00     0.063 A 
HETATM    9  C   UNL     1       3.466  31.498  57.232  1.00  0.00     0.156 A 
HETATM   10  N   UNL     1       2.614  32.195  55.417  1.00  0.00    -0.277 N 
HETATM   11  C   UNL     1       3.443  30.447  53.804  1.00  0.00     0.034 A 
HETATM   12  H   UNL     1       2.072  32.809  54.821  1.00  0.00     0.189 HD
HETATM   13  N   UNL     1       2.694  32.486  56.726  1.00  0.00    -0.168 NA
HETATM   14  C   UNL     1       4.210  29.276  53.771  1.00  0.00     0.032 A 
BRANCH   9  15
HETATM   15  C   UNL     1       3.797  31.449  58.662  1.00  0.00     0.270 C 
HETATM   16  N   UNL     1       3.207  30.414  59.337  1.00  0.00    -0.365 N 
HETATM   17  H   UNL     1       2.610  29.779  58.822  1.00  0.00     0.159 HD
HETATM   18  H   UNL     1       3.378  30.298  60.322  1.00  0.00     0.159 HD
HETATM   19  O   UNL     1       4.531  32.243  59.239  1.00  0.00    -0.266 OA
ENDBRANCH   9  15
ENDBRANCH   2   5
BRANCH   1  20
HETATM   20  C   UNL     1       7.266  25.967  54.554  1.00  0.00     0.150 A 
HETATM   21  C   UNL     1       7.581  25.101  55.595  1.00  0.00    -0.009 A 
HETATM   22  C   UNL     1       7.623  25.435  57.042  1.00  0.00     0.052 C 
HETATM   23  C   UNL     1       7.818  23.828  54.993  1.00  0.00     0.009 A 
HETATM   24  C   UNL     1       7.659  24.012  53.626  1.00  0.00     0.087 A 
HETATM   25  C   UNL     1       8.140  22.537  55.453  1.00  0.00     0.051 A 
HETATM   26  O   UNL     1       7.331  25.301  53.356  1.00  0.00    -0.304 OA
HETATM   27  C   UNL     1       7.809  23.003  52.679  1.00  0.00     0.041 A 
HETATM   28  C   UNL     1       8.124  21.726  53.162  1.00  0.00     0.039 A 
HETATM   29  C   UNL     1       8.277  21.486  54.532  1.00  0.00     0.069 A 
BRANCH  29  30
HETATM   30  O   UNL     1       8.569  20.276  55.102  1.00  0.00    -0.356 OA
HETATM   31  C   UNL     1       9.051  20.293  56.440  1.00  0.00     0.210 C 
ENDBRANCH  29  30
ENDBRANCH   1  20
TORSDOF 4
ENDMDL
MODEL 8
REMARK VINA RESULT:      -8.7      4.030      9.250
REMARK  4 active torsions:
REMARK  status: ('A' for Active; 'I' for Inactive)
REMARK    1  A    between atoms: C_3  and  C_4 
REMARK       I    between atoms: C_4  and  N_5 
REMARK    2  A    between atoms: N_5  and  C_6 
REMARK    3  A    between atoms: C_13  and  C_14 
REMARK       I    between atoms: C_14  and  N_15 
REMARK    4  A    between atoms: C_25  and  O_26 
ROOT
HETATM    1  C   UNL     1       6.396  27.372  54.291  1.00  0.00     0.280 C 
HETATM    2  N   UNL     1       5.220  27.647  54.968  1.00  0.00    -0.321 N 
HETATM    3  O   UNL     1       7.064  28.189  53.667  1.00  0.00    -0.265 OA
HETATM    4  H   UNL     1       4.797  26.838  55.410  1.00  0.00     0.169 HD
ENDROOT
BRANCH   2   5
HETATM    5  C   UNL     1       4.584  28.888  55.156  1.00  0.00     0.036 A 
HETATM    6  C   UNL     1       4.477  29.531  56.397  1.00  0.00     0.046 A 
HETATM    7  C   UNL     1       3.786  30.759  56.489  1.00  0.00     0.030 A 
HETATM    8  C   UNL     1       3.232  31.305  55.339  1.00  0.00     0.063 A 
HETATM    9  C   UNL     1       3.461  31.682  57.530  1.00  0.00     0.156 A 
HETATM   10  N   UNL     1       2.635  32.468  55.739  1.00  0.00    -0.277 N 
HETATM   11  C   UNL     1       3.327  30.699  54.084  1.00  0.00     0.034 A 
HETATM   12  H   UNL     1       2.127  33.127  55.161  1.00  0.00     0.189 HD
HETATM   13  N   UNL     1       2.750  32.729  57.051  1.00  0.00    -0.168 NA
HETATM   14  C   UNL     1       4.013  29.480  54.020  1.00  0.00     0.032 A 
BRANCH   9  15
HETATM   15  C   UNL     1       3.805  31.585  58.954  1.00  0.00     0.270 C 
HETATM   16  N   UNL     1       3.156  30.579  59.618  1.00  0.00    -0.365 N 
HETATM   17  H   UNL     1       2.512  29.994  59.100  1.00  0.00     0.159 HD
HETATM   18  H   UNL     1       3.331  30.434  60.599  1.00  0.00     0.159 HD
HETATM   19  O   UNL     1       4.598  32.318  59.535  1.00  0.00    -0.266 OA
ENDBRANCH   9  15
ENDBRANCH   2   5
BRANCH   1  20
HETATM   20  C   UNL     1       6.792  25.976  54.412  1.00  0.00     0.150 A 
HETATM   21  C   UNL     1       6.683  24.909  53.527  1.00  0.00    -0.009 A 
HETATM   22  C   UNL     1       6.074  24.943  52.172  1.00  0.00     0.052 C 
HETATM   23  C   UNL     1       7.303  23.796  54.171  1.00  0.00     0.009 A 
HETATM   24  C   UNL     1       7.721  24.252  55.413  1.00  0.00     0.087 A 
HETATM   25  C   UNL     1       7.566  22.454  53.837  1.00  0.00     0.051 A 
HETATM   26  O   UNL     1       7.411  25.565  55.565  1.00  0.00    -0.304 OA
HETATM   27  C   UNL     1       8.375  23.463  56.356  1.00  0.00     0.041 A 
HETATM   28  C   UNL     1       8.631  22.133  55.998  1.00  0.00     0.039 A 
HETATM   29  C   UNL     1       8.244  21.631  54.751  1.00  0.00     0.069 A 
BRANCH  29  30
HETATM   30  O   UNL     1       8.460  20.355  54.303  1.00  0.00    -0.356 OA
HETATM   31  C   UNL     1       8.552  20.173  52.896  1.00  0.00     0.210 C 
ENDBRANCH  29  30
ENDBRANCH   1  20
TORSDOF 4
ENDMDL
MODEL 9
REMARK VINA RESULT:      -8.4      5.716      9.324
REMARK  4 active torsions:
REMARK  status: ('A' for Active; 'I' for Inactive)
REMARK    1  A    between atoms: C_3  and  C_4 
REMARK       I    between atoms: C_4  and  N_5 
REMARK    2  A    between atoms: N_5  and  C_6 
REMARK    3  A    between atoms: C_13  and  C_14 
REMARK       I    between atoms: C_14  and  N_15 
REMARK    4  A    between atoms: C_25  and  O_26 
ROOT
HETATM    1  C   UNL     1       5.826  26.762  51.848  1.00  0.00     0.280 C 
HETATM    2  N   UNL     1       5.175  26.279  50.726  1.00  0.00    -0.321 N 
HETATM    3  O   UNL     1       5.947  27.944  52.146  1.00  0.00    -0.265 OA
HETATM    4  H   UNL     1       5.194  25.269  50.636  1.00  0.00     0.169 HD
ENDROOT
BRANCH   2   5
HETATM    5  C   UNL     1       4.462  26.997  49.747  1.00  0.00     0.036 A 
HETATM    6  C   UNL     1       3.738  28.167  50.009  1.00  0.00     0.046 A 
HETATM    7  C   UNL     1       3.024  28.795  48.965  1.00  0.00     0.030 A 
HETATM    8  C   UNL     1       3.065  28.236  47.694  1.00  0.00     0.063 A 
HETATM    9  C   UNL     1       2.190  29.948  48.835  1.00  0.00     0.156 A 
HETATM   10  N   UNL     1       2.289  29.048  46.915  1.00  0.00    -0.277 N 
HETATM   11  C   UNL     1       3.784  27.078  47.393  1.00  0.00     0.034 A 
HETATM   12  H   UNL     1       2.089  28.942  45.927  1.00  0.00     0.189 HD
HETATM   13  N   UNL     1       1.743  30.088  47.566  1.00  0.00    -0.168 NA
HETATM   14  C   UNL     1       4.480  26.472  48.446  1.00  0.00     0.032 A 
BRANCH   9  15
HETATM   15  C   UNL     1       1.810  30.902  49.885  1.00  0.00     0.270 C 
HETATM   16  N   UNL     1       0.589  30.653  50.451  1.00  0.00    -0.365 N 
HETATM   17  H   UNL     1       0.056  29.858  50.121  1.00  0.00     0.159 HD
HETATM   18  H   UNL     1       0.246  31.254  51.182  1.00  0.00     0.159 HD
HETATM   19  O   UNL     1       2.496  31.850  50.251  1.00  0.00    -0.266 OA
ENDBRANCH   9  15
ENDBRANCH   2   5
BRANCH   1  20
HETATM   20  C   UNL     1       6.356  25.693  52.683  1.00  0.00     0.150 A 
HETATM   21  C   UNL     1       6.277  25.471  54.054  1.00  0.00    -0.009 A 
HETATM   22  C   UNL     1       5.612  26.346  55.054  1.00  0.00     0.052 C 
HETATM   23  C   UNL     1       6.931  24.224  54.292  1.00  0.00     0.009 A 
HETATM   24  C   UNL     1       7.387  23.786  53.057  1.00  0.00     0.087 A 
HETATM   25  C   UNL     1       7.180  23.412  55.414  1.00  0.00     0.051 A 
HETATM   26  O   UNL     1       7.047  24.670  52.084  1.00  0.00    -0.304 OA
HETATM   27  C   UNL     1       8.086  22.599  52.858  1.00  0.00     0.041 A 
HETATM   28  C   UNL     1       8.315  21.805  53.989  1.00  0.00     0.039 A 
HETATM   29  C   UNL     1       7.861  22.195  55.253  1.00  0.00     0.069 A 
BRANCH  29  30
HETATM   30  O   UNL     1       8.022  21.485  56.413  1.00  0.00    -0.356 OA
HETATM   31  C   UNL     1       8.981  20.435  56.398  1.00  0.00     0.210 C 
ENDBRANCH  29  30
ENDBRANCH   1  20
TORSDOF 4
ENDMDL
MODEL 10
REMARK VINA RESULT:      -8.3      4.500      9.535
REMARK  4 active torsions:
REMARK  status: ('A' for Active; 'I' for Inactive)
REMARK    1  A    between atoms: C_3  and  C_4 
REMARK       I    between atoms: C_4  and  N_5 
REMARK    2  A    between atoms: N_5  and  C_6 
REMARK    3  A    between atoms: C_13  and  C_14 
REMARK       I    between atoms: C_14  and  N_15 
REMARK    4  A    between atoms: C_25  and  O_26 
ROOT
HETATM    1  C   UNL     1       5.491  28.147  54.357  1.00  0.00     0.280 C 
HETATM    2  N   UNL     1       6.741  28.652  54.670  1.00  0.00    -0.321 N 
HETATM    3  O   UNL     1       4.573  27.981  55.151  1.00  0.00    -0.265 OA
HETATM    4  H   UNL     1       7.380  28.699  53.884  1.00  0.00     0.169 HD
ENDROOT
BRANCH   2   5
HETATM    5  C   UNL     1       7.206  29.144  55.904  1.00  0.00     0.036 A 
HETATM    6  C   UNL     1       6.503  30.065  56.692  1.00  0.00     0.046 A 
HETATM    7  C   UNL     1       7.071  30.528  57.900  1.00  0.00     0.030 A 
HETATM    8  C   UNL     1       8.317  30.049  58.281  1.00  0.00     0.063 A 
HETATM    9  C   UNL     1       6.692  31.438  58.934  1.00  0.00     0.156 A 
HETATM   10  N   UNL     1       8.600  30.672  59.465  1.00  0.00    -0.277 N 
HETATM   11  C   UNL     1       9.042  29.124  57.528  1.00  0.00     0.034 A 
HETATM   12  H   UNL     1       9.433  30.564  60.031  1.00  0.00     0.189 HD
HETATM   13  N   UNL     1       7.646  31.517  59.890  1.00  0.00    -0.168 NA
HETATM   14  C   UNL     1       8.460  28.684  56.333  1.00  0.00     0.032 A 
BRANCH   9  15
HETATM   15  C   UNL     1       5.458  32.228  59.025  1.00  0.00     0.270 C 
HETATM   16  N   UNL     1       5.254  33.069  57.964  1.00  0.00    -0.365 N 
HETATM   17  H   UNL     1       5.940  33.084  57.219  1.00  0.00     0.159 HD
HETATM   18  H   UNL     1       4.431  33.649  57.938  1.00  0.00     0.159 HD
HETATM   19  O   UNL     1       4.655  32.170  59.950  1.00  0.00    -0.266 OA
ENDBRANCH   9  15
ENDBRANCH   2   5
BRANCH   1  20
HETATM   20  C   UNL     1       5.357  27.841  52.940  1.00  0.00     0.150 A 
HETATM   21  C   UNL     1       5.053  26.655  52.279  1.00  0.00    -0.009 A 
HETATM   22  C   UNL     1       4.802  25.333  52.908  1.00  0.00     0.052 C 
HETATM   23  C   UNL     1       4.998  26.979  50.890  1.00  0.00     0.009 A 
HETATM   24  C   UNL     1       5.299  28.330  50.795  1.00  0.00     0.087 A 
HETATM   25  C   UNL     1       4.717  26.280  49.700  1.00  0.00     0.051 A 
HETATM   26  O   UNL     1       5.522  28.854  52.029  1.00  0.00    -0.304 OA
HETATM   27  C   UNL     1       5.353  29.038  49.598  1.00  0.00     0.041 A 
HETATM   28  C   UNL     1       5.063  28.322  48.429  1.00  0.00     0.039 A 
HETATM   29  C   UNL     1       4.737  26.962  48.473  1.00  0.00     0.069 A 
BRANCH  29  30
HETATM   30  O   UNL     1       4.425  26.182  47.392  1.00  0.00    -0.356 OA
HETATM   31  C   UNL     1       3.181  25.495  47.431  1.00  0.00     0.210 C 
ENDBRANCH  29  30
ENDBRANCH   1  20
TORSDOF 4
ENDMDL
