MODEL 1
REMARK VINA RESULT:     -10.4      0.000      0.000
REMARK  11 active torsions:
REMARK  status: ('A' for Active; 'I' for Inactive)
REMARK    1  A    between atoms: C_2  and  C_3 
REMARK    2  A    between atoms: C_3  and  C_4 
REMARK    3  A    between atoms: C_4  and  O_5 
REMARK    4  A    between atoms: O_5  and  C_6 
REMARK    5  A    between atoms: C_8  and  C_9 
REMARK       I    between atoms: C_9  and  N_10 
REMARK    6  A    between atoms: N_10  and  C_11 
REMARK    7  A    between atoms: C_11  and  N_12 
REMARK    8  A    between atoms: N_12  and  C_13 
REMARK    9  A    between atoms: C_15  and  C_16 
REMARK   10  A    between atoms: C_23  and  C_24 
REMARK   11  A    between atoms: C_27  and  O_28 
ROOT
HETATM    1  C   UNL     1       7.379  29.167  57.963  1.00  0.00     0.035 A 
HETATM    2  C   UNL     1       7.534  27.937  57.320  1.00  0.00     0.048 A 
HETATM    3  C   UNL     1       6.913  27.663  56.091  1.00  0.00     0.052 A 
HETATM    4  C   UNL     1       6.128  28.661  55.509  1.00  0.00     0.080 A 
HETATM    5  C   UNL     1       6.035  29.924  56.098  1.00  0.00     0.040 A 
HETATM    6  C   UNL     1       6.677  30.183  57.315  1.00  0.00     0.032 A 
ENDROOT
BRANCH   1   7
HETATM    7  N   UNL     1       7.953  29.421  59.226  1.00  0.00    -0.333 N 
HETATM    8  H   UNL     1       8.243  28.610  59.772  1.00  0.00     0.168 HD
BRANCH   7   9
HETATM    9  C   UNL     1       8.384  30.628  59.730  1.00  0.00     0.179 C 
HETATM   10  S   UNL     1       9.571  31.648  59.130  1.00  0.00    -0.040 SA
BRANCH   9  11
HETATM   11  N   UNL     1       7.762  31.055  60.880  1.00  0.00    -0.299 N 
HETATM   12  C   UNL     1       6.764  32.004  61.044  1.00  0.00     0.257 C 
HETATM   13  O   UNL     1       5.949  32.309  60.184  1.00  0.00    -0.267 OA
HETATM   14  H   UNL     1       8.209  30.697  61.716  1.00  0.00     0.171 HD
BRANCH  12  15
HETATM   15  C   UNL     1       6.679  32.542  62.427  1.00  0.00     0.035 A 
HETATM   16  C   UNL     1       5.423  32.793  62.993  1.00  0.00     0.053 A 
HETATM   17  C   UNL     1       5.343  33.219  64.319  1.00  0.00     0.069 A 
HETATM   18  C   UNL     1       6.516  33.418  65.056  1.00  0.00     0.037 A 
HETATM   19  C   UNL     1       7.769  33.203  64.482  1.00  0.00     0.004 A 
HETATM   20  C   UNL     1       7.852  32.764  63.164  1.00  0.00     0.017 A 
BRANCH  17  21
HETATM   21  O   UNL     1       4.200  33.454  65.027  1.00  0.00    -0.351 OA
BRANCH  21  22
HETATM   22  C   UNL     1       3.319  34.471  64.554  1.00  0.00     0.175 C 
BRANCH  22  23
HETATM   23  C   UNL     1       3.846  35.823  65.034  1.00  0.00     0.026 C 
BRANCH  23  24
HETATM   24  C   UNL     1       4.184  36.765  63.874  1.00  0.00    -0.002 C 
HETATM   25  C   UNL     1       5.670  36.738  63.552  1.00  0.00     0.005 C 
ENDBRANCH  23  24
ENDBRANCH  22  23
ENDBRANCH  21  22
ENDBRANCH  17  21
ENDBRANCH  12  15
ENDBRANCH   9  11
ENDBRANCH   7   9
ENDBRANCH   1   7
BRANCH   3  26
HETATM   26  C   UNL     1       7.082  26.352  55.483  1.00  0.00     0.183 A 
HETATM   27  O   UNL     1       7.240  26.341  54.122  1.00  0.00    -0.289 OA
HETATM   28  C   UNL     1       7.465  25.033  53.829  1.00  0.00     0.106 A 
HETATM   29  C   UNL     1       7.425  24.319  55.013  1.00  0.00     0.094 A 
HETATM   30  C   UNL     1       7.718  24.490  52.580  1.00  0.00     0.040 A 
HETATM   31  N   UNL     1       7.114  25.162  56.058  1.00  0.00    -0.221 NA
HETATM   32  C   UNL     1       7.707  22.946  54.976  1.00  0.00     0.041 A 
HETATM   33  C   UNL     1       8.033  22.345  53.737  1.00  0.00    -0.056 A 
HETATM   34  C   UNL     1       8.001  23.118  52.560  1.00  0.00     0.010 A 
BRANCH  33  35
HETATM   35  C   UNL     1       8.386  20.871  53.734  1.00  0.00     0.034 C 
HETATM   36  C   UNL     1       8.323  20.159  55.082  1.00  0.00     0.010 C 
ENDBRANCH  33  35
ENDBRANCH   3  26
BRANCH   4  37
HETATM   37  O   UNL     1       5.429  28.470  54.347  1.00  0.00    -0.360 OA
HETATM   38  H   UNL     1       5.961  28.823  53.604  1.00  0.00     0.217 HD
ENDBRANCH   4  37
TORSDOF 11
ENDMDL
MODEL 2
REMARK VINA RESULT:     -10.0      2.139     12.140
REMARK  11 active torsions:
REMARK  status: ('A' for Active; 'I' for Inactive)
REMARK    1  A    between atoms: C_2  and  C_3 
REMARK    2  A    between atoms: C_3  and  C_4 
REMARK    3  A    between atoms: C_4  and  O_5 
REMARK    4  A    between atoms: O_5  and  C_6 
REMARK    5  A    between atoms: C_8  and  C_9 
REMARK       I    between atoms: C_9  and  N_10 
REMARK    6  A    between atoms: N_10  and  C_11 
REMARK    7  A    between atoms: C_11  and  N_12 
REMARK    8  A    between atoms: N_12  and  C_13 
REMARK    9  A    between atoms: C_15  and  C_16 
REMARK   10  A    between atoms: C_23  and  C_24 
REMARK   11  A    between atoms: C_27  and  O_28 
ROOT
HETATM    1  C   UNL     1       8.134  29.209  57.980  1.00  0.00     0.035 A 
HETATM    2  C   UNL     1       7.747  29.931  59.111  1.00  0.00     0.048 A 
HETATM    3  C   UNL     1       8.511  31.002  59.600  1.00  0.00     0.052 A 
HETATM    4  C   UNL     1       9.683  31.344  58.920  1.00  0.00     0.080 A 
HETATM    5  C   UNL     1      10.036  30.687  57.740  1.00  0.00     0.040 A 
HETATM    6  C   UNL     1       9.250  29.632  57.258  1.00  0.00     0.032 A 
ENDROOT
BRANCH   1   7
HETATM    7  N   UNL     1       7.399  28.095  57.523  1.00  0.00    -0.333 N 
HETATM    8  H   UNL     1       7.494  27.231  58.057  1.00  0.00     0.168 HD
BRANCH   7   9
HETATM    9  C   UNL     1       6.393  28.075  56.583  1.00  0.00     0.179 C 
HETATM   10  S   UNL     1       5.091  29.117  56.422  1.00  0.00    -0.040 SA
BRANCH   9  11
HETATM   11  N   UNL     1       6.461  27.063  55.653  1.00  0.00    -0.299 N 
HETATM   12  C   UNL     1       6.674  25.706  55.838  1.00  0.00     0.257 C 
HETATM   13  O   UNL     1       6.399  25.094  56.862  1.00  0.00    -0.267 OA
HETATM   14  H   UNL     1       6.480  27.414  54.703  1.00  0.00     0.171 HD
BRANCH  12  15
HETATM   15  C   UNL     1       7.155  25.008  54.617  1.00  0.00     0.035 A 
HETATM   16  C   UNL     1       7.927  23.848  54.744  1.00  0.00     0.053 A 
HETATM   17  C   UNL     1       8.307  23.150  53.598  1.00  0.00     0.069 A 
HETATM   18  C   UNL     1       7.939  23.633  52.337  1.00  0.00     0.037 A 
HETATM   19  C   UNL     1       7.201  24.809  52.207  1.00  0.00     0.004 A 
HETATM   20  C   UNL     1       6.807  25.500  53.349  1.00  0.00     0.017 A 
BRANCH  17  21
HETATM   21  O   UNL     1       9.010  21.980  53.558  1.00  0.00    -0.351 OA
BRANCH  21  22
HETATM   22  C   UNL     1       8.272  20.760  53.511  1.00  0.00     0.175 C 
BRANCH  22  23
HETATM   23  C   UNL     1       8.607  19.950  54.763  1.00  0.00     0.026 C 
BRANCH  23  24
HETATM   24  C   UNL     1       7.713  20.312  55.952  1.00  0.00    -0.002 C 
HETATM   25  C   UNL     1       8.473  21.119  56.993  1.00  0.00     0.005 C 
ENDBRANCH  23  24
ENDBRANCH  22  23
ENDBRANCH  21  22
ENDBRANCH  17  21
ENDBRANCH  12  15
ENDBRANCH   9  11
ENDBRANCH   7   9
ENDBRANCH   1   7
BRANCH   3  26
HETATM   26  C   UNL     1       8.078  31.697  60.802  1.00  0.00     0.183 A 
HETATM   27  O   UNL     1       6.737  31.967  60.886  1.00  0.00    -0.289 OA
HETATM   28  C   UNL     1       6.591  32.524  62.118  1.00  0.00     0.106 A 
HETATM   29  C   UNL     1       7.839  32.573  62.712  1.00  0.00     0.094 A 
HETATM   30  C   UNL     1       5.411  32.950  62.705  1.00  0.00     0.040 A 
HETATM   31  N   UNL     1       8.794  32.102  61.837  1.00  0.00    -0.221 NA
HETATM   32  C   UNL     1       7.933  33.041  64.031  1.00  0.00     0.041 A 
HETATM   33  C   UNL     1       6.753  33.434  64.706  1.00  0.00    -0.056 A 
HETATM   34  C   UNL     1       5.521  33.413  64.023  1.00  0.00     0.010 A 
BRANCH  33  35
HETATM   35  C   UNL     1       6.877  33.886  66.147  1.00  0.00     0.034 C 
HETATM   36  C   UNL     1       5.580  34.282  66.845  1.00  0.00     0.010 C 
ENDBRANCH  33  35
ENDBRANCH   3  26
BRANCH   4  37
HETATM   37  O   UNL     1      10.531  32.328  59.355  1.00  0.00    -0.360 OA
HETATM   38  H   UNL     1      11.085  32.614  58.600  1.00  0.00     0.217 HD
ENDBRANCH   4  37
TORSDOF 11
ENDMDL
MODEL 3
REMARK VINA RESULT:      -9.9      1.693      2.185
REMARK  11 active torsions:
REMARK  status: ('A' for Active; 'I' for Inactive)
REMARK    1  A    between atoms: C_2  and  C_3 
REMARK    2  A    between atoms: C_3  and  C_4 
REMARK    3  A    between atoms: C_4  and  O_5 
REMARK    4  A    between atoms: O_5  and  C_6 
REMARK    5  A    between atoms: C_8  and  C_9 
REMARK       I    between atoms: C_9  and  N_10 
REMARK    6  A    between atoms: N_10  and  C_11 
REMARK    7  A    between atoms: C_11  and  N_12 
REMARK    8  A    between atoms: N_12  and  C_13 
REMARK    9  A    between atoms: C_15  and  C_16 
REMARK   10  A    between atoms: C_23  and  C_24 
REMARK   11  A    between atoms: C_27  and  O_28 
ROOT
HETATM    1  C   UNL     1       7.393  29.527  58.152  1.00  0.00     0.035 A 
HETATM    2  C   UNL     1       7.606  28.301  57.516  1.00  0.00     0.048 A 
HETATM    3  C   UNL     1       6.848  27.906  56.404  1.00  0.00     0.052 A 
HETATM    4  C   UNL     1       5.863  28.776  55.929  1.00  0.00     0.080 A 
HETATM    5  C   UNL     1       5.698  30.039  56.501  1.00  0.00     0.040 A 
HETATM    6  C   UNL     1       6.477  30.423  57.600  1.00  0.00     0.032 A 
ENDROOT
BRANCH   1   7
HETATM    7  N   UNL     1       8.113  29.899  59.306  1.00  0.00    -0.333 N 
HETATM    8  H   UNL     1       8.197  29.198  60.042  1.00  0.00     0.168 HD
BRANCH   7   9
HETATM    9  C   UNL     1       8.912  31.006  59.482  1.00  0.00     0.179 C 
HETATM   10  S   UNL     1      10.227  31.504  58.570  1.00  0.00    -0.040 SA
BRANCH   9  11
HETATM   11  N   UNL     1       8.593  31.814  60.550  1.00  0.00    -0.299 N 
HETATM   12  C   UNL     1       8.338  31.472  61.869  1.00  0.00     0.257 C 
HETATM   13  O   UNL     1       8.776  30.473  62.425  1.00  0.00    -0.267 OA
HETATM   14  H   UNL     1       8.403  32.768  60.269  1.00  0.00     0.171 HD
BRANCH  12  15
HETATM   15  C   UNL     1       7.575  32.508  62.614  1.00  0.00     0.035 A 
HETATM   16  C   UNL     1       7.666  32.562  64.010  1.00  0.00     0.053 A 
HETATM   17  C   UNL     1       7.015  33.586  64.698  1.00  0.00     0.069 A 
HETATM   18  C   UNL     1       6.258  34.526  63.991  1.00  0.00     0.037 A 
HETATM   19  C   UNL     1       6.137  34.453  62.604  1.00  0.00     0.004 A 
HETATM   20  C   UNL     1       6.797  33.442  61.912  1.00  0.00     0.017 A 
BRANCH  17  21
HETATM   21  O   UNL     1       7.051  33.806  66.045  1.00  0.00    -0.351 OA
BRANCH  21  22
HETATM   22  C   UNL     1       5.971  34.531  66.631  1.00  0.00     0.175 C 
BRANCH  22  23
HETATM   23  C   UNL     1       5.806  34.060  68.076  1.00  0.00     0.026 C 
BRANCH  23  24
HETATM   24  C   UNL     1       6.337  35.079  69.088  1.00  0.00    -0.002 C 
HETATM   25  C   UNL     1       7.846  34.971  69.244  1.00  0.00     0.005 C 
ENDBRANCH  23  24
ENDBRANCH  22  23
ENDBRANCH  21  22
ENDBRANCH  17  21
ENDBRANCH  12  15
ENDBRANCH   9  11
ENDBRANCH   7   9
ENDBRANCH   1   7
BRANCH   3  26
HETATM   26  C   UNL     1       7.090  26.603  55.802  1.00  0.00     0.183 A 
HETATM   27  O   UNL     1       7.075  26.565  54.432  1.00  0.00    -0.289 OA
HETATM   28  C   UNL     1       7.411  25.282  54.136  1.00  0.00     0.106 A 
HETATM   29  C   UNL     1       7.604  24.607  55.329  1.00  0.00     0.094 A 
HETATM   30  C   UNL     1       7.566  24.730  52.875  1.00  0.00     0.040 A 
HETATM   31  N   UNL     1       7.332  25.444  56.390  1.00  0.00    -0.221 NA
HETATM   32  C   UNL     1       8.037  23.274  55.280  1.00  0.00     0.041 A 
HETATM   33  C   UNL     1       8.272  22.674  54.020  1.00  0.00    -0.056 A 
HETATM   34  C   UNL     1       8.001  23.399  52.843  1.00  0.00     0.010 A 
BRANCH  33  35
HETATM   35  C   UNL     1       8.791  21.250  53.999  1.00  0.00     0.034 C 
HETATM   36  C   UNL     1       8.411  20.411  52.782  1.00  0.00     0.010 C 
ENDBRANCH  33  35
ENDBRANCH   3  26
BRANCH   4  37
HETATM   37  O   UNL     1       5.027  28.455  54.893  1.00  0.00    -0.360 OA
HETATM   38  H   UNL     1       4.600  29.277  54.574  1.00  0.00     0.217 HD
ENDBRANCH   4  37
TORSDOF 11
ENDMDL
MODEL 4
REMARK VINA RESULT:      -9.9      2.852      4.129
REMARK  11 active torsions:
REMARK  status: ('A' for Active; 'I' for Inactive)
REMARK    1  A    between atoms: C_2  and  C_3 
REMARK    2  A    between atoms: C_3  and  C_4 
REMARK    3  A    between atoms: C_4  and  O_5 
REMARK    4  A    between atoms: O_5  and  C_6 
REMARK    5  A    between atoms: C_8  and  C_9 
REMARK       I    between atoms: C_9  and  N_10 
REMARK    6  A    between atoms: N_10  and  C_11 
REMARK    7  A    between atoms: C_11  and  N_12 
REMARK    8  A    between atoms: N_12  and  C_13 
REMARK    9  A    between atoms: C_15  and  C_16 
REMARK   10  A    between atoms: C_23  and  C_24 
REMARK   11  A    between atoms: C_27  and  O_28 
ROOT
HETATM    1  C   UNL     1       8.272  30.902  59.664  1.00  0.00     0.035 A 
HETATM    2  C   UNL     1       7.980  29.798  58.860  1.00  0.00     0.048 A 
HETATM    3  C   UNL     1       8.761  29.474  57.739  1.00  0.00     0.052 A 
HETATM    4  C   UNL     1       9.858  30.286  57.439  1.00  0.00     0.080 A 
HETATM    5  C   UNL     1      10.210  31.341  58.283  1.00  0.00     0.040 A 
HETATM    6  C   UNL     1       9.429  31.637  59.406  1.00  0.00     0.032 A 
ENDROOT
BRANCH   1   7
HETATM    7  N   UNL     1       7.453  31.263  60.755  1.00  0.00    -0.333 N 
HETATM    8  H   UNL     1       7.704  30.878  61.665  1.00  0.00     0.168 HD
BRANCH   7   9
HETATM    9  C   UNL     1       6.492  32.247  60.799  1.00  0.00     0.179 C 
HETATM   10  S   UNL     1       5.468  32.765  59.578  1.00  0.00    -0.040 SA
BRANCH   9  11
HETATM   11  N   UNL     1       6.351  32.896  62.004  1.00  0.00    -0.299 N 
HETATM   12  C   UNL     1       7.158  32.848  63.131  1.00  0.00     0.257 C 
HETATM   13  O   UNL     1       8.353  32.587  63.118  1.00  0.00    -0.267 OA
HETATM   14  H   UNL     1       5.457  33.364  62.088  1.00  0.00     0.171 HD
BRANCH  12  15
HETATM   15  C   UNL     1       6.465  33.278  64.374  1.00  0.00     0.035 A 
HETATM   16  C   UNL     1       7.220  33.598  65.509  1.00  0.00     0.053 A 
HETATM   17  C   UNL     1       6.573  34.080  66.647  1.00  0.00     0.069 A 
HETATM   18  C   UNL     1       5.180  34.209  66.651  1.00  0.00     0.037 A 
HETATM   19  C   UNL     1       4.423  33.856  65.534  1.00  0.00     0.004 A 
HETATM   20  C   UNL     1       5.066  33.390  64.392  1.00  0.00     0.017 A 
BRANCH  17  21
HETATM   21  O   UNL     1       7.169  34.484  67.807  1.00  0.00    -0.351 OA
BRANCH  21  22
HETATM   22  C   UNL     1       6.326  34.907  68.878  1.00  0.00     0.175 C 
BRANCH  22  23
HETATM   23  C   UNL     1       7.196  35.589  69.933  1.00  0.00     0.026 C 
BRANCH  23  24
HETATM   24  C   UNL     1       8.442  34.769  70.283  1.00  0.00    -0.002 C 
HETATM   25  C   UNL     1       8.124  33.683  71.298  1.00  0.00     0.005 C 
ENDBRANCH  23  24
ENDBRANCH  22  23
ENDBRANCH  21  22
ENDBRANCH  17  21
ENDBRANCH  12  15
ENDBRANCH   9  11
ENDBRANCH   7   9
ENDBRANCH   1   7
BRANCH   3  26
HETATM   26  C   UNL     1       8.390  28.332  56.918  1.00  0.00     0.183 A 
HETATM   27  O   UNL     1       8.333  27.125  57.565  1.00  0.00    -0.289 OA
HETATM   28  C   UNL     1       7.885  26.264  56.613  1.00  0.00     0.106 A 
HETATM   29  C   UNL     1       7.703  26.981  55.443  1.00  0.00     0.094 A 
HETATM   30  C   UNL     1       7.625  24.912  56.767  1.00  0.00     0.040 A 
HETATM   31  N   UNL     1       8.091  28.290  55.631  1.00  0.00    -0.221 NA
HETATM   32  C   UNL     1       7.168  26.317  54.330  1.00  0.00     0.041 A 
HETATM   33  C   UNL     1       6.825  24.949  54.444  1.00  0.00    -0.056 A 
HETATM   34  C   UNL     1       7.089  24.265  55.646  1.00  0.00     0.010 A 
BRANCH  33  35
HETATM   35  C   UNL     1       6.199  24.272  53.241  1.00  0.00     0.034 C 
HETATM   36  C   UNL     1       4.906  24.888  52.716  1.00  0.00     0.010 C 
ENDBRANCH  33  35
ENDBRANCH   3  26
BRANCH   4  37
HETATM   37  O   UNL     1      10.640  30.094  56.331  1.00  0.00    -0.360 OA
HETATM   38  H   UNL     1      10.700  30.942  55.845  1.00  0.00     0.217 HD
ENDBRANCH   4  37
TORSDOF 11
ENDMDL
MODEL 5
REMARK VINA RESULT:      -9.7      1.674      2.669
REMARK  11 active torsions:
REMARK  status: ('A' for Active; 'I' for Inactive)
REMARK    1  A    between atoms: C_2  and  C_3 
REMARK    2  A    between atoms: C_3  and  C_4 
REMARK    3  A    between atoms: C_4  and  O_5 
REMARK    4  A    between atoms: O_5  and  C_6 
REMARK    5  A    between atoms: C_8  and  C_9 
REMARK       I    between atoms: C_9  and  N_10 
REMARK    6  A    between atoms: N_10  and  C_11 
REMARK    7  A    between atoms: C_11  and  N_12 
REMARK    8  A    between atoms: N_12  and  C_13 
REMARK    9  A    between atoms: C_15  and  C_16 
REMARK   10  A    between atoms: C_23  and  C_24 
REMARK   11  A    between atoms: C_27  and  O_28 
ROOT
HETATM    1  C   UNL     1       6.781  29.823  56.747  1.00  0.00     0.035 A 
HETATM    2  C   UNL     1       7.203  28.514  56.502  1.00  0.00     0.048 A 
HETATM    3  C   UNL     1       6.416  27.610  55.772  1.00  0.00     0.052 A 
HETATM    4  C   UNL     1       5.186  28.050  55.278  1.00  0.00     0.080 A 
HETATM    5  C   UNL     1       4.792  29.380  55.442  1.00  0.00     0.040 A 
HETATM    6  C   UNL     1       5.599  30.272  56.159  1.00  0.00     0.032 A 
ENDROOT
BRANCH   1   7
HETATM    7  N   UNL     1       7.543  30.713  57.532  1.00  0.00    -0.333 N 
HETATM    8  H   UNL     1       8.031  31.461  57.038  1.00  0.00     0.168 HD
BRANCH   7   9
HETATM    9  C   UNL     1       7.537  30.848  58.902  1.00  0.00     0.179 C 
HETATM   10  S   UNL     1       8.769  30.526  59.991  1.00  0.00    -0.040 SA
BRANCH   9  11
HETATM   11  N   UNL     1       6.362  31.305  59.455  1.00  0.00    -0.299 N 
HETATM   12  C   UNL     1       5.674  32.484  59.216  1.00  0.00     0.257 C 
HETATM   13  O   UNL     1       5.731  33.122  58.173  1.00  0.00    -0.267 OA
HETATM   14  H   UNL     1       6.054  30.732  60.232  1.00  0.00     0.171 HD
BRANCH  12  15
HETATM   15  C   UNL     1       4.737  32.856  60.309  1.00  0.00     0.035 A 
HETATM   16  C   UNL     1       5.054  32.527  61.632  1.00  0.00     0.053 A 
HETATM   17  C   UNL     1       4.214  32.949  62.662  1.00  0.00     0.069 A 
HETATM   18  C   UNL     1       3.052  33.667  62.359  1.00  0.00     0.037 A 
HETATM   19  C   UNL     1       2.716  33.964  61.039  1.00  0.00     0.004 A 
HETATM   20  C   UNL     1       3.559  33.558  60.010  1.00  0.00     0.017 A 
BRANCH  17  21
HETATM   21  O   UNL     1       4.412  32.756  63.999  1.00  0.00    -0.351 OA
BRANCH  21  22
HETATM   22  C   UNL     1       4.685  33.902  64.805  1.00  0.00     0.175 C 
BRANCH  22  23
HETATM   23  C   UNL     1       6.098  34.388  64.483  1.00  0.00     0.026 C 
BRANCH  23  24
HETATM   24  C   UNL     1       7.176  33.412  64.962  1.00  0.00    -0.002 C 
HETATM   25  C   UNL     1       7.976  32.853  63.796  1.00  0.00     0.005 C 
ENDBRANCH  23  24
ENDBRANCH  22  23
ENDBRANCH  21  22
ENDBRANCH  17  21
ENDBRANCH  12  15
ENDBRANCH   9  11
ENDBRANCH   7   9
ENDBRANCH   1   7
BRANCH   3  26
HETATM   26  C   UNL     1       6.891  26.248  55.576  1.00  0.00     0.183 A 
HETATM   27  O   UNL     1       7.542  25.684  56.642  1.00  0.00    -0.289 OA
HETATM   28  C   UNL     1       7.792  24.410  56.237  1.00  0.00     0.106 A 
HETATM   29  C   UNL     1       7.292  24.267  54.954  1.00  0.00     0.094 A 
HETATM   30  C   UNL     1       8.409  23.409  56.967  1.00  0.00     0.040 A 
HETATM   31  N   UNL     1       6.776  25.468  54.515  1.00  0.00    -0.221 NA
HETATM   32  C   UNL     1       7.364  23.005  54.347  1.00  0.00     0.041 A 
HETATM   33  C   UNL     1       7.929  21.927  55.067  1.00  0.00    -0.056 A 
HETATM   34  C   UNL     1       8.470  22.154  56.347  1.00  0.00     0.010 A 
BRANCH  33  35
HETATM   35  C   UNL     1       7.944  20.563  54.407  1.00  0.00     0.034 C 
HETATM   36  C   UNL     1       8.208  20.543  52.904  1.00  0.00     0.010 C 
ENDBRANCH  33  35
ENDBRANCH   3  26
BRANCH   4  37
HETATM   37  O   UNL     1       4.317  27.227  54.612  1.00  0.00    -0.360 OA
HETATM   38  H   UNL     1       4.575  26.299  54.789  1.00  0.00     0.217 HD
ENDBRANCH   4  37
TORSDOF 11
ENDMDL
MODEL 6
REMARK VINA RESULT:      -9.7      1.495      2.092
REMARK  11 active torsions:
REMARK  status: ('A' for Active; 'I' for Inactive)
REMARK    1  A    between atoms: C_2  and  C_3 
REMARK    2  A    between atoms: C_3  and  C_4 
REMARK    3  A    between atoms: C_4  and  O_5 
REMARK    4  A    between atoms: O_5  and  C_6 
REMARK    5  A    between atoms: C_8  and  C_9 
REMARK       I    between atoms: C_9  and  N_10 
REMARK    6  A    between atoms: N_10  and  C_11 
REMARK    7  A    between atoms: C_11  and  N_12 
REMARK    8  A    between atoms: N_12  and  C_13 
REMARK    9  A    between atoms: C_15  and  C_16 
REMARK   10  A    between atoms: C_23  and  C_24 
REMARK   11  A    between atoms: C_27  and  O_28 
ROOT
HETATM    1  C   UNL     1       5.707  29.604  55.920  1.00  0.00     0.035 A 
HETATM    2  C   UNL     1       6.160  28.298  55.723  1.00  0.00     0.048 A 
HETATM    3  C   UNL     1       5.529  27.425  54.824  1.00  0.00     0.052 A 
HETATM    4  C   UNL     1       4.423  27.894  54.111  1.00  0.00     0.080 A 
HETATM    5  C   UNL     1       4.013  29.223  54.233  1.00  0.00     0.040 A 
HETATM    6  C   UNL     1       4.667  30.084  55.123  1.00  0.00     0.032 A 
ENDROOT
BRANCH   1   7
HETATM    7  N   UNL     1       6.303  30.463  56.867  1.00  0.00    -0.333 N 
HETATM    8  H   UNL     1       5.835  31.353  57.040  1.00  0.00     0.168 HD
BRANCH   7   9
HETATM    9  C   UNL     1       7.310  30.168  57.757  1.00  0.00     0.179 C 
HETATM   10  S   UNL     1       8.705  29.276  57.501  1.00  0.00    -0.040 SA
BRANCH   9  11
HETATM   11  N   UNL     1       7.152  30.668  59.030  1.00  0.00    -0.299 N 
HETATM   12  C   UNL     1       6.846  31.956  59.440  1.00  0.00     0.257 C 
HETATM   13  O   UNL     1       6.229  32.771  58.766  1.00  0.00    -0.267 OA
HETATM   14  H   UNL     1       7.430  30.004  59.742  1.00  0.00     0.171 HD
BRANCH  12  15
HETATM   15  C   UNL     1       7.223  32.235  60.851  1.00  0.00     0.035 A 
HETATM   16  C   UNL     1       6.551  33.239  61.559  1.00  0.00     0.053 A 
HETATM   17  C   UNL     1       6.850  33.442  62.907  1.00  0.00     0.069 A 
HETATM   18  C   UNL     1       7.835  32.663  63.524  1.00  0.00     0.037 A 
HETATM   19  C   UNL     1       8.530  31.688  62.810  1.00  0.00     0.004 A 
HETATM   20  C   UNL     1       8.224  31.471  61.470  1.00  0.00     0.017 A 
BRANCH  17  21
HETATM   21  O   UNL     1       6.249  34.338  63.743  1.00  0.00    -0.351 OA
BRANCH  21  22
HETATM   22  C   UNL     1       6.231  34.040  65.138  1.00  0.00     0.175 C 
BRANCH  22  23
HETATM   23  C   UNL     1       4.809  33.633  65.522  1.00  0.00     0.026 C 
BRANCH  23  24
HETATM   24  C   UNL     1       3.787  34.739  65.243  1.00  0.00    -0.002 C 
HETATM   25  C   UNL     1       3.855  35.835  66.295  1.00  0.00     0.005 C 
ENDBRANCH  23  24
ENDBRANCH  22  23
ENDBRANCH  21  22
ENDBRANCH  17  21
ENDBRANCH  12  15
ENDBRANCH   9  11
ENDBRANCH   7   9
ENDBRANCH   1   7
BRANCH   3  26
HETATM   26  C   UNL     1       6.024  26.064  54.686  1.00  0.00     0.183 A 
HETATM   27  O   UNL     1       6.488  25.721  53.442  1.00  0.00    -0.289 OA
HETATM   28  C   UNL     1       6.965  24.458  53.608  1.00  0.00     0.106 A 
HETATM   29  C   UNL     1       6.761  24.096  54.927  1.00  0.00     0.094 A 
HETATM   30  C   UNL     1       7.574  23.665  52.649  1.00  0.00     0.040 A 
HETATM   31  N   UNL     1       6.099  25.105  55.593  1.00  0.00    -0.221 NA
HETATM   32  C   UNL     1       7.245  22.853  55.362  1.00  0.00     0.041 A 
HETATM   33  C   UNL     1       7.930  22.024  54.443  1.00  0.00    -0.056 A 
HETATM   34  C   UNL     1       8.053  22.428  53.099  1.00  0.00     0.010 A 
BRANCH  33  35
HETATM   35  C   UNL     1       8.488  20.710  54.953  1.00  0.00     0.034 C 
HETATM   36  C   UNL     1       8.706  20.609  56.459  1.00  0.00     0.010 C 
ENDBRANCH  33  35
ENDBRANCH   3  26
BRANCH   4  37
HETATM   37  O   UNL     1       3.699  27.101  53.261  1.00  0.00    -0.360 OA
HETATM   38  H   UNL     1       3.684  27.527  52.379  1.00  0.00     0.217 HD
ENDBRANCH   4  37
TORSDOF 11
ENDMDL
MODEL 7
REMARK VINA RESULT:      -9.1      2.087      3.153
REMARK  11 active torsions:
REMARK  status: ('A' for Active; 'I' for Inactive)
REMARK    1  A    between atoms: C_2  and  C_3 
REMARK    2  A    between atoms: C_3  and  C_4 
REMARK    3  A    between atoms: C_4  and  O_5 
REMARK    4  A    between atoms: O_5  and  C_6 
REMARK    5  A    between atoms: C_8  and  C_9 
REMARK       I    between atoms: C_9  and  N_10 
REMARK    6  A    between atoms: N_10  and  C_11 
REMARK    7  A    between atoms: C_11  and  N_12 
REMARK    8  A    between atoms: N_12  and  C_13 
REMARK    9  A    between atoms: C_15  and  C_16 
REMARK   10  A    between atoms: C_23  and  C_24 
REMARK   11  A    between atoms: C_27  and  O_28 
ROOT
HETATM    1  C   UNL     1       5.430  29.903  55.636  1.00  0.00     0.035 A 
HETATM    2  C   UNL     1       5.929  28.605  55.515  1.00  0.00     0.048 A 
HETATM    3  C   UNL     1       5.320  27.654  54.682  1.00  0.00     0.052 A 
HETATM    4  C   UNL     1       4.189  28.037  53.957  1.00  0.00     0.080 A 
HETATM    5  C   UNL     1       3.731  29.355  54.002  1.00  0.00     0.040 A 
HETATM    6  C   UNL     1       4.363  30.294  54.826  1.00  0.00     0.032 A 
ENDROOT
BRANCH   1   7
HETATM    7  N   UNL     1       6.005  30.841  56.519  1.00  0.00    -0.333 N 
HETATM    8  H   UNL     1       5.891  31.827  56.282  1.00  0.00     0.168 HD
BRANCH   7   9
HETATM    9  C   UNL     1       6.508  30.615  57.780  1.00  0.00     0.179 C 
HETATM   10  S   UNL     1       7.735  29.572  58.246  1.00  0.00    -0.040 SA
BRANCH   9  11
HETATM   11  N   UNL     1       5.927  31.337  58.797  1.00  0.00    -0.299 N 
HETATM   12  C   UNL     1       4.622  31.787  58.926  1.00  0.00     0.257 C 
HETATM   13  O   UNL     1       3.651  31.261  58.398  1.00  0.00    -0.267 OA
HETATM   14  H   UNL     1       6.608  31.678  59.466  1.00  0.00     0.171 HD
BRANCH  12  15
HETATM   15  C   UNL     1       4.475  32.913  59.886  1.00  0.00     0.035 A 
HETATM   16  C   UNL     1       5.210  32.904  61.078  1.00  0.00     0.053 A 
HETATM   17  C   UNL     1       5.133  34.000  61.937  1.00  0.00     0.069 A 
HETATM   18  C   UNL     1       4.302  35.078  61.614  1.00  0.00     0.037 A 
HETATM   19  C   UNL     1       3.541  35.072  60.445  1.00  0.00     0.004 A 
HETATM   20  C   UNL     1       3.627  33.988  59.578  1.00  0.00     0.017 A 
BRANCH  17  21
HETATM   21  O   UNL     1       5.824  34.166  63.102  1.00  0.00    -0.351 OA
BRANCH  21  22
HETATM   22  C   UNL     1       6.009  33.023  63.936  1.00  0.00     0.175 C 
BRANCH  22  23
HETATM   23  C   UNL     1       7.500  32.892  64.246  1.00  0.00     0.026 C 
BRANCH  23  24
HETATM   24  C   UNL     1       8.329  32.553  63.004  1.00  0.00    -0.002 C 
HETATM   25  C   UNL     1       8.144  31.101  62.593  1.00  0.00     0.005 C 
ENDBRANCH  23  24
ENDBRANCH  22  23
ENDBRANCH  21  22
ENDBRANCH  17  21
ENDBRANCH  12  15
ENDBRANCH   9  11
ENDBRANCH   7   9
ENDBRANCH   1   7
BRANCH   3  26
HETATM   26  C   UNL     1       5.864  26.306  54.621  1.00  0.00     0.183 A 
HETATM   27  O   UNL     1       6.212  25.858  53.373  1.00  0.00    -0.289 OA
HETATM   28  C   UNL     1       6.764  24.637  53.606  1.00  0.00     0.106 A 
HETATM   29  C   UNL     1       6.717  24.403  54.969  1.00  0.00     0.094 A 
HETATM   30  C   UNL     1       7.307  23.776  52.667  1.00  0.00     0.040 A 
HETATM   31  N   UNL     1       6.080  25.447  55.603  1.00  0.00    -0.221 NA
HETATM   32  C   UNL     1       7.303  23.229  55.465  1.00  0.00     0.041 A 
HETATM   33  C   UNL     1       7.929  22.338  54.561  1.00  0.00    -0.056 A 
HETATM   34  C   UNL     1       7.891  22.610  53.179  1.00  0.00     0.010 A 
BRANCH  33  35
HETATM   35  C   UNL     1       8.600  21.105  55.131  1.00  0.00     0.034 C 
HETATM   36  C   UNL     1       7.770  20.273  56.103  1.00  0.00     0.010 C 
ENDBRANCH  33  35
ENDBRANCH   3  26
BRANCH   4  37
HETATM   37  O   UNL     1       3.485  27.166  53.169  1.00  0.00    -0.360 OA
HETATM   38  H   UNL     1       2.907  26.625  53.746  1.00  0.00     0.217 HD
ENDBRANCH   4  37
TORSDOF 11
ENDMDL
MODEL 8
REMARK VINA RESULT:      -9.1      2.534      3.649
REMARK  11 active torsions:
REMARK  status: ('A' for Active; 'I' for Inactive)
REMARK    1  A    between atoms: C_2  and  C_3 
REMARK    2  A    between atoms: C_3  and  C_4 
REMARK    3  A    between atoms: C_4  and  O_5 
REMARK    4  A    between atoms: O_5  and  C_6 
REMARK    5  A    between atoms: C_8  and  C_9 
REMARK       I    between atoms: C_9  and  N_10 
REMARK    6  A    between atoms: N_10  and  C_11 
REMARK    7  A    between atoms: C_11  and  N_12 
REMARK    8  A    between atoms: N_12  and  C_13 
REMARK    9  A    between atoms: C_15  and  C_16 
REMARK   10  A    between atoms: C_23  and  C_24 
REMARK   11  A    between atoms: C_27  and  O_28 
ROOT
HETATM    1  C   UNL     1       7.062  28.935  57.205  1.00  0.00     0.035 A 
HETATM    2  C   UNL     1       6.545  28.803  55.914  1.00  0.00     0.048 A 
HETATM    3  C   UNL     1       6.683  27.614  55.183  1.00  0.00     0.052 A 
HETATM    4  C   UNL     1       7.353  26.542  55.779  1.00  0.00     0.080 A 
HETATM    5  C   UNL     1       7.799  26.632  57.099  1.00  0.00     0.040 A 
HETATM    6  C   UNL     1       7.636  27.822  57.819  1.00  0.00     0.032 A 
ENDROOT
BRANCH   1   7
HETATM    7  N   UNL     1       6.977  30.150  57.918  1.00  0.00    -0.333 N 
HETATM    8  H   UNL     1       6.066  30.607  57.940  1.00  0.00     0.168 HD
BRANCH   7   9
HETATM    9  C   UNL     1       7.905  30.689  58.780  1.00  0.00     0.179 C 
HETATM   10  S   UNL     1       9.539  30.960  58.523  1.00  0.00    -0.040 SA
BRANCH   9  11
HETATM   11  N   UNL     1       7.433  31.052  60.021  1.00  0.00    -0.299 N 
HETATM   12  C   UNL     1       6.519  32.036  60.364  1.00  0.00     0.257 C 
HETATM   13  O   UNL     1       5.641  32.457  59.622  1.00  0.00    -0.267 OA
HETATM   14  H   UNL     1       7.940  30.601  60.773  1.00  0.00     0.171 HD
BRANCH  12  15
HETATM   15  C   UNL     1       6.610  32.460  61.786  1.00  0.00     0.035 A 
HETATM   16  C   UNL     1       5.439  32.756  62.494  1.00  0.00     0.053 A 
HETATM   17  C   UNL     1       5.522  33.073  63.850  1.00  0.00     0.069 A 
HETATM   18  C   UNL     1       6.772  33.121  64.476  1.00  0.00     0.037 A 
HETATM   19  C   UNL     1       7.942  32.863  63.764  1.00  0.00     0.004 A 
HETATM   20  C   UNL     1       7.863  32.531  62.415  1.00  0.00     0.017 A 
BRANCH  17  21
HETATM   21  O   UNL     1       4.474  33.331  64.687  1.00  0.00    -0.351 OA
BRANCH  21  22
HETATM   22  C   UNL     1       3.484  34.259  64.248  1.00  0.00     0.175 C 
BRANCH  22  23
HETATM   23  C   UNL     1       3.827  35.633  64.822  1.00  0.00     0.026 C 
BRANCH  23  24
HETATM   24  C   UNL     1       4.196  36.647  63.735  1.00  0.00    -0.002 C 
HETATM   25  C   UNL     1       5.704  36.771  63.581  1.00  0.00     0.005 C 
ENDBRANCH  23  24
ENDBRANCH  22  23
ENDBRANCH  21  22
ENDBRANCH  17  21
ENDBRANCH  12  15
ENDBRANCH   9  11
ENDBRANCH   7   9
ENDBRANCH   1   7
BRANCH   3  26
HETATM   26  C   UNL     1       6.153  27.544  53.829  1.00  0.00     0.183 A 
HETATM   27  O   UNL     1       6.078  28.735  53.155  1.00  0.00    -0.289 OA
HETATM   28  C   UNL     1       5.647  28.382  51.914  1.00  0.00     0.106 A 
HETATM   29  C   UNL     1       5.475  27.009  51.899  1.00  0.00     0.094 A 
HETATM   30  C   UNL     1       5.436  29.224  50.835  1.00  0.00     0.040 A 
HETATM   31  N   UNL     1       5.738  26.489  53.148  1.00  0.00    -0.221 NA
HETATM   32  C   UNL     1       5.105  26.396  50.693  1.00  0.00     0.041 A 
HETATM   33  C   UNL     1       4.934  27.197  49.539  1.00  0.00    -0.056 A 
HETATM   34  C   UNL     1       5.070  28.596  49.637  1.00  0.00     0.010 A 
BRANCH  33  35
HETATM   35  C   UNL     1       4.587  26.502  48.238  1.00  0.00     0.034 C 
HETATM   36  C   UNL     1       3.324  25.646  48.246  1.00  0.00     0.010 C 
ENDBRANCH  33  35
ENDBRANCH   3  26
BRANCH   4  37
HETATM   37  O   UNL     1       7.597  25.365  55.124  1.00  0.00    -0.360 OA
HETATM   38  H   UNL     1       6.839  24.764  55.277  1.00  0.00     0.217 HD
ENDBRANCH   4  37
TORSDOF 11
ENDMDL
MODEL 9
REMARK VINA RESULT:      -9.0      5.306      9.924
REMARK  11 active torsions:
REMARK  status: ('A' for Active; 'I' for Inactive)
REMARK    1  A    between atoms: C_2  and  C_3 
REMARK    2  A    between atoms: C_3  and  C_4 
REMARK    3  A    between atoms: C_4  and  O_5 
REMARK    4  A    between atoms: O_5  and  C_6 
REMARK    5  A    between atoms: C_8  and  C_9 
REMARK       I    between atoms: C_9  and  N_10 
REMARK    6  A    between atoms: N_10  and  C_11 
REMARK    7  A    between atoms: C_11  and  N_12 
REMARK    8  A    between atoms: N_12  and  C_13 
REMARK    9  A    between atoms: C_15  and  C_16 
REMARK   10  A    between atoms: C_23  and  C_24 
REMARK   11  A    between atoms: C_27  and  O_28 
ROOT
HETATM    1  C   UNL     1       5.192  29.350  56.156  1.00  0.00     0.035 A 
HETATM    2  C   UNL     1       5.440  28.055  55.696  1.00  0.00     0.048 A 
HETATM    3  C   UNL     1       6.470  27.266  56.230  1.00  0.00     0.052 A 
HETATM    4  C   UNL     1       7.255  27.805  57.253  1.00  0.00     0.080 A 
HETATM    5  C   UNL     1       6.964  29.065  57.781  1.00  0.00     0.040 A 
HETATM    6  C   UNL     1       5.920  29.829  57.246  1.00  0.00     0.032 A 
ENDROOT
BRANCH   1   7
HETATM    7  N   UNL     1       4.196  30.165  55.580  1.00  0.00    -0.333 N 
HETATM    8  H   UNL     1       3.275  30.146  56.018  1.00  0.00     0.168 HD
BRANCH   7   9
HETATM    9  C   UNL     1       4.358  31.158  54.640  1.00  0.00     0.179 C 
HETATM   10  S   UNL     1       4.506  32.810  54.878  1.00  0.00    -0.040 SA
BRANCH   9  11
HETATM   11  N   UNL     1       4.402  30.743  53.328  1.00  0.00    -0.299 N 
HETATM   12  C   UNL     1       3.947  29.562  52.762  1.00  0.00     0.257 C 
HETATM   13  O   UNL     1       3.041  28.877  53.217  1.00  0.00    -0.267 OA
HETATM   14  H   UNL     1       4.964  31.354  52.749  1.00  0.00     0.171 HD
BRANCH  12  15
HETATM   15  C   UNL     1       4.576  29.253  51.450  1.00  0.00     0.035 A 
HETATM   16  C   UNL     1       4.413  27.981  50.889  1.00  0.00     0.053 A 
HETATM   17  C   UNL     1       4.935  27.720  49.622  1.00  0.00     0.069 A 
HETATM   18  C   UNL     1       5.638  28.721  48.942  1.00  0.00     0.037 A 
HETATM   19  C   UNL     1       5.833  29.977  49.515  1.00  0.00     0.004 A 
HETATM   20  C   UNL     1       5.301  30.246  50.773  1.00  0.00     0.017 A 
BRANCH  17  21
HETATM   21  O   UNL     1       4.814  26.555  48.921  1.00  0.00    -0.351 OA
BRANCH  21  22
HETATM   22  C   UNL     1       4.372  26.635  47.567  1.00  0.00     0.175 C 
BRANCH  22  23
HETATM   23  C   UNL     1       2.877  26.318  47.532  1.00  0.00     0.026 C 
BRANCH  23  24
HETATM   24  C   UNL     1       2.016  27.574  47.365  1.00  0.00    -0.002 C 
HETATM   25  C   UNL     1       0.754  27.279  46.569  1.00  0.00     0.005 C 
ENDBRANCH  23  24
ENDBRANCH  22  23
ENDBRANCH  21  22
ENDBRANCH  17  21
ENDBRANCH  12  15
ENDBRANCH   9  11
ENDBRANCH   7   9
ENDBRANCH   1   7
BRANCH   3  26
HETATM   26  C   UNL     1       6.704  25.936  55.688  1.00  0.00     0.183 A 
HETATM   27  O   UNL     1       6.943  25.874  54.340  1.00  0.00    -0.289 OA
HETATM   28  C   UNL     1       7.214  24.561  54.116  1.00  0.00     0.106 A 
HETATM   29  C   UNL     1       7.119  23.895  55.325  1.00  0.00     0.094 A 
HETATM   30  C   UNL     1       7.553  23.974  52.908  1.00  0.00     0.040 A 
HETATM   31  N   UNL     1       6.728  24.771  56.314  1.00  0.00    -0.221 NA
HETATM   32  C   UNL     1       7.434  22.528  55.362  1.00  0.00     0.041 A 
HETATM   33  C   UNL     1       7.847  21.886  54.170  1.00  0.00    -0.056 A 
HETATM   34  C   UNL     1       7.867  22.610  52.962  1.00  0.00     0.010 A 
BRANCH  33  35
HETATM   35  C   UNL     1       8.232  20.423  54.250  1.00  0.00     0.034 C 
HETATM   36  C   UNL     1       8.791  19.944  55.587  1.00  0.00     0.010 C 
ENDBRANCH  33  35
ENDBRANCH   3  26
BRANCH   4  37
HETATM   37  O   UNL     1       8.325  27.142  57.793  1.00  0.00    -0.360 OA
HETATM   38  H   UNL     1       8.021  26.263  58.099  1.00  0.00     0.217 HD
ENDBRANCH   4  37
TORSDOF 11
ENDMDL
MODEL 10
REMARK VINA RESULT:      -8.9      3.310      5.439
REMARK  11 active torsions:
REMARK  status: ('A' for Active; 'I' for Inactive)
REMARK    1  A    between atoms: C_2  and  C_3 
REMARK    2  A    between atoms: C_3  and  C_4 
REMARK    3  A    between atoms: C_4  and  O_5 
REMARK    4  A    between atoms: O_5  and  C_6 
REMARK    5  A    between atoms: C_8  and  C_9 
REMARK       I    between atoms: C_9  and  N_10 
REMARK    6  A    between atoms: N_10  and  C_11 
REMARK    7  A    between atoms: C_11  and  N_12 
REMARK    8  A    between atoms: N_12  and  C_13 
REMARK    9  A    between atoms: C_15  and  C_16 
REMARK   10  A    between atoms: C_23  and  C_24 
REMARK   11  A    between atoms: C_27  and  O_28 
ROOT
HETATM    1  C   UNL     1       4.024  29.624  54.955  1.00  0.00     0.035 A 
HETATM    2  C   UNL     1       4.817  28.478  55.041  1.00  0.00     0.048 A 
HETATM    3  C   UNL     1       4.977  27.607  53.952  1.00  0.00     0.052 A 
HETATM    4  C   UNL     1       4.323  27.915  52.756  1.00  0.00     0.080 A 
HETATM    5  C   UNL     1       3.597  29.102  52.630  1.00  0.00     0.040 A 
HETATM    6  C   UNL     1       3.464  29.967  53.723  1.00  0.00     0.032 A 
ENDROOT
BRANCH   1   7
HETATM    7  N   UNL     1       3.814  30.468  56.066  1.00  0.00    -0.333 N 
HETATM    8  H   UNL     1       3.171  30.132  56.783  1.00  0.00     0.168 HD
BRANCH   7   9
HETATM    9  C   UNL     1       4.533  31.585  56.425  1.00  0.00     0.179 C 
HETATM   10  S   UNL     1       4.373  33.157  55.868  1.00  0.00    -0.040 SA
BRANCH   9  11
HETATM   11  N   UNL     1       5.519  31.388  57.366  1.00  0.00    -0.299 N 
HETATM   12  C   UNL     1       5.520  31.689  58.719  1.00  0.00     0.257 C 
HETATM   13  O   UNL     1       4.516  31.769  59.413  1.00  0.00    -0.267 OA
HETATM   14  H   UNL     1       6.395  31.097  56.950  1.00  0.00     0.171 HD
BRANCH  12  15
HETATM   15  C   UNL     1       6.884  31.784  59.304  1.00  0.00     0.035 A 
HETATM   16  C   UNL     1       8.002  31.646  58.473  1.00  0.00     0.053 A 
HETATM   17  C   UNL     1       9.279  31.817  59.010  1.00  0.00     0.069 A 
HETATM   18  C   UNL     1       9.426  32.094  60.373  1.00  0.00     0.037 A 
HETATM   19  C   UNL     1       8.315  32.196  61.209  1.00  0.00     0.004 A 
HETATM   20  C   UNL     1       7.040  32.041  60.675  1.00  0.00     0.017 A 
BRANCH  17  21
HETATM   21  O   UNL     1      10.458  31.768  58.325  1.00  0.00    -0.351 OA
BRANCH  21  22
HETATM   22  C   UNL     1      11.076  30.494  58.151  1.00  0.00     0.175 C 
BRANCH  22  23
HETATM   23  C   UNL     1      10.707  29.967  56.764  1.00  0.00     0.026 C 
BRANCH  23  24
HETATM   24  C   UNL     1       9.672  28.840  56.822  1.00  0.00    -0.002 C 
HETATM   25  C   UNL     1       8.500  29.115  55.892  1.00  0.00     0.005 C 
ENDBRANCH  23  24
ENDBRANCH  22  23
ENDBRANCH  21  22
ENDBRANCH  17  21
ENDBRANCH  12  15
ENDBRANCH   9  11
ENDBRANCH   7   9
ENDBRANCH   1   7
BRANCH   3  26
HETATM   26  C   UNL     1       5.787  26.409  54.109  1.00  0.00     0.183 A 
HETATM   27  O   UNL     1       6.463  26.297  55.297  1.00  0.00    -0.289 OA
HETATM   28  C   UNL     1       7.053  25.075  55.223  1.00  0.00     0.106 A 
HETATM   29  C   UNL     1       6.719  24.514  54.004  1.00  0.00     0.094 A 
HETATM   30  C   UNL     1       7.833  24.466  56.193  1.00  0.00     0.040 A 
HETATM   31  N   UNL     1       5.962  25.403  53.270  1.00  0.00    -0.221 NA
HETATM   32  C   UNL     1       7.152  23.209  53.727  1.00  0.00     0.041 A 
HETATM   33  C   UNL     1       7.901  22.512  54.704  1.00  0.00    -0.056 A 
HETATM   34  C   UNL     1       8.256  23.162  55.902  1.00  0.00     0.010 A 
BRANCH  33  35
HETATM   35  C   UNL     1       8.310  21.085  54.400  1.00  0.00     0.034 C 
HETATM   36  C   UNL     1       8.144  20.629  52.954  1.00  0.00     0.010 C 
ENDBRANCH  33  35
ENDBRANCH   3  26
BRANCH   4  37
HETATM   37  O   UNL     1       4.361  27.096  51.659  1.00  0.00    -0.360 OA
HETATM   38  H   UNL     1       4.581  26.190  51.958  1.00  0.00     0.217 HD
ENDBRANCH   4  37
TORSDOF 11
ENDMDL
