MODEL 1
REMARK VINA RESULT:      -8.4      0.000      0.000
REMARK  4 active torsions:
REMARK  status: ('A' for Active; 'I' for Inactive)
REMARK    1  A    between atoms: C_2  and  N_3 
REMARK    2  A    between atoms: C_11  and  N_12 
REMARK    3  A    between atoms: N_12  and  C_15 
REMARK    4  A    between atoms: C_15  and  C_16 
ROOT
HETATM    1  N   UNL     1       5.311  25.716  51.830  1.00  0.00    -0.067 N 
HETATM    2  H   UNL     1       4.739  25.368  51.045  1.00  0.00     0.280 HD
HETATM    3  C   UNL     1       6.740  25.362  51.457  1.00  0.00     0.238 C 
HETATM    4  C   UNL     1       7.680  25.639  52.626  1.00  0.00     0.066 C 
HETATM    5  C   UNL     1       7.280  24.879  53.916  1.00  0.00     0.073 C 
HETATM    6  O   UNL     1       7.391  23.487  53.601  1.00  0.00    -0.339 OA
HETATM    7  C   UNL     1       7.680  22.599  54.594  1.00  0.00     0.078 A 
HETATM    8  C   UNL     1       8.112  22.951  55.877  1.00  0.00     0.006 A 
HETATM    9  C   UNL     1       8.246  24.388  56.280  1.00  0.00     0.224 C 
HETATM   10  C   UNL     1       8.260  25.291  55.039  1.00  0.00     0.076 C 
HETATM   11  C   UNL     1       7.564  21.256  54.227  1.00  0.00     0.037 A 
HETATM   12  C   UNL     1       7.879  20.248  55.134  1.00  0.00     0.003 A 
HETATM   13  C   UNL     1       8.332  20.580  56.405  1.00  0.00     0.001 A 
HETATM   14  C   UNL     1       8.458  21.921  56.772  1.00  0.00     0.012 A 
HETATM   15  C   UNL     1       5.797  25.170  54.226  1.00  0.00     0.066 C 
HETATM   16  C   UNL     1       4.895  24.885  53.021  1.00  0.00     0.238 C 
ENDROOT
BRANCH   9  17
HETATM   17  N   UNL     1       7.168  24.848  57.219  1.00  0.00    -0.063 N 
HETATM   18  H   UNL     1       6.367  25.216  56.692  1.00  0.00     0.278 HD
HETATM   19  H   UNL     1       6.825  24.066  57.785  1.00  0.00     0.278 HD
BRANCH  17  20
HETATM   20  C   UNL     1       7.520  25.935  58.193  1.00  0.00     0.274 C 
BRANCH  20  21
HETATM   21  C   UNL     1       7.292  27.238  57.530  1.00  0.00     0.004 A 
HETATM   22  C   UNL     1       6.122  27.737  56.987  1.00  0.00     0.122 A 
HETATM   23  N   UNL     1       6.419  28.990  56.521  1.00  0.00    -0.285 N 
HETATM   24  C   UNL     1       5.541  29.903  55.825  1.00  0.00     0.179 C 
HETATM   25  N   UNL     1       7.679  29.361  56.804  1.00  0.00    -0.185 NA
HETATM   26  C   UNL     1       8.230  28.278  57.342  1.00  0.00     0.149 A 
ENDBRANCH  20  21
ENDBRANCH  17  20
ENDBRANCH   9  17
BRANCH   1  27
HETATM   27  C   UNL     1       4.991  27.221  51.893  1.00  0.00     0.180 C 
HETATM   28  C   UNL     1       3.867  27.489  52.895  1.00  0.00     0.039 C 
HETATM   29  C   UNL     1       4.564  27.723  50.513  1.00  0.00     0.039 C 
ENDBRANCH   1  27
TORSDOF 4
ENDMDL
MODEL 2
REMARK VINA RESULT:      -8.2      1.905      5.106
REMARK  4 active torsions:
REMARK  status: ('A' for Active; 'I' for Inactive)
REMARK    1  A    between atoms: C_2  and  N_3 
REMARK    2  A    between atoms: C_11  and  N_12 
REMARK    3  A    between atoms: N_12  and  C_15 
REMARK    4  A    between atoms: C_15  and  C_16 
ROOT
HETATM    1  N   UNL     1       7.180  28.222  57.027  1.00  0.00    -0.067 N 
HETATM    2  H   UNL     1       7.842  28.515  57.763  1.00  0.00     0.280 HD
HETATM    3  C   UNL     1       6.459  27.019  57.610  1.00  0.00     0.238 C 
HETATM    4  C   UNL     1       5.587  26.354  56.549  1.00  0.00     0.066 C 
HETATM    5  C   UNL     1       6.389  25.918  55.296  1.00  0.00     0.073 C 
HETATM    6  O   UNL     1       7.327  24.938  55.753  1.00  0.00    -0.339 OA
HETATM    7  C   UNL     1       7.752  23.969  54.893  1.00  0.00     0.078 A 
HETATM    8  C   UNL     1       7.175  23.700  53.648  1.00  0.00     0.006 A 
HETATM    9  C   UNL     1       6.034  24.522  53.131  1.00  0.00     0.224 C 
HETATM   10  C   UNL     1       5.394  25.324  54.273  1.00  0.00     0.076 C 
HETATM   11  C   UNL     1       8.812  23.192  55.368  1.00  0.00     0.037 A 
HETATM   12  C   UNL     1       9.308  22.137  54.607  1.00  0.00     0.003 A 
HETATM   13  C   UNL     1       8.730  21.840  53.379  1.00  0.00     0.001 A 
HETATM   14  C   UNL     1       7.665  22.609  52.906  1.00  0.00     0.012 A 
HETATM   15  C   UNL     1       7.194  27.126  54.775  1.00  0.00     0.066 C 
HETATM   16  C   UNL     1       8.046  27.764  55.876  1.00  0.00     0.238 C 
ENDROOT
BRANCH   9  17
HETATM   17  N   UNL     1       6.426  25.457  52.023  1.00  0.00    -0.063 N 
HETATM   18  H   UNL     1       6.781  26.341  52.409  1.00  0.00     0.278 HD
HETATM   19  H   UNL     1       7.175  25.051  51.456  1.00  0.00     0.278 HD
BRANCH  17  20
HETATM   20  C   UNL     1       5.354  25.865  51.054  1.00  0.00     0.274 C 
BRANCH  20  21
HETATM   21  C   UNL     1       5.466  27.323  50.831  1.00  0.00     0.004 A 
HETATM   22  C   UNL     1       5.285  28.034  49.658  1.00  0.00     0.122 A 
HETATM   23  N   UNL     1       5.471  29.352  49.975  1.00  0.00    -0.285 N 
HETATM   24  C   UNL     1       5.436  30.488  49.081  1.00  0.00     0.179 C 
HETATM   25  N   UNL     1       5.675  29.544  51.288  1.00  0.00    -0.185 NA
HETATM   26  C   UNL     1       5.751  28.317  51.794  1.00  0.00     0.149 A 
ENDBRANCH  20  21
ENDBRANCH  17  20
ENDBRANCH   9  17
BRANCH   1  27
HETATM   27  C   UNL     1       6.309  29.468  56.781  1.00  0.00     0.180 C 
HETATM   28  C   UNL     1       6.830  30.655  57.594  1.00  0.00     0.039 C 
HETATM   29  C   UNL     1       4.861  29.181  57.184  1.00  0.00     0.039 C 
ENDBRANCH   1  27
TORSDOF 4
ENDMDL
MODEL 3
REMARK VINA RESULT:      -7.9      2.616      6.145
REMARK  4 active torsions:
REMARK  status: ('A' for Active; 'I' for Inactive)
REMARK    1  A    between atoms: C_2  and  N_3 
REMARK    2  A    between atoms: C_11  and  N_12 
REMARK    3  A    between atoms: N_12  and  C_15 
REMARK    4  A    between atoms: C_15  and  C_16 
ROOT
HETATM    1  N   UNL     1       6.647  24.782  53.772  1.00  0.00    -0.067 N 
HETATM    2  H   UNL     1       6.303  24.343  52.904  1.00  0.00     0.280 HD
HETATM    3  C   UNL     1       5.441  24.818  54.694  1.00  0.00     0.238 C 
HETATM    4  C   UNL     1       5.753  25.630  55.948  1.00  0.00     0.066 C 
HETATM    5  C   UNL     1       6.205  27.078  55.634  1.00  0.00     0.073 C 
HETATM    6  O   UNL     1       5.092  27.704  54.987  1.00  0.00    -0.339 OA
HETATM    7  C   UNL     1       4.925  29.052  55.102  1.00  0.00     0.078 A 
HETATM    8  C   UNL     1       5.623  29.867  55.999  1.00  0.00     0.006 A 
HETATM    9  C   UNL     1       6.680  29.301  56.897  1.00  0.00     0.224 C 
HETATM   10  C   UNL     1       6.555  27.772  56.970  1.00  0.00     0.076 C 
HETATM   11  C   UNL     1       3.937  29.590  54.274  1.00  0.00     0.037 A 
HETATM   12  C   UNL     1       3.633  30.948  54.330  1.00  0.00     0.003 A 
HETATM   13  C   UNL     1       4.300  31.767  55.232  1.00  0.00     0.001 A 
HETATM   14  C   UNL     1       5.281  31.231  56.068  1.00  0.00     0.012 A 
HETATM   15  C   UNL     1       7.365  27.027  54.619  1.00  0.00     0.066 C 
HETATM   16  C   UNL     1       7.008  26.197  53.382  1.00  0.00     0.238 C 
ENDROOT
BRANCH   9  17
HETATM   17  N   UNL     1       8.076  29.667  56.482  1.00  0.00    -0.063 N 
HETATM   18  H   UNL     1       8.321  29.201  55.600  1.00  0.00     0.278 HD
HETATM   19  H   UNL     1       8.152  30.676  56.323  1.00  0.00     0.278 HD
BRANCH  17  20
HETATM   20  C   UNL     1       9.190  29.316  57.425  1.00  0.00     0.274 C 
BRANCH  20  21
HETATM   21  C   UNL     1       9.237  30.347  58.485  1.00  0.00     0.004 A 
HETATM   22  C   UNL     1       8.604  30.352  59.715  1.00  0.00     0.122 A 
HETATM   23  N   UNL     1       8.986  31.508  60.340  1.00  0.00    -0.285 N 
HETATM   24  C   UNL     1       8.556  31.997  61.630  1.00  0.00     0.179 C 
HETATM   25  N   UNL     1       9.888  32.205  59.630  1.00  0.00    -0.185 NA
HETATM   26  C   UNL     1       9.982  31.548  58.478  1.00  0.00     0.149 A 
ENDBRANCH  20  21
ENDBRANCH  17  20
ENDBRANCH   9  17
BRANCH   1  27
HETATM   27  C   UNL     1       7.806  23.873  54.224  1.00  0.00     0.180 C 
HETATM   28  C   UNL     1       8.356  23.077  53.039  1.00  0.00     0.039 C 
HETATM   29  C   UNL     1       7.318  22.901  55.299  1.00  0.00     0.039 C 
ENDBRANCH   1  27
TORSDOF 4
ENDMDL
MODEL 4
REMARK VINA RESULT:      -7.9      2.316      5.834
REMARK  4 active torsions:
REMARK  status: ('A' for Active; 'I' for Inactive)
REMARK    1  A    between atoms: C_2  and  N_3 
REMARK    2  A    between atoms: C_11  and  N_12 
REMARK    3  A    between atoms: N_12  and  C_15 
REMARK    4  A    between atoms: C_15  and  C_16 
ROOT
HETATM    1  N   UNL     1       4.275  29.033  51.207  1.00  0.00    -0.067 N 
HETATM    2  H   UNL     1       4.179  29.994  50.844  1.00  0.00     0.280 HD
HETATM    3  C   UNL     1       3.467  29.020  52.493  1.00  0.00     0.238 C 
HETATM    4  C   UNL     1       3.686  27.711  53.247  1.00  0.00     0.066 C 
HETATM    5  C   UNL     1       5.177  27.444  53.572  1.00  0.00     0.073 C 
HETATM    6  O   UNL     1       5.586  28.508  54.438  1.00  0.00    -0.339 OA
HETATM    7  C   UNL     1       6.583  28.288  55.341  1.00  0.00     0.078 A 
HETATM    8  C   UNL     1       7.102  27.030  55.665  1.00  0.00     0.006 A 
HETATM    9  C   UNL     1       6.610  25.792  54.980  1.00  0.00     0.224 C 
HETATM   10  C   UNL     1       5.277  26.068  54.270  1.00  0.00     0.076 C 
HETATM   11  C   UNL     1       7.045  29.436  55.991  1.00  0.00     0.037 A 
HETATM   12  C   UNL     1       8.028  29.342  56.972  1.00  0.00     0.003 A 
HETATM   13  C   UNL     1       8.537  28.098  57.323  1.00  0.00     0.001 A 
HETATM   14  C   UNL     1       8.071  26.948  56.683  1.00  0.00     0.012 A 
HETATM   15  C   UNL     1       5.999  27.560  52.272  1.00  0.00     0.066 C 
HETATM   16  C   UNL     1       5.741  28.884  51.548  1.00  0.00     0.238 C 
ENDROOT
BRANCH   9  17
HETATM   17  N   UNL     1       7.591  25.225  53.994  1.00  0.00    -0.063 N 
HETATM   18  H   UNL     1       7.883  25.948  53.324  1.00  0.00     0.278 HD
HETATM   19  H   UNL     1       8.434  24.897  54.472  1.00  0.00     0.278 HD
BRANCH  17  20
HETATM   20  C   UNL     1       7.129  24.078  53.144  1.00  0.00     0.274 C 
BRANCH  20  21
HETATM   21  C   UNL     1       7.659  22.827  53.731  1.00  0.00     0.004 A 
HETATM   22  C   UNL     1       8.076  22.592  55.029  1.00  0.00     0.122 A 
HETATM   23  N   UNL     1       8.450  21.276  55.079  1.00  0.00    -0.285 N 
HETATM   24  C   UNL     1       9.003  20.559  56.206  1.00  0.00     0.179 C 
HETATM   25  N   UNL     1       8.221  20.630  53.925  1.00  0.00    -0.185 NA
HETATM   26  C   UNL     1       7.818  21.580  53.087  1.00  0.00     0.149 A 
ENDBRANCH  20  21
ENDBRANCH  17  20
ENDBRANCH   9  17
BRANCH   1  27
HETATM   27  C   UNL     1       3.738  28.142  50.072  1.00  0.00     0.180 C 
HETATM   28  C   UNL     1       4.698  28.154  48.881  1.00  0.00     0.039 C 
HETATM   29  C   UNL     1       2.368  28.648  49.616  1.00  0.00     0.039 C 
ENDBRANCH   1  27
TORSDOF 4
ENDMDL
MODEL 5
REMARK VINA RESULT:      -7.7      9.042     12.607
REMARK  4 active torsions:
REMARK  status: ('A' for Active; 'I' for Inactive)
REMARK    1  A    between atoms: C_2  and  N_3 
REMARK    2  A    between atoms: C_11  and  N_12 
REMARK    3  A    between atoms: N_12  and  C_15 
REMARK    4  A    between atoms: C_15  and  C_16 
ROOT
HETATM    1  N   UNL     1       2.864  35.994  60.325  1.00  0.00    -0.067 N 
HETATM    2  H   UNL     1       2.322  36.858  60.164  1.00  0.00     0.280 HD
HETATM    3  C   UNL     1       1.955  35.115  61.166  1.00  0.00     0.238 C 
HETATM    4  C   UNL     1       2.710  33.882  61.654  1.00  0.00     0.066 C 
HETATM    5  C   UNL     1       3.982  34.233  62.465  1.00  0.00     0.073 C 
HETATM    6  O   UNL     1       3.526  34.939  63.624  1.00  0.00    -0.339 OA
HETATM    7  C   UNL     1       4.257  34.877  64.773  1.00  0.00     0.078 A 
HETATM    8  C   UNL     1       5.311  33.988  65.000  1.00  0.00     0.006 A 
HETATM    9  C   UNL     1       5.762  33.035  63.935  1.00  0.00     0.224 C 
HETATM   10  C   UNL     1       4.691  32.912  62.842  1.00  0.00     0.076 C 
HETATM   11  C   UNL     1       3.841  35.757  65.775  1.00  0.00     0.037 A 
HETATM   12  C   UNL     1       4.472  35.760  67.017  1.00  0.00     0.003 A 
HETATM   13  C   UNL     1       5.506  34.866  67.267  1.00  0.00     0.001 A 
HETATM   14  C   UNL     1       5.917  33.979  66.271  1.00  0.00     0.012 A 
HETATM   15  C   UNL     1       4.847  35.206  61.637  1.00  0.00     0.066 C 
HETATM   16  C   UNL     1       4.046  36.423  61.165  1.00  0.00     0.238 C 
ENDROOT
BRANCH   9  17
HETATM   17  N   UNL     1       7.072  33.416  63.308  1.00  0.00    -0.063 N 
HETATM   18  H   UNL     1       6.918  33.828  62.380  1.00  0.00     0.278 HD
HETATM   19  H   UNL     1       7.553  34.119  63.876  1.00  0.00     0.278 HD
BRANCH  17  20
HETATM   20  C   UNL     1       8.072  32.319  63.081  1.00  0.00     0.274 C 
BRANCH  20  21
HETATM   21  C   UNL     1       8.329  32.225  61.626  1.00  0.00     0.004 A 
HETATM   22  C   UNL     1       9.481  31.819  60.978  1.00  0.00     0.122 A 
HETATM   23  N   UNL     1       9.209  31.880  59.638  1.00  0.00    -0.285 N 
HETATM   24  C   UNL     1      10.108  31.599  58.541  1.00  0.00     0.179 C 
HETATM   25  N   UNL     1       7.934  32.217  59.384  1.00  0.00    -0.185 NA
HETATM   26  C   UNL     1       7.423  32.502  60.578  1.00  0.00     0.149 A 
ENDBRANCH  20  21
ENDBRANCH  17  20
ENDBRANCH   9  17
BRANCH   1  27
HETATM   27  C   UNL     1       3.176  35.472  58.911  1.00  0.00     0.180 C 
HETATM   28  C   UNL     1       4.154  36.407  58.197  1.00  0.00     0.039 C 
HETATM   29  C   UNL     1       1.887  35.375  58.094  1.00  0.00     0.039 C 
ENDBRANCH   1  27
TORSDOF 4
ENDMDL
MODEL 6
REMARK VINA RESULT:      -7.5      2.081      6.059
REMARK  4 active torsions:
REMARK  status: ('A' for Active; 'I' for Inactive)
REMARK    1  A    between atoms: C_2  and  N_3 
REMARK    2  A    between atoms: C_11  and  N_12 
REMARK    3  A    between atoms: N_12  and  C_15 
REMARK    4  A    between atoms: C_15  and  C_16 
ROOT
HETATM    1  N   UNL     1       7.162  24.552  53.322  1.00  0.00    -0.067 N 
HETATM    2  H   UNL     1       7.834  24.012  52.753  1.00  0.00     0.280 HD
HETATM    3  C   UNL     1       5.850  24.465  52.562  1.00  0.00     0.238 C 
HETATM    4  C   UNL     1       4.811  25.391  53.185  1.00  0.00     0.066 C 
HETATM    5  C   UNL     1       5.276  26.868  53.244  1.00  0.00     0.073 C 
HETATM    6  O   UNL     1       5.451  27.278  51.884  1.00  0.00    -0.339 OA
HETATM    7  C   UNL     1       5.282  28.591  51.556  1.00  0.00     0.078 A 
HETATM    8  C   UNL     1       4.719  29.556  52.397  1.00  0.00     0.006 A 
HETATM    9  C   UNL     1       4.291  29.212  53.791  1.00  0.00     0.224 C 
HETATM   10  C   UNL     1       4.174  27.690  53.952  1.00  0.00     0.076 C 
HETATM   11  C   UNL     1       5.672  28.921  50.256  1.00  0.00     0.037 A 
HETATM   12  C   UNL     1       5.505  30.219  49.779  1.00  0.00     0.003 A 
HETATM   13  C   UNL     1       4.927  31.184  50.593  1.00  0.00     0.001 A 
HETATM   14  C   UNL     1       4.526  30.855  51.889  1.00  0.00     0.012 A 
HETATM   15  C   UNL     1       6.656  26.928  53.930  1.00  0.00     0.066 C 
HETATM   16  C   UNL     1       7.662  25.977  53.275  1.00  0.00     0.238 C 
ENDROOT
BRANCH   9  17
HETATM   17  N   UNL     1       5.207  29.757  54.849  1.00  0.00    -0.063 N 
HETATM   18  H   UNL     1       6.140  29.336  54.766  1.00  0.00     0.278 HD
HETATM   19  H   UNL     1       5.320  30.769  54.742  1.00  0.00     0.278 HD
BRANCH  17  20
HETATM   20  C   UNL     1       4.813  29.538  56.281  1.00  0.00     0.274 C 
BRANCH  20  21
HETATM   21  C   UNL     1       6.049  29.399  57.082  1.00  0.00     0.004 A 
HETATM   22  C   UNL     1       6.751  30.377  57.763  1.00  0.00     0.122 A 
HETATM   23  N   UNL     1       7.802  29.744  58.370  1.00  0.00    -0.285 N 
HETATM   24  C   UNL     1       8.854  30.340  59.162  1.00  0.00     0.179 C 
HETATM   25  N   UNL     1       7.774  28.412  58.194  1.00  0.00    -0.185 NA
HETATM   26  C   UNL     1       6.764  28.211  57.353  1.00  0.00     0.149 A 
ENDBRANCH  20  21
ENDBRANCH  17  20
ENDBRANCH   9  17
BRANCH   1  27
HETATM   27  C   UNL     1       7.185  23.858  54.696  1.00  0.00     0.180 C 
HETATM   28  C   UNL     1       8.268  24.468  55.587  1.00  0.00     0.039 C 
HETATM   29  C   UNL     1       7.462  22.363  54.522  1.00  0.00     0.039 C 
ENDBRANCH   1  27
TORSDOF 4
ENDMDL
MODEL 7
REMARK VINA RESULT:      -7.5      4.678      7.799
REMARK  4 active torsions:
REMARK  status: ('A' for Active; 'I' for Inactive)
REMARK    1  A    between atoms: C_2  and  N_3 
REMARK    2  A    between atoms: C_11  and  N_12 
REMARK    3  A    between atoms: N_12  and  C_15 
REMARK    4  A    between atoms: C_15  and  C_16 
ROOT
HETATM    1  N   UNL     1       7.490  26.910  56.014  1.00  0.00    -0.067 N 
HETATM    2  H   UNL     1       8.180  26.143  56.042  1.00  0.00     0.280 HD
HETATM    3  C   UNL     1       8.247  28.094  55.438  1.00  0.00     0.238 C 
HETATM    4  C   UNL     1       7.402  29.361  55.528  1.00  0.00     0.066 C 
HETATM    5  C   UNL     1       6.955  29.688  56.976  1.00  0.00     0.073 C 
HETATM    6  O   UNL     1       8.160  29.926  57.712  1.00  0.00    -0.339 OA
HETATM    7  C   UNL     1       8.131  30.767  58.785  1.00  0.00     0.078 A 
HETATM    8  C   UNL     1       7.066  31.616  59.104  1.00  0.00     0.006 A 
HETATM    9  C   UNL     1       5.812  31.623  58.284  1.00  0.00     0.224 C 
HETATM   10  C   UNL     1       6.057  30.945  56.928  1.00  0.00     0.076 C 
HETATM   11  C   UNL     1       9.298  30.772  59.553  1.00  0.00     0.037 A 
HETATM   12  C   UNL     1       9.417  31.625  60.648  1.00  0.00     0.003 A 
HETATM   13  C   UNL     1       8.377  32.490  60.965  1.00  0.00     0.001 A 
HETATM   14  C   UNL     1       7.214  32.495  60.193  1.00  0.00     0.012 A 
HETATM   15  C   UNL     1       6.278  28.442  57.582  1.00  0.00     0.066 C 
HETATM   16  C   UNL     1       7.159  27.196  57.461  1.00  0.00     0.238 C 
ENDROOT
BRANCH   9  17
HETATM   17  N   UNL     1       4.647  30.966  58.967  1.00  0.00    -0.063 N 
HETATM   18  H   UNL     1       4.381  30.106  58.472  1.00  0.00     0.278 HD
HETATM   19  H   UNL     1       4.893  30.701  59.925  1.00  0.00     0.278 HD
BRANCH  17  20
HETATM   20  C   UNL     1       3.375  31.756  59.075  1.00  0.00     0.274 C 
BRANCH  20  21
HETATM   21  C   UNL     1       3.382  32.463  60.374  1.00  0.00     0.004 A 
HETATM   22  C   UNL     1       2.970  33.753  60.658  1.00  0.00     0.122 A 
HETATM   23  N   UNL     1       3.149  33.926  62.004  1.00  0.00    -0.285 N 
HETATM   24  C   UNL     1       2.909  35.122  62.780  1.00  0.00     0.179 C 
HETATM   25  N   UNL     1       3.568  32.807  62.617  1.00  0.00    -0.185 NA
HETATM   26  C   UNL     1       3.784  31.947  61.627  1.00  0.00     0.149 A 
ENDBRANCH  20  21
ENDBRANCH  17  20
ENDBRANCH   9  17
BRANCH   1  27
HETATM   27  C   UNL     1       6.347  26.360  55.141  1.00  0.00     0.180 C 
HETATM   28  C   UNL     1       5.737  25.111  55.781  1.00  0.00     0.039 C 
HETATM   29  C   UNL     1       6.876  26.004  53.751  1.00  0.00     0.039 C 
ENDBRANCH   1  27
TORSDOF 4
ENDMDL
MODEL 8
REMARK VINA RESULT:      -7.3      2.294      3.673
REMARK  4 active torsions:
REMARK  status: ('A' for Active; 'I' for Inactive)
REMARK    1  A    between atoms: C_2  and  N_3 
REMARK    2  A    between atoms: C_11  and  N_12 
REMARK    3  A    between atoms: N_12  and  C_15 
REMARK    4  A    between atoms: C_15  and  C_16 
ROOT
HETATM    1  N   UNL     1       3.899  28.666  49.682  1.00  0.00    -0.067 N 
HETATM    2  H   UNL     1       3.663  28.346  48.730  1.00  0.00     0.280 HD
HETATM    3  C   UNL     1       5.387  28.966  49.635  1.00  0.00     0.238 C 
HETATM    4  C   UNL     1       5.917  29.257  51.036  1.00  0.00     0.066 C 
HETATM    5  C   UNL     1       5.655  28.101  52.034  1.00  0.00     0.073 C 
HETATM    6  O   UNL     1       6.382  26.976  51.528  1.00  0.00    -0.339 OA
HETATM    7  C   UNL     1       6.839  26.032  52.399  1.00  0.00     0.078 A 
HETATM    8  C   UNL     1       6.865  26.176  53.790  1.00  0.00     0.006 A 
HETATM    9  C   UNL     1       6.323  27.407  54.449  1.00  0.00     0.224 C 
HETATM   10  C   UNL     1       6.172  28.539  53.422  1.00  0.00     0.076 C 
HETATM   11  C   UNL     1       7.352  24.881  51.795  1.00  0.00     0.037 A 
HETATM   12  C   UNL     1       7.897  23.861  52.570  1.00  0.00     0.003 A 
HETATM   13  C   UNL     1       7.951  23.998  53.952  1.00  0.00     0.001 A 
HETATM   14  C   UNL     1       7.449  25.151  54.558  1.00  0.00     0.012 A 
HETATM   15  C   UNL     1       4.156  27.741  51.996  1.00  0.00     0.066 C 
HETATM   16  C   UNL     1       3.669  27.465  50.570  1.00  0.00     0.238 C 
ENDROOT
BRANCH   9  17
HETATM   17  N   UNL     1       5.010  27.186  55.144  1.00  0.00    -0.063 N 
HETATM   18  H   UNL     1       4.399  28.003  55.022  1.00  0.00     0.278 HD
HETATM   19  H   UNL     1       4.522  26.380  54.744  1.00  0.00     0.278 HD
BRANCH  17  20
HETATM   20  C   UNL     1       5.046  26.949  56.626  1.00  0.00     0.274 C 
BRANCH  20  21
HETATM   21  C   UNL     1       6.050  27.864  57.214  1.00  0.00     0.004 A 
HETATM   22  C   UNL     1       5.934  29.216  57.483  1.00  0.00     0.122 A 
HETATM   23  N   UNL     1       7.120  29.598  58.048  1.00  0.00    -0.285 N 
HETATM   24  C   UNL     1       7.512  30.926  58.464  1.00  0.00     0.179 C 
HETATM   25  N   UNL     1       7.958  28.565  58.238  1.00  0.00    -0.185 NA
HETATM   26  C   UNL     1       7.347  27.533  57.665  1.00  0.00     0.149 A 
ENDBRANCH  20  21
ENDBRANCH  17  20
ENDBRANCH   9  17
BRANCH   1  27
HETATM   27  C   UNL     1       2.981  29.881  49.913  1.00  0.00     0.180 C 
HETATM   28  C   UNL     1       1.515  29.446  49.944  1.00  0.00     0.039 C 
HETATM   29  C   UNL     1       3.177  30.904  48.793  1.00  0.00     0.039 C 
ENDBRANCH   1  27
TORSDOF 4
ENDMDL
MODEL 9
REMARK VINA RESULT:      -7.1      3.354      7.116
REMARK  4 active torsions:
REMARK  status: ('A' for Active; 'I' for Inactive)
REMARK    1  A    between atoms: C_2  and  N_3 
REMARK    2  A    between atoms: C_11  and  N_12 
REMARK    3  A    between atoms: N_12  and  C_15 
REMARK    4  A    between atoms: C_15  and  C_16 
ROOT
HETATM    1  N   UNL     1       3.531  31.867  51.261  1.00  0.00    -0.067 N 
HETATM    2  H   UNL     1       2.875  32.620  51.003  1.00  0.00     0.280 HD
HETATM    3  C   UNL     1       4.488  31.766  50.086  1.00  0.00     0.238 C 
HETATM    4  C   UNL     1       5.395  30.549  50.240  1.00  0.00     0.066 C 
HETATM    5  C   UNL     1       4.608  29.221  50.380  1.00  0.00     0.073 C 
HETATM    6  O   UNL     1       3.887  29.063  49.153  1.00  0.00    -0.339 OA
HETATM    7  C   UNL     1       3.587  27.808  48.713  1.00  0.00     0.078 A 
HETATM    8  C   UNL     1       4.125  26.629  49.240  1.00  0.00     0.006 A 
HETATM    9  C   UNL     1       5.068  26.662  50.403  1.00  0.00     0.224 C 
HETATM   10  C   UNL     1       5.626  28.080  50.597  1.00  0.00     0.076 C 
HETATM   11  C   UNL     1       2.712  27.765  47.624  1.00  0.00     0.037 A 
HETATM   12  C   UNL     1       2.364  26.547  47.047  1.00  0.00     0.003 A 
HETATM   13  C   UNL     1       2.908  25.368  47.543  1.00  0.00     0.001 A 
HETATM   14  C   UNL     1       3.790  25.408  48.624  1.00  0.00     0.012 A 
HETATM   15  C   UNL     1       3.571  29.375  51.512  1.00  0.00     0.066 C 
HETATM   16  C   UNL     1       2.690  30.612  51.317  1.00  0.00     0.238 C 
ENDROOT
BRANCH   9  17
HETATM   17  N   UNL     1       4.450  26.190  51.688  1.00  0.00    -0.063 N 
HETATM   18  H   UNL     1       4.646  26.856  52.445  1.00  0.00     0.278 HD
HETATM   19  H   UNL     1       3.432  26.126  51.596  1.00  0.00     0.278 HD
BRANCH  17  20
HETATM   20  C   UNL     1       4.898  24.860  52.220  1.00  0.00     0.274 C 
BRANCH  20  21
HETATM   21  C   UNL     1       5.633  25.093  53.483  1.00  0.00     0.004 A 
HETATM   22  C   UNL     1       6.516  24.253  54.136  1.00  0.00     0.122 A 
HETATM   23  N   UNL     1       6.948  24.935  55.242  1.00  0.00    -0.285 N 
HETATM   24  C   UNL     1       7.847  24.466  56.273  1.00  0.00     0.179 C 
HETATM   25  N   UNL     1       6.467  26.188  55.297  1.00  0.00    -0.185 NA
HETATM   26  C   UNL     1       5.613  26.260  54.281  1.00  0.00     0.149 A 
ENDBRANCH  20  21
ENDBRANCH  17  20
ENDBRANCH   9  17
BRANCH   1  27
HETATM   27  C   UNL     1       4.152  32.341  52.588  1.00  0.00     0.180 C 
HETATM   28  C   UNL     1       3.087  32.407  53.684  1.00  0.00     0.039 C 
HETATM   29  C   UNL     1       4.773  33.728  52.408  1.00  0.00     0.039 C 
ENDBRANCH   1  27
TORSDOF 4
ENDMDL
MODEL 10
REMARK VINA RESULT:      -6.8      9.609     13.687
REMARK  4 active torsions:
REMARK  status: ('A' for Active; 'I' for Inactive)
REMARK    1  A    between atoms: C_2  and  N_3 
REMARK    2  A    between atoms: C_11  and  N_12 
REMARK    3  A    between atoms: N_12  and  C_15 
REMARK    4  A    between atoms: C_15  and  C_16 
ROOT
HETATM    1  N   UNL     1       4.669  39.212  61.438  1.00  0.00    -0.067 N 
HETATM    2  H   UNL     1       4.493  40.189  61.719  1.00  0.00     0.280 HD
HETATM    3  C   UNL     1       3.325  38.519  61.580  1.00  0.00     0.238 C 
HETATM    4  C   UNL     1       3.480  37.012  61.390  1.00  0.00     0.066 C 
HETATM    5  C   UNL     1       4.494  36.380  62.377  1.00  0.00     0.073 C 
HETATM    6  O   UNL     1       3.951  36.591  63.684  1.00  0.00    -0.339 OA
HETATM    7  C   UNL     1       4.246  35.708  64.680  1.00  0.00     0.078 A 
HETATM    8  C   UNL     1       4.857  34.465  64.487  1.00  0.00     0.006 A 
HETATM    9  C   UNL     1       5.291  34.020  63.124  1.00  0.00     0.224 C 
HETATM   10  C   UNL     1       4.614  34.876  62.043  1.00  0.00     0.076 C 
HETATM   11  C   UNL     1       3.841  36.110  65.955  1.00  0.00     0.037 A 
HETATM   12  C   UNL     1       4.038  35.277  67.053  1.00  0.00     0.003 A 
HETATM   13  C   UNL     1       4.622  34.028  66.875  1.00  0.00     0.001 A 
HETATM   14  C   UNL     1       5.019  33.620  65.601  1.00  0.00     0.012 A 
HETATM   15  C   UNL     1       5.822  37.160  62.293  1.00  0.00     0.066 C 
HETATM   16  C   UNL     1       5.615  38.665  62.482  1.00  0.00     0.238 C 
ENDROOT
BRANCH   9  17
HETATM   17  N   UNL     1       6.779  34.057  62.929  1.00  0.00    -0.063 N 
HETATM   18  H   UNL     1       7.007  34.198  61.937  1.00  0.00     0.278 HD
HETATM   19  H   UNL     1       7.192  34.836  63.449  1.00  0.00     0.278 HD
BRANCH  17  20
HETATM   20  C   UNL     1       7.557  32.838  63.331  1.00  0.00     0.274 C 
BRANCH  20  21
HETATM   21  C   UNL     1       7.992  32.142  62.100  1.00  0.00     0.004 A 
HETATM   22  C   UNL     1       7.223  31.708  61.036  1.00  0.00     0.122 A 
HETATM   23  N   UNL     1       8.092  31.152  60.136  1.00  0.00    -0.285 N 
HETATM   24  C   UNL     1       7.771  30.514  58.879  1.00  0.00     0.179 C 
HETATM   25  N   UNL     1       9.375  31.276  60.512  1.00  0.00    -0.185 NA
HETATM   26  C   UNL     1       9.313  31.802  61.731  1.00  0.00     0.149 A 
ENDBRANCH  20  21
ENDBRANCH  17  20
ENDBRANCH   9  17
BRANCH   1  27
HETATM   27  C   UNL     1       5.215  39.323  60.002  1.00  0.00     0.180 C 
HETATM   28  C   UNL     1       6.272  40.425  59.914  1.00  0.00     0.039 C 
HETATM   29  C   UNL     1       4.075  39.642  59.033  1.00  0.00     0.039 C 
ENDBRANCH   1  27
TORSDOF 4
ENDMDL
