MODEL 1
REMARK VINA RESULT:      -9.1      0.000      0.000
REMARK  2 active torsions:
REMARK  status: ('A' for Active; 'I' for Inactive)
REMARK       I    between atoms: C_2  and  N_3 
REMARK    1  A    between atoms: N_3  and  C_4 
REMARK    2  A    between atoms: C_15  and  N_16 
REMARK       I    between atoms: N_16  and  C_17 
ROOT
HETATM    1  C   UNL     1       6.312  34.190  65.872  1.00  0.00     0.036 A 
HETATM    2  C   UNL     1       7.179  33.453  65.058  1.00  0.00     0.062 A 
HETATM    3  C   UNL     1       6.889  33.187  63.723  1.00  0.00     0.070 A 
HETATM    4  C   UNL     1       5.686  33.678  63.187  1.00  0.00    -0.006 A 
HETATM    5  C   UNL     1       4.806  34.419  63.990  1.00  0.00     0.016 A 
HETATM    6  C   UNL     1       5.121  34.673  65.324  1.00  0.00     0.030 A 
HETATM    7  N   UNL     1       7.758  32.474  62.982  1.00  0.00    -0.247 NA
HETATM    8  C   UNL     1       7.487  32.215  61.691  1.00  0.00     0.070 A 
HETATM    9  C   UNL     1       6.306  32.666  61.074  1.00  0.00    -0.006 A 
HETATM   10  C   UNL     1       5.404  33.406  61.845  1.00  0.00     0.027 A 
HETATM   11  C   UNL     1       8.392  31.478  60.931  1.00  0.00     0.062 A 
HETATM   12  C   UNL     1       8.161  31.180  59.585  1.00  0.00     0.036 A 
HETATM   13  C   UNL     1       6.983  31.635  58.987  1.00  0.00     0.030 A 
HETATM   14  C   UNL     1       6.059  32.375  59.725  1.00  0.00     0.016 A 
ENDROOT
BRANCH   1  15
HETATM   15  N   UNL     1       6.560  34.493  67.229  1.00  0.00    -0.327 N 
HETATM   16  C   UNL     1       5.732  34.259  68.311  1.00  0.00     0.218 C 
HETATM   17  C   UNL     1       6.341  34.714  69.614  1.00  0.00     0.117 C 
HETATM   18  O   UNL     1       4.608  33.772  68.287  1.00  0.00    -0.274 OA
HETATM   19  H   UNL     1       7.445  34.943  67.426  1.00  0.00     0.169 HD
ENDBRANCH   1  15
BRANCH  12  20
HETATM   20  N   UNL     1       9.044  30.439  58.769  1.00  0.00    -0.327 N 
HETATM   21  C   UNL     1      10.171  30.898  58.113  1.00  0.00     0.218 C 
HETATM   22  C   UNL     1      10.876  29.820  57.325  1.00  0.00     0.117 C 
HETATM   23  O   UNL     1      10.610  32.043  58.117  1.00  0.00    -0.274 OA
HETATM   24  H   UNL     1       8.818  29.460  58.653  1.00  0.00     0.169 HD
ENDBRANCH  12  20
TORSDOF 2
ENDMDL
MODEL 2
REMARK VINA RESULT:      -9.1      0.095      8.149
REMARK  2 active torsions:
REMARK  status: ('A' for Active; 'I' for Inactive)
REMARK       I    between atoms: C_2  and  N_3 
REMARK    1  A    between atoms: N_3  and  C_4 
REMARK    2  A    between atoms: C_15  and  N_16 
REMARK       I    between atoms: N_16  and  C_17 
ROOT
HETATM    1  C   UNL     1       8.123  31.165  59.566  1.00  0.00     0.036 A 
HETATM    2  C   UNL     1       8.364  31.439  60.917  1.00  0.00     0.062 A 
HETATM    3  C   UNL     1       7.466  32.164  61.695  1.00  0.00     0.070 A 
HETATM    4  C   UNL     1       6.284  32.632  61.093  1.00  0.00    -0.006 A 
HETATM    5  C   UNL     1       6.028  32.366  59.740  1.00  0.00     0.016 A 
HETATM    6  C   UNL     1       6.943  31.634  58.984  1.00  0.00     0.030 A 
HETATM    7  N   UNL     1       7.745  32.399  62.990  1.00  0.00    -0.247 NA
HETATM    8  C   UNL     1       6.881  33.098  63.747  1.00  0.00     0.070 A 
HETATM    9  C   UNL     1       5.676  33.603  63.228  1.00  0.00    -0.006 A 
HETATM   10  C   UNL     1       5.388  33.359  61.882  1.00  0.00     0.027 A 
HETATM   11  C   UNL     1       7.176  33.335  65.088  1.00  0.00     0.062 A 
HETATM   12  C   UNL     1       6.314  34.054  65.922  1.00  0.00     0.036 A 
HETATM   13  C   UNL     1       5.121  34.550  65.390  1.00  0.00     0.030 A 
HETATM   14  C   UNL     1       4.801  34.327  64.051  1.00  0.00     0.016 A 
ENDROOT
BRANCH   1  15
HETATM   15  N   UNL     1       8.997  30.429  58.736  1.00  0.00    -0.327 N 
HETATM   16  C   UNL     1      10.143  30.881  58.108  1.00  0.00     0.218 C 
HETATM   17  C   UNL     1      10.825  29.800  57.304  1.00  0.00     0.117 C 
HETATM   18  O   UNL     1      10.597  32.019  58.130  1.00  0.00    -0.274 OA
HETATM   19  H   UNL     1       8.745  29.462  58.578  1.00  0.00     0.169 HD
ENDBRANCH   1  15
BRANCH  12  20
HETATM   20  N   UNL     1       6.564  34.322  67.286  1.00  0.00    -0.327 N 
HETATM   21  C   UNL     1       5.696  34.158  68.349  1.00  0.00     0.218 C 
HETATM   22  C   UNL     1       6.304  34.551  69.674  1.00  0.00     0.117 C 
HETATM   23  O   UNL     1       4.541  33.749  68.301  1.00  0.00    -0.274 OA
HETATM   24  H   UNL     1       7.485  34.679  67.502  1.00  0.00     0.169 HD
ENDBRANCH  12  20
TORSDOF 2
ENDMDL
MODEL 3
REMARK VINA RESULT:      -8.9      6.399      9.672
REMARK  2 active torsions:
REMARK  status: ('A' for Active; 'I' for Inactive)
REMARK       I    between atoms: C_2  and  N_3 
REMARK    1  A    between atoms: N_3  and  C_4 
REMARK    2  A    between atoms: C_15  and  N_16 
REMARK       I    between atoms: N_16  and  C_17 
ROOT
HETATM    1  C   UNL     1       7.384  29.365  58.246  1.00  0.00     0.036 A 
HETATM    2  C   UNL     1       7.868  28.163  57.718  1.00  0.00     0.062 A 
HETATM    3  C   UNL     1       7.251  27.528  56.643  1.00  0.00     0.070 A 
HETATM    4  C   UNL     1       6.108  28.122  56.080  1.00  0.00    -0.006 A 
HETATM    5  C   UNL     1       5.611  29.327  56.598  1.00  0.00     0.016 A 
HETATM    6  C   UNL     1       6.249  29.943  57.674  1.00  0.00     0.030 A 
HETATM    7  N   UNL     1       7.758  26.374  56.172  1.00  0.00    -0.247 NA
HETATM    8  C   UNL     1       7.169  25.756  55.133  1.00  0.00     0.070 A 
HETATM    9  C   UNL     1       6.022  26.278  54.509  1.00  0.00    -0.006 A 
HETATM   10  C   UNL     1       5.497  27.477  55.000  1.00  0.00     0.027 A 
HETATM   11  C   UNL     1       7.701  24.563  54.650  1.00  0.00     0.062 A 
HETATM   12  C   UNL     1       7.130  23.878  53.572  1.00  0.00     0.036 A 
HETATM   13  C   UNL     1       5.990  24.410  52.964  1.00  0.00     0.030 A 
HETATM   14  C   UNL     1       5.437  25.603  53.428  1.00  0.00     0.016 A 
ENDROOT
BRANCH   1  15
HETATM   15  N   UNL     1       7.974  30.052  59.329  1.00  0.00    -0.327 N 
HETATM   16  C   UNL     1       9.029  30.945  59.288  1.00  0.00     0.218 C 
HETATM   17  C   UNL     1       9.382  31.486  60.652  1.00  0.00     0.117 C 
HETATM   18  O   UNL     1       9.672  31.282  58.301  1.00  0.00    -0.274 OA
HETATM   19  H   UNL     1       7.582  29.857  60.241  1.00  0.00     0.169 HD
ENDBRANCH   1  15
BRANCH  12  20
HETATM   20  N   UNL     1       7.628  22.667  53.043  1.00  0.00    -0.327 N 
HETATM   21  C   UNL     1       7.854  21.482  53.719  1.00  0.00     0.218 C 
HETATM   22  C   UNL     1       8.397  20.389  52.830  1.00  0.00     0.117 C 
HETATM   23  O   UNL     1       7.666  21.268  54.911  1.00  0.00    -0.274 OA
HETATM   24  H   UNL     1       7.845  22.675  52.055  1.00  0.00     0.169 HD
ENDBRANCH  12  20
TORSDOF 2
ENDMDL
MODEL 4
REMARK VINA RESULT:      -8.9      6.384     11.755
REMARK  2 active torsions:
REMARK  status: ('A' for Active; 'I' for Inactive)
REMARK       I    between atoms: C_2  and  N_3 
REMARK    1  A    between atoms: N_3  and  C_4 
REMARK    2  A    between atoms: C_15  and  N_16 
REMARK       I    between atoms: N_16  and  C_17 
ROOT
HETATM    1  C   UNL     1       7.278  23.813  53.675  1.00  0.00     0.036 A 
HETATM    2  C   UNL     1       7.848  24.528  54.734  1.00  0.00     0.062 A 
HETATM    3  C   UNL     1       7.289  25.709  55.213  1.00  0.00     0.070 A 
HETATM    4  C   UNL     1       6.115  26.189  54.607  1.00  0.00    -0.006 A 
HETATM    5  C   UNL     1       5.530  25.485  53.544  1.00  0.00     0.016 A 
HETATM    6  C   UNL     1       6.110  24.303  53.084  1.00  0.00     0.030 A 
HETATM    7  N   UNL     1       7.876  26.358  56.236  1.00  0.00    -0.247 NA
HETATM    8  C   UNL     1       7.341  27.498  56.705  1.00  0.00     0.070 A 
HETATM    9  C   UNL     1       6.169  28.051  56.158  1.00  0.00    -0.006 A 
HETATM   10  C   UNL     1       5.560  27.376  55.096  1.00  0.00     0.027 A 
HETATM   11  C   UNL     1       7.954  28.162  57.765  1.00  0.00     0.062 A 
HETATM   12  C   UNL     1       7.440  29.350  58.294  1.00  0.00     0.036 A 
HETATM   13  C   UNL     1       6.276  29.886  57.738  1.00  0.00     0.030 A 
HETATM   14  C   UNL     1       5.642  29.242  56.676  1.00  0.00     0.016 A 
ENDROOT
BRANCH   1  15
HETATM   15  N   UNL     1       7.800  22.609  53.156  1.00  0.00    -0.327 N 
HETATM   16  C   UNL     1       7.893  21.385  53.793  1.00  0.00     0.218 C 
HETATM   17  C   UNL     1       8.505  20.322  52.914  1.00  0.00     0.117 C 
HETATM   18  O   UNL     1       7.566  21.127  54.945  1.00  0.00    -0.274 OA
HETATM   19  H   UNL     1       8.156  22.655  52.210  1.00  0.00     0.169 HD
ENDBRANCH   1  15
BRANCH  12  20
HETATM   20  N   UNL     1       8.021  30.063  59.366  1.00  0.00    -0.327 N 
HETATM   21  C   UNL     1       9.040  30.995  59.304  1.00  0.00     0.218 C 
HETATM   22  C   UNL     1       9.411  31.555  60.656  1.00  0.00     0.117 C 
HETATM   23  O   UNL     1       9.632  31.373  58.299  1.00  0.00    -0.274 OA
HETATM   24  H   UNL     1       7.646  29.860  60.283  1.00  0.00     0.169 HD
ENDBRANCH  12  20
TORSDOF 2
ENDMDL
MODEL 5
REMARK VINA RESULT:      -8.6      2.249      2.937
REMARK  2 active torsions:
REMARK  status: ('A' for Active; 'I' for Inactive)
REMARK       I    between atoms: C_2  and  N_3 
REMARK    1  A    between atoms: N_3  and  C_4 
REMARK    2  A    between atoms: C_15  and  N_16 
REMARK       I    between atoms: N_16  and  C_17 
ROOT
HETATM    1  C   UNL     1       5.402  33.396  64.670  1.00  0.00     0.036 A 
HETATM    2  C   UNL     1       5.278  32.839  63.392  1.00  0.00     0.062 A 
HETATM    3  C   UNL     1       6.388  32.469  62.637  1.00  0.00     0.070 A 
HETATM    4  C   UNL     1       7.667  32.666  63.186  1.00  0.00    -0.006 A 
HETATM    5  C   UNL     1       7.809  33.223  64.465  1.00  0.00     0.016 A 
HETATM    6  C   UNL     1       6.681  33.583  65.201  1.00  0.00     0.030 A 
HETATM    7  N   UNL     1       6.213  31.936  61.414  1.00  0.00    -0.247 NA
HETATM    8  C   UNL     1       7.280  31.575  60.680  1.00  0.00     0.070 A 
HETATM    9  C   UNL     1       8.596  31.736  61.149  1.00  0.00    -0.006 A 
HETATM   10  C   UNL     1       8.776  32.290  62.420  1.00  0.00     0.027 A 
HETATM   11  C   UNL     1       7.091  31.022  59.415  1.00  0.00     0.062 A 
HETATM   12  C   UNL     1       8.164  30.627  58.610  1.00  0.00     0.036 A 
HETATM   13  C   UNL     1       9.465  30.796  59.091  1.00  0.00     0.030 A 
HETATM   14  C   UNL     1       9.682  31.346  60.353  1.00  0.00     0.016 A 
ENDROOT
BRANCH   1  15
HETATM   15  N   UNL     1       4.311  33.782  65.478  1.00  0.00    -0.327 N 
HETATM   16  C   UNL     1       3.906  35.067  65.791  1.00  0.00     0.218 C 
HETATM   17  C   UNL     1       2.688  35.088  66.681  1.00  0.00     0.117 C 
HETATM   18  O   UNL     1       4.444  36.113  65.449  1.00  0.00    -0.274 OA
HETATM   19  H   UNL     1       3.771  33.027  65.881  1.00  0.00     0.169 HD
ENDBRANCH   1  15
BRANCH  12  20
HETATM   20  N   UNL     1       8.029  30.062  57.323  1.00  0.00    -0.327 N 
HETATM   21  C   UNL     1       8.068  28.723  56.982  1.00  0.00     0.218 C 
HETATM   22  C   UNL     1       7.890  28.485  55.501  1.00  0.00     0.117 C 
HETATM   23  O   UNL     1       8.233  27.775  57.741  1.00  0.00    -0.274 OA
HETATM   24  H   UNL     1       7.890  30.719  56.566  1.00  0.00     0.169 HD
ENDBRANCH  12  20
TORSDOF 2
ENDMDL
MODEL 6
REMARK VINA RESULT:      -8.5      2.445      8.478
REMARK  2 active torsions:
REMARK  status: ('A' for Active; 'I' for Inactive)
REMARK       I    between atoms: C_2  and  N_3 
REMARK    1  A    between atoms: N_3  and  C_4 
REMARK    2  A    between atoms: C_15  and  N_16 
REMARK       I    between atoms: N_16  and  C_17 
ROOT
HETATM    1  C   UNL     1       7.007  30.562  58.046  1.00  0.00     0.036 A 
HETATM    2  C   UNL     1       6.319  31.467  58.861  1.00  0.00     0.062 A 
HETATM    3  C   UNL     1       6.775  31.812  60.130  1.00  0.00     0.070 A 
HETATM    4  C   UNL     1       7.965  31.227  60.597  1.00  0.00    -0.006 A 
HETATM    5  C   UNL     1       8.667  30.317  59.792  1.00  0.00     0.016 A 
HETATM    6  C   UNL     1       8.189  29.990  58.524  1.00  0.00     0.030 A 
HETATM    7  N   UNL     1       6.076  32.690  60.873  1.00  0.00    -0.247 NA
HETATM    8  C   UNL     1       6.511  33.029  62.099  1.00  0.00     0.070 A 
HETATM    9  C   UNL     1       7.690  32.492  62.645  1.00  0.00    -0.006 A 
HETATM   10  C   UNL     1       8.416  31.580  61.872  1.00  0.00     0.027 A 
HETATM   11  C   UNL     1       5.783  33.939  62.861  1.00  0.00     0.062 A 
HETATM   12  C   UNL     1       6.190  34.330  64.141  1.00  0.00     0.036 A 
HETATM   13  C   UNL     1       7.363  33.786  64.669  1.00  0.00     0.030 A 
HETATM   14  C   UNL     1       8.111  32.872  63.928  1.00  0.00     0.016 A 
ENDROOT
BRANCH   1  15
HETATM   15  N   UNL     1       6.592  30.182  56.751  1.00  0.00    -0.327 N 
HETATM   16  C   UNL     1       5.723  29.162  56.409  1.00  0.00     0.218 C 
HETATM   17  C   UNL     1       5.511  29.060  54.918  1.00  0.00     0.117 C 
HETATM   18  O   UNL     1       5.175  28.373  57.170  1.00  0.00    -0.274 OA
HETATM   19  H   UNL     1       6.986  30.716  55.987  1.00  0.00     0.169 HD
ENDBRANCH   1  15
BRANCH  12  20
HETATM   20  N   UNL     1       5.490  35.247  64.955  1.00  0.00    -0.327 N 
HETATM   21  C   UNL     1       4.685  34.965  66.043  1.00  0.00     0.218 C 
HETATM   22  C   UNL     1       4.092  36.201  66.675  1.00  0.00     0.117 C 
HETATM   23  O   UNL     1       4.427  33.857  66.500  1.00  0.00    -0.274 OA
HETATM   24  H   UNL     1       5.591  36.222  64.705  1.00  0.00     0.169 HD
ENDBRANCH  12  20
TORSDOF 2
ENDMDL
MODEL 7
REMARK VINA RESULT:      -8.5      3.086      8.817
REMARK  2 active torsions:
REMARK  status: ('A' for Active; 'I' for Inactive)
REMARK       I    between atoms: C_2  and  N_3 
REMARK    1  A    between atoms: N_3  and  C_4 
REMARK    2  A    between atoms: C_15  and  N_16 
REMARK       I    between atoms: N_16  and  C_17 
ROOT
HETATM    1  C   UNL     1       6.766  29.991  56.593  1.00  0.00     0.036 A 
HETATM    2  C   UNL     1       6.239  30.884  57.532  1.00  0.00     0.062 A 
HETATM    3  C   UNL     1       6.840  31.094  58.770  1.00  0.00     0.070 A 
HETATM    4  C   UNL     1       8.012  30.379  59.076  1.00  0.00    -0.006 A 
HETATM    5  C   UNL     1       8.553  29.480  58.146  1.00  0.00     0.016 A 
HETATM    6  C   UNL     1       7.932  29.290  56.911  1.00  0.00     0.030 A 
HETATM    7  N   UNL     1       6.294  31.966  59.637  1.00  0.00    -0.247 NA
HETATM    8  C   UNL     1       6.869  32.175  60.833  1.00  0.00     0.070 A 
HETATM    9  C   UNL     1       8.042  31.503  61.223  1.00  0.00    -0.006 A 
HETATM   10  C   UNL     1       8.609  30.597  60.321  1.00  0.00     0.027 A 
HETATM   11  C   UNL     1       6.299  33.081  61.724  1.00  0.00     0.062 A 
HETATM   12  C   UNL     1       6.856  33.338  62.981  1.00  0.00     0.036 A 
HETATM   13  C   UNL     1       8.020  32.661  63.352  1.00  0.00     0.030 A 
HETATM   14  C   UNL     1       8.613  31.749  62.480  1.00  0.00     0.016 A 
ENDROOT
BRANCH   1  15
HETATM   15  N   UNL     1       6.200  29.746  55.323  1.00  0.00    -0.327 N 
HETATM   16  C   UNL     1       5.200  28.845  55.004  1.00  0.00     0.218 C 
HETATM   17  C   UNL     1       4.848  28.869  53.537  1.00  0.00     0.117 C 
HETATM   18  O   UNL     1       4.640  28.065  55.766  1.00  0.00    -0.274 OA
HETATM   19  H   UNL     1       6.581  30.288  54.559  1.00  0.00     0.169 HD
ENDBRANCH   1  15
BRANCH  12  20
HETATM   20  N   UNL     1       6.319  34.245  63.920  1.00  0.00    -0.327 N 
HETATM   21  C   UNL     1       5.279  34.025  64.805  1.00  0.00     0.218 C 
HETATM   22  C   UNL     1       4.969  35.228  65.664  1.00  0.00     0.117 C 
HETATM   23  O   UNL     1       4.627  32.995  64.933  1.00  0.00    -0.274 OA
HETATM   24  H   UNL     1       6.746  35.161  63.941  1.00  0.00     0.169 HD
ENDBRANCH  12  20
TORSDOF 2
ENDMDL
MODEL 8
REMARK VINA RESULT:      -8.4      3.205      4.644
REMARK  2 active torsions:
REMARK  status: ('A' for Active; 'I' for Inactive)
REMARK       I    between atoms: C_2  and  N_3 
REMARK    1  A    between atoms: N_3  and  C_4 
REMARK    2  A    between atoms: C_15  and  N_16 
REMARK       I    between atoms: N_16  and  C_17 
ROOT
HETATM    1  C   UNL     1       6.864  33.149  62.618  1.00  0.00     0.036 A 
HETATM    2  C   UNL     1       6.317  32.823  61.372  1.00  0.00     0.062 A 
HETATM    3  C   UNL     1       6.948  31.945  60.496  1.00  0.00     0.070 A 
HETATM    4  C   UNL     1       8.172  31.374  60.885  1.00  0.00    -0.006 A 
HETATM    5  C   UNL     1       8.734  31.690  62.131  1.00  0.00     0.016 A 
HETATM    6  C   UNL     1       8.080  32.572  62.991  1.00  0.00     0.030 A 
HETATM    7  N   UNL     1       6.378  31.664  59.309  1.00  0.00    -0.247 NA
HETATM    8  C   UNL     1       6.981  30.815  58.459  1.00  0.00     0.070 A 
HETATM    9  C   UNL     1       8.207  30.198  58.766  1.00  0.00    -0.006 A 
HETATM   10  C   UNL     1       8.798  30.492  59.999  1.00  0.00     0.027 A 
HETATM   11  C   UNL     1       6.384  30.527  57.234  1.00  0.00     0.062 A 
HETATM   12  C   UNL     1       6.965  29.651  56.312  1.00  0.00     0.036 A 
HETATM   13  C   UNL     1       8.184  29.048  56.632  1.00  0.00     0.030 A 
HETATM   14  C   UNL     1       8.803  29.318  57.852  1.00  0.00     0.016 A 
ENDROOT
BRANCH   1  15
HETATM   15  N   UNL     1       6.263  34.028  63.545  1.00  0.00    -0.327 N 
HETATM   16  C   UNL     1       5.226  33.754  64.417  1.00  0.00     0.218 C 
HETATM   17  C   UNL     1       4.854  34.946  65.265  1.00  0.00     0.117 C 
HETATM   18  O   UNL     1       4.611  32.700  64.524  1.00  0.00    -0.274 OA
HETATM   19  H   UNL     1       6.632  34.971  63.562  1.00  0.00     0.169 HD
ENDBRANCH   1  15
BRANCH  12  20
HETATM   20  N   UNL     1       6.403  29.325  55.058  1.00  0.00    -0.327 N 
HETATM   21  C   UNL     1       5.315  28.508  54.809  1.00  0.00     0.218 C 
HETATM   22  C   UNL     1       4.996  28.383  53.338  1.00  0.00     0.117 C 
HETATM   23  O   UNL     1       4.638  27.911  55.638  1.00  0.00    -0.274 OA
HETATM   24  H   UNL     1       6.855  29.738  54.253  1.00  0.00     0.169 HD
ENDBRANCH  12  20
TORSDOF 2
ENDMDL
MODEL 9
REMARK VINA RESULT:      -8.2      7.555     11.828
REMARK  2 active torsions:
REMARK  status: ('A' for Active; 'I' for Inactive)
REMARK       I    between atoms: C_2  and  N_3 
REMARK    1  A    between atoms: N_3  and  C_4 
REMARK    2  A    between atoms: C_15  and  N_16 
REMARK       I    between atoms: N_16  and  C_17 
ROOT
HETATM    1  C   UNL     1       7.857  23.423  55.451  1.00  0.00     0.036 A 
HETATM    2  C   UNL     1       7.109  24.539  55.061  1.00  0.00     0.062 A 
HETATM    3  C   UNL     1       7.135  25.733  55.777  1.00  0.00     0.070 A 
HETATM    4  C   UNL     1       7.942  25.807  56.926  1.00  0.00    -0.006 A 
HETATM    5  C   UNL     1       8.697  24.697  57.331  1.00  0.00     0.016 A 
HETATM    6  C   UNL     1       8.654  23.513  56.595  1.00  0.00     0.030 A 
HETATM    7  N   UNL     1       6.398  26.778  55.357  1.00  0.00    -0.247 NA
HETATM    8  C   UNL     1       6.420  27.934  56.043  1.00  0.00     0.070 A 
HETATM    9  C   UNL     1       7.198  28.096  57.204  1.00  0.00    -0.006 A 
HETATM   10  C   UNL     1       7.963  27.010  57.638  1.00  0.00     0.027 A 
HETATM   11  C   UNL     1       5.656  29.011  55.601  1.00  0.00     0.062 A 
HETATM   12  C   UNL     1       5.642  30.237  56.274  1.00  0.00     0.036 A 
HETATM   13  C   UNL     1       6.419  30.381  57.426  1.00  0.00     0.030 A 
HETATM   14  C   UNL     1       7.194  29.319  57.891  1.00  0.00     0.016 A 
ENDROOT
BRANCH   1  15
HETATM   15  N   UNL     1       7.870  22.193  54.758  1.00  0.00    -0.327 N 
HETATM   16  C   UNL     1       7.973  21.994  53.394  1.00  0.00     0.218 C 
HETATM   17  C   UNL     1       7.960  20.532  53.020  1.00  0.00     0.117 C 
HETATM   18  O   UNL     1       8.039  22.856  52.526  1.00  0.00    -0.274 OA
HETATM   19  H   UNL     1       7.784  21.363  55.331  1.00  0.00     0.169 HD
ENDBRANCH   1  15
BRANCH  12  20
HETATM   20  N   UNL     1       4.887  31.360  55.870  1.00  0.00    -0.327 N 
HETATM   21  C   UNL     1       3.582  31.665  56.211  1.00  0.00     0.218 C 
HETATM   22  C   UNL     1       3.094  32.951  55.589  1.00  0.00     0.117 C 
HETATM   23  O   UNL     1       2.837  31.008  56.929  1.00  0.00    -0.274 OA
HETATM   24  H   UNL     1       5.360  32.011  55.258  1.00  0.00     0.169 HD
ENDBRANCH  12  20
TORSDOF 2
ENDMDL
MODEL 10
REMARK VINA RESULT:      -8.2      7.179     10.775
REMARK  2 active torsions:
REMARK  status: ('A' for Active; 'I' for Inactive)
REMARK       I    between atoms: C_2  and  N_3 
REMARK    1  A    between atoms: N_3  and  C_4 
REMARK    2  A    between atoms: C_15  and  N_16 
REMARK       I    between atoms: N_16  and  C_17 
ROOT
HETATM    1  C   UNL     1       7.958  29.073  57.145  1.00  0.00     0.036 A 
HETATM    2  C   UNL     1       7.665  29.096  55.777  1.00  0.00     0.062 A 
HETATM    3  C   UNL     1       7.046  28.026  55.137  1.00  0.00     0.070 A 
HETATM    4  C   UNL     1       6.711  26.892  55.898  1.00  0.00    -0.006 A 
HETATM    5  C   UNL     1       6.998  26.853  57.270  1.00  0.00     0.016 A 
HETATM    6  C   UNL     1       7.617  27.940  57.888  1.00  0.00     0.030 A 
HETATM    7  N   UNL     1       6.785  28.099  53.819  1.00  0.00    -0.247 NA
HETATM    8  C   UNL     1       6.187  27.071  53.194  1.00  0.00     0.070 A 
HETATM    9  C   UNL     1       5.817  25.898  53.876  1.00  0.00    -0.006 A 
HETATM   10  C   UNL     1       6.090  25.823  55.246  1.00  0.00     0.027 A 
HETATM   11  C   UNL     1       5.918  27.155  51.830  1.00  0.00     0.062 A 
HETATM   12  C   UNL     1       5.296  26.116  51.130  1.00  0.00     0.036 A 
HETATM   13  C   UNL     1       4.937  24.958  51.823  1.00  0.00     0.030 A 
HETATM   14  C   UNL     1       5.194  24.847  53.189  1.00  0.00     0.016 A 
ENDROOT
BRANCH   1  15
HETATM   15  N   UNL     1       8.577  30.132  57.844  1.00  0.00    -0.327 N 
HETATM   16  C   UNL     1       9.918  30.472  57.845  1.00  0.00     0.218 C 
HETATM   17  C   UNL     1      10.208  31.674  58.710  1.00  0.00     0.117 C 
HETATM   18  O   UNL     1      10.826  29.891  57.263  1.00  0.00    -0.274 OA
HETATM   19  H   UNL     1       7.966  30.700  58.416  1.00  0.00     0.169 HD
ENDBRANCH   1  15
BRANCH  12  20
HETATM   20  N   UNL     1       5.001  26.150  49.749  1.00  0.00    -0.327 N 
HETATM   21  C   UNL     1       4.121  26.993  49.096  1.00  0.00     0.218 C 
HETATM   22  C   UNL     1       4.055  26.742  47.609  1.00  0.00     0.117 C 
HETATM   23  O   UNL     1       3.428  27.869  49.602  1.00  0.00    -0.274 OA
HETATM   24  H   UNL     1       5.491  25.475  49.178  1.00  0.00     0.169 HD
ENDBRANCH  12  20
TORSDOF 2
ENDMDL
