MODEL 1
REMARK VINA RESULT:      -9.7      0.000      0.000
REMARK  9 active torsions:
REMARK  status: ('A' for Active; 'I' for Inactive)
REMARK    1  A    between atoms: C_7  and  O_8 
REMARK    2  A    between atoms: O_8  and  C_9 
REMARK    3  A    between atoms: C_9  and  C_10 
REMARK    4  A    between atoms: C_10  and  O_11 
REMARK    5  A    between atoms: C_10  and  C_12 
REMARK    6  A    between atoms: C_12  and  N_13 
REMARK    7  A    between atoms: N_18  and  C_19 
REMARK    8  A    between atoms: C_19  and  C_20 
REMARK    9  A    between atoms: C_20  and  N_21 
ROOT
HETATM    1  N   UNL     1       7.390  29.024  57.097  1.00  0.00    -0.179 N 
HETATM    2  C   UNL     1       6.627  29.891  57.854  1.00  0.00     0.681 A 
HETATM    3  N   UNL     1       5.308  29.775  58.010  1.00  0.00    -0.234 N 
HETATM    4  H   UNL     1       4.739  30.330  58.625  1.00  0.00     0.174 HD
HETATM    5  H   UNL     1       4.819  29.112  57.394  1.00  0.00     0.174 HD
HETATM    6  N   UNL     1       7.375  30.905  58.448  1.00  0.00    -0.180 N 
HETATM    7  C   UNL     1       8.722  30.626  58.058  1.00  0.00     0.079 A 
HETATM    8  C   UNL     1       8.728  29.491  57.229  1.00  0.00     0.079 A 
HETATM    9  C   UNL     1       9.884  31.292  58.389  1.00  0.00     0.032 A 
HETATM   10  C   UNL     1      11.078  30.795  57.855  1.00  0.00     0.002 A 
HETATM   11  C   UNL     1      11.084  29.660  57.019  1.00  0.00     0.002 A 
HETATM   12  C   UNL     1       9.897  28.991  56.698  1.00  0.00     0.032 A 
ENDROOT
BRANCH   1  13
HETATM   13  C   UNL     1       6.956  27.798  56.399  1.00  0.00     0.181 C 
BRANCH  13  14
HETATM   14  C   UNL     1       6.765  26.601  57.337  1.00  0.00     0.161 C 
BRANCH  14  15
HETATM   15  C   UNL     1       6.163  25.396  56.600  1.00  0.00     0.209 C 
BRANCH  15  16
HETATM   16  O   UNL     1       6.772  25.373  55.306  1.00  0.00    -0.349 OA
BRANCH  16  17
HETATM   17  C   UNL     1       7.166  24.155  54.822  1.00  0.00     0.069 A 
HETATM   18  C   UNL     1       7.402  24.126  53.448  1.00  0.00     0.038 A 
HETATM   19  C   UNL     1       7.797  22.942  52.823  1.00  0.00     0.027 A 
HETATM   20  C   UNL     1       7.960  21.776  53.572  1.00  0.00     0.040 A 
HETATM   21  C   UNL     1       7.739  21.787  54.958  1.00  0.00    -0.038 A 
HETATM   22 CL   UNL     1       8.433  20.341  52.739  1.00  0.00    -0.084 Cl
HETATM   23  C   UNL     1       7.897  20.545  55.791  1.00  0.00     0.050 C 
HETATM   24  C   UNL     1       7.335  22.988  55.572  1.00  0.00     0.045 A 
ENDBRANCH  16  17
ENDBRANCH  15  16
ENDBRANCH  14  15
BRANCH  14  25
HETATM   25  O   UNL     1       8.049  26.224  57.882  1.00  0.00    -0.392 OA
HETATM   26  H   UNL     1       7.831  25.739  58.713  1.00  0.00     0.210 HD
ENDBRANCH  14  25
ENDBRANCH  13  14
ENDBRANCH   1  13
BRANCH   6  27
HETATM   27  C   UNL     1       6.936  31.962  59.365  1.00  0.00     0.175 C 
BRANCH  27  28
HETATM   28  C   UNL     1       7.274  31.657  60.839  1.00  0.00     0.256 C 
BRANCH  28  29
HETATM   29  N   UNL     1       6.092  31.849  61.771  1.00  0.00    -0.066 N 
HETATM   30  H   UNL     1       5.783  30.935  62.131  1.00  0.00     0.280 HD
HETATM   31  C   UNL     1       6.503  32.668  63.014  1.00  0.00     0.261 C 
HETATM   32  C   UNL     1       5.297  32.849  63.942  1.00  0.00     0.195 C 
HETATM   33  O   UNL     1       4.225  33.491  63.249  1.00  0.00    -0.388 OA
HETATM   34  C   UNL     1       3.762  32.713  62.144  1.00  0.00     0.195 C 
HETATM   35  C   UNL     1       4.878  32.519  61.113  1.00  0.00     0.261 C 
ENDBRANCH  28  29
ENDBRANCH  27  28
ENDBRANCH   6  27
TORSDOF 9
ENDMDL
MODEL 2
REMARK VINA RESULT:      -9.6      0.852      1.436
REMARK  9 active torsions:
REMARK  status: ('A' for Active; 'I' for Inactive)
REMARK    1  A    between atoms: C_7  and  O_8 
REMARK    2  A    between atoms: O_8  and  C_9 
REMARK    3  A    between atoms: C_9  and  C_10 
REMARK    4  A    between atoms: C_10  and  O_11 
REMARK    5  A    between atoms: C_10  and  C_12 
REMARK    6  A    between atoms: C_12  and  N_13 
REMARK    7  A    between atoms: N_18  and  C_19 
REMARK    8  A    between atoms: C_19  and  C_20 
REMARK    9  A    between atoms: C_20  and  N_21 
ROOT
HETATM    1  N   UNL     1       6.867  28.822  57.247  1.00  0.00    -0.179 N 
HETATM    2  C   UNL     1       6.141  29.796  57.903  1.00  0.00     0.681 A 
HETATM    3  N   UNL     1       4.823  29.736  58.093  1.00  0.00    -0.234 N 
HETATM    4  H   UNL     1       4.280  30.377  58.644  1.00  0.00     0.174 HD
HETATM    5  H   UNL     1       4.305  29.015  57.573  1.00  0.00     0.174 HD
HETATM    6  N   UNL     1       6.926  30.856  58.353  1.00  0.00    -0.180 N 
HETATM    7  C   UNL     1       8.257  30.495  57.979  1.00  0.00     0.079 A 
HETATM    8  C   UNL     1       8.219  29.266  57.297  1.00  0.00     0.079 A 
HETATM    9  C   UNL     1       9.441  31.165  58.204  1.00  0.00     0.032 A 
HETATM   10  C   UNL     1      10.611  30.574  57.717  1.00  0.00     0.002 A 
HETATM   11  C   UNL     1      10.573  29.345  57.029  1.00  0.00     0.002 A 
HETATM   12  C   UNL     1       9.365  28.673  56.813  1.00  0.00     0.032 A 
ENDROOT
BRANCH   1  13
HETATM   13  C   UNL     1       6.390  27.531  56.714  1.00  0.00     0.181 C 
BRANCH  13  14
HETATM   14  C   UNL     1       6.071  27.575  55.215  1.00  0.00     0.161 C 
BRANCH  14  15
HETATM   15  C   UNL     1       6.988  26.638  54.415  1.00  0.00     0.209 C 
BRANCH  15  16
HETATM   16  O   UNL     1       7.445  25.644  55.336  1.00  0.00    -0.349 OA
BRANCH  16  17
HETATM   17  C   UNL     1       7.617  24.375  54.852  1.00  0.00     0.069 A 
HETATM   18  C   UNL     1       7.826  24.304  53.474  1.00  0.00     0.038 A 
HETATM   19  C   UNL     1       8.003  23.068  52.849  1.00  0.00     0.027 A 
HETATM   20  C   UNL     1       7.974  21.893  53.601  1.00  0.00     0.040 A 
HETATM   21  C   UNL     1       7.776  21.944  54.989  1.00  0.00    -0.038 A 
HETATM   22 CL   UNL     1       8.182  20.396  52.769  1.00  0.00    -0.084 Cl
HETATM   23  C   UNL     1       7.730  20.695  55.826  1.00  0.00     0.050 C 
HETATM   24  C   UNL     1       7.593  23.198  55.604  1.00  0.00     0.045 A 
ENDBRANCH  16  17
ENDBRANCH  15  16
ENDBRANCH  14  15
BRANCH  14  25
HETATM   25  O   UNL     1       4.698  27.169  55.016  1.00  0.00    -0.392 OA
HETATM   26  H   UNL     1       4.667  26.858  54.081  1.00  0.00     0.210 HD
ENDBRANCH  14  25
ENDBRANCH  13  14
ENDBRANCH   1  13
BRANCH   6  27
HETATM   27  C   UNL     1       6.531  32.030  59.139  1.00  0.00     0.175 C 
BRANCH  27  28
HETATM   28  C   UNL     1       6.984  31.947  60.611  1.00  0.00     0.256 C 
BRANCH  28  29
HETATM   29  N   UNL     1       6.069  32.704  61.557  1.00  0.00    -0.066 N 
HETATM   30  H   UNL     1       6.303  33.706  61.535  1.00  0.00     0.280 HD
HETATM   31  C   UNL     1       4.601  32.609  61.090  1.00  0.00     0.261 C 
HETATM   32  C   UNL     1       3.695  33.379  62.056  1.00  0.00     0.195 C 
HETATM   33  O   UNL     1       3.834  32.872  63.385  1.00  0.00    -0.388 OA
HETATM   34  C   UNL     1       5.165  33.028  63.879  1.00  0.00     0.195 C 
HETATM   35  C   UNL     1       6.158  32.241  63.017  1.00  0.00     0.261 C 
ENDBRANCH  28  29
ENDBRANCH  27  28
ENDBRANCH   6  27
TORSDOF 9
ENDMDL
MODEL 3
REMARK VINA RESULT:      -9.1      4.335      9.500
REMARK  9 active torsions:
REMARK  status: ('A' for Active; 'I' for Inactive)
REMARK    1  A    between atoms: C_7  and  O_8 
REMARK    2  A    between atoms: O_8  and  C_9 
REMARK    3  A    between atoms: C_9  and  C_10 
REMARK    4  A    between atoms: C_10  and  O_11 
REMARK    5  A    between atoms: C_10  and  C_12 
REMARK    6  A    between atoms: C_12  and  N_13 
REMARK    7  A    between atoms: N_18  and  C_19 
REMARK    8  A    between atoms: C_19  and  C_20 
REMARK    9  A    between atoms: C_20  and  N_21 
ROOT
HETATM    1  N   UNL     1       6.503  24.446  55.606  1.00  0.00    -0.179 N 
HETATM    2  C   UNL     1       5.800  25.044  54.578  1.00  0.00     0.681 A 
HETATM    3  N   UNL     1       4.978  26.080  54.746  1.00  0.00    -0.234 N 
HETATM    4  H   UNL     1       4.526  26.595  54.012  1.00  0.00     0.174 HD
HETATM    5  H   UNL     1       4.726  26.328  55.712  1.00  0.00     0.174 HD
HETATM    6  N   UNL     1       6.038  24.458  53.337  1.00  0.00    -0.180 N 
HETATM    7  C   UNL     1       6.996  23.432  53.607  1.00  0.00     0.079 A 
HETATM    8  C   UNL     1       7.269  23.419  54.986  1.00  0.00     0.079 A 
HETATM    9  C   UNL     1       7.611  22.557  52.735  1.00  0.00     0.032 A 
HETATM   10  C   UNL     1       8.517  21.643  53.283  1.00  0.00     0.002 A 
HETATM   11  C   UNL     1       8.787  21.626  54.666  1.00  0.00     0.002 A 
HETATM   12  C   UNL     1       8.161  22.524  55.537  1.00  0.00     0.032 A 
ENDROOT
BRANCH   1  13
HETATM   13  C   UNL     1       6.564  24.849  57.024  1.00  0.00     0.181 C 
BRANCH  13  14
HETATM   14  C   UNL     1       7.832  25.634  57.378  1.00  0.00     0.161 C 
BRANCH  14  15
HETATM   15  C   UNL     1       7.762  27.080  56.866  1.00  0.00     0.209 C 
BRANCH  15  16
HETATM   16  O   UNL     1       8.399  27.888  57.859  1.00  0.00    -0.349 OA
BRANCH  16  17
HETATM   17  C   UNL     1       7.821  29.094  58.148  1.00  0.00     0.069 A 
HETATM   18  C   UNL     1       6.603  29.322  57.508  1.00  0.00     0.038 A 
HETATM   19  C   UNL     1       5.914  30.520  57.705  1.00  0.00     0.027 A 
HETATM   20  C   UNL     1       6.440  31.499  58.548  1.00  0.00     0.040 A 
HETATM   21  C   UNL     1       7.658  31.285  59.211  1.00  0.00    -0.038 A 
HETATM   22 CL   UNL     1       5.549  32.965  58.738  1.00  0.00    -0.084 Cl
HETATM   23  C   UNL     1       8.255  32.324  60.120  1.00  0.00     0.050 C 
HETATM   24  C   UNL     1       8.344  30.073  58.997  1.00  0.00     0.045 A 
ENDBRANCH  16  17
ENDBRANCH  15  16
ENDBRANCH  14  15
BRANCH  14  25
HETATM   25  O   UNL     1       7.986  25.652  58.814  1.00  0.00    -0.392 OA
HETATM   26  H   UNL     1       7.122  25.989  59.150  1.00  0.00     0.210 HD
ENDBRANCH  14  25
ENDBRANCH  13  14
ENDBRANCH   1  13
BRANCH   6  27
HETATM   27  C   UNL     1       5.532  24.850  52.016  1.00  0.00     0.175 C 
BRANCH  27  28
HETATM   28  C   UNL     1       6.389  25.944  51.346  1.00  0.00     0.256 C 
BRANCH  28  29
HETATM   29  N   UNL     1       5.559  26.990  50.626  1.00  0.00    -0.066 N 
HETATM   30  H   UNL     1       6.177  27.603  50.076  1.00  0.00     0.280 HD
HETATM   31  C   UNL     1       4.613  26.326  49.602  1.00  0.00     0.261 C 
HETATM   32  C   UNL     1       3.785  27.399  48.885  1.00  0.00     0.195 C 
HETATM   33  O   UNL     1       3.041  28.171  49.830  1.00  0.00    -0.388 OA
HETATM   34  C   UNL     1       3.895  28.870  50.738  1.00  0.00     0.195 C 
HETATM   35  C   UNL     1       4.733  27.885  51.560  1.00  0.00     0.261 C 
ENDBRANCH  28  29
ENDBRANCH  27  28
ENDBRANCH   6  27
TORSDOF 9
ENDMDL
MODEL 4
REMARK VINA RESULT:      -9.0      4.191     10.444
REMARK  9 active torsions:
REMARK  status: ('A' for Active; 'I' for Inactive)
REMARK    1  A    between atoms: C_7  and  O_8 
REMARK    2  A    between atoms: O_8  and  C_9 
REMARK    3  A    between atoms: C_9  and  C_10 
REMARK    4  A    between atoms: C_10  and  O_11 
REMARK    5  A    between atoms: C_10  and  C_12 
REMARK    6  A    between atoms: C_12  and  N_13 
REMARK    7  A    between atoms: N_18  and  C_19 
REMARK    8  A    between atoms: C_19  and  C_20 
REMARK    9  A    between atoms: C_20  and  N_21 
ROOT
HETATM    1  N   UNL     1       5.963  27.419  56.461  1.00  0.00    -0.179 N 
HETATM    2  C   UNL     1       6.570  26.184  56.583  1.00  0.00     0.681 A 
HETATM    3  N   UNL     1       7.213  25.779  57.678  1.00  0.00    -0.234 N 
HETATM    4  H   UNL     1       7.583  24.858  57.834  1.00  0.00     0.174 HD
HETATM    5  H   UNL     1       7.414  26.489  58.395  1.00  0.00     0.174 HD
HETATM    6  N   UNL     1       6.440  25.394  55.443  1.00  0.00    -0.180 N 
HETATM    7  C   UNL     1       5.657  26.188  54.549  1.00  0.00     0.079 A 
HETATM    8  C   UNL     1       5.378  27.421  55.164  1.00  0.00     0.079 A 
HETATM    9  C   UNL     1       5.199  25.886  53.283  1.00  0.00     0.032 A 
HETATM   10  C   UNL     1       4.447  26.865  52.627  1.00  0.00     0.002 A 
HETATM   11  C   UNL     1       4.171  28.103  53.240  1.00  0.00     0.002 A 
HETATM   12  C   UNL     1       4.637  28.393  54.528  1.00  0.00     0.032 A 
ENDROOT
BRANCH   1  13
HETATM   13  C   UNL     1       5.826  28.473  57.485  1.00  0.00     0.181 C 
BRANCH  13  14
HETATM   14  C   UNL     1       7.072  29.357  57.616  1.00  0.00     0.161 C 
BRANCH  14  15
HETATM   15  C   UNL     1       6.736  30.717  58.244  1.00  0.00     0.209 C 
BRANCH  15  16
HETATM   16  O   UNL     1       7.921  31.150  58.918  1.00  0.00    -0.349 OA
BRANCH  16  17
HETATM   17  C   UNL     1       7.767  31.703  60.160  1.00  0.00     0.069 A 
HETATM   18  C   UNL     1       8.695  31.269  61.107  1.00  0.00     0.038 A 
HETATM   19  C   UNL     1       8.642  31.744  62.418  1.00  0.00     0.027 A 
HETATM   20  C   UNL     1       7.660  32.662  62.791  1.00  0.00     0.040 A 
HETATM   21  C   UNL     1       6.725  33.121  61.850  1.00  0.00    -0.038 A 
HETATM   22 CL   UNL     1       7.637  33.201  64.430  1.00  0.00    -0.084 Cl
HETATM   23  C   UNL     1       5.649  34.104  62.223  1.00  0.00     0.050 C 
HETATM   24  C   UNL     1       6.788  32.627  60.533  1.00  0.00     0.045 A 
ENDBRANCH  16  17
ENDBRANCH  15  16
ENDBRANCH  14  15
BRANCH  14  25
HETATM   25  O   UNL     1       8.039  28.681  58.450  1.00  0.00    -0.392 OA
HETATM   26  H   UNL     1       7.544  28.465  59.276  1.00  0.00     0.210 HD
ENDBRANCH  14  25
ENDBRANCH  13  14
ENDBRANCH   1  13
BRANCH   6  27
HETATM   27  C   UNL     1       6.888  24.015  55.218  1.00  0.00     0.175 C 
BRANCH  27  28
HETATM   28  C   UNL     1       8.165  23.932  54.356  1.00  0.00     0.256 C 
BRANCH  28  29
HETATM   29  N   UNL     1       8.750  22.533  54.296  1.00  0.00    -0.066 N 
HETATM   30  H   UNL     1       9.759  22.589  54.093  1.00  0.00     0.280 HD
HETATM   31  C   UNL     1       8.641  21.836  55.669  1.00  0.00     0.261 C 
HETATM   32  C   UNL     1       9.238  20.427  55.588  1.00  0.00     0.195 C 
HETATM   33  O   UNL     1       8.576  19.660  54.579  1.00  0.00    -0.388 OA
HETATM   34  C   UNL     1       8.736  20.235  53.281  1.00  0.00     0.195 C 
HETATM   35  C   UNL     1       8.114  21.634  53.228  1.00  0.00     0.261 C 
ENDBRANCH  28  29
ENDBRANCH  27  28
ENDBRANCH   6  27
TORSDOF 9
ENDMDL
MODEL 5
REMARK VINA RESULT:      -8.9      4.655      9.930
REMARK  9 active torsions:
REMARK  status: ('A' for Active; 'I' for Inactive)
REMARK    1  A    between atoms: C_7  and  O_8 
REMARK    2  A    between atoms: O_8  and  C_9 
REMARK    3  A    between atoms: C_9  and  C_10 
REMARK    4  A    between atoms: C_10  and  O_11 
REMARK    5  A    between atoms: C_10  and  C_12 
REMARK    6  A    between atoms: C_12  and  N_13 
REMARK    7  A    between atoms: N_18  and  C_19 
REMARK    8  A    between atoms: C_19  and  C_20 
REMARK    9  A    between atoms: C_20  and  N_21 
ROOT
HETATM    1  N   UNL     1       6.346  25.781  55.737  1.00  0.00    -0.179 N 
HETATM    2  C   UNL     1       5.485  25.998  54.679  1.00  0.00     0.681 A 
HETATM    3  N   UNL     1       4.549  26.948  54.669  1.00  0.00    -0.234 N 
HETATM    4  H   UNL     1       3.971  27.193  53.884  1.00  0.00     0.174 HD
HETATM    5  H   UNL     1       4.349  27.421  55.560  1.00  0.00     0.174 HD
HETATM    6  N   UNL     1       5.693  25.125  53.614  1.00  0.00    -0.180 N 
HETATM    7  C   UNL     1       6.799  24.319  54.027  1.00  0.00     0.079 A 
HETATM    8  C   UNL     1       7.187  24.710  55.320  1.00  0.00     0.079 A 
HETATM    9  C   UNL     1       7.448  23.310  53.346  1.00  0.00     0.032 A 
HETATM   10  C   UNL     1       8.512  22.681  54.002  1.00  0.00     0.002 A 
HETATM   11  C   UNL     1       8.898  23.069  55.300  1.00  0.00     0.002 A 
HETATM   12  C   UNL     1       8.233  24.099  55.976  1.00  0.00     0.032 A 
ENDROOT
BRANCH   1  13
HETATM   13  C   UNL     1       6.473  26.557  56.986  1.00  0.00     0.181 C 
BRANCH  13  14
HETATM   14  C   UNL     1       7.335  27.816  56.832  1.00  0.00     0.161 C 
BRANCH  14  15
HETATM   15  C   UNL     1       6.673  29.037  57.487  1.00  0.00     0.209 C 
BRANCH  15  16
HETATM   16  O   UNL     1       7.714  29.996  57.689  1.00  0.00    -0.349 OA
BRANCH  16  17
HETATM   17  C   UNL     1       7.745  30.641  58.896  1.00  0.00     0.069 A 
HETATM   18  C   UNL     1       8.831  30.306  59.705  1.00  0.00     0.038 A 
HETATM   19  C   UNL     1       8.976  30.882  60.968  1.00  0.00     0.027 A 
HETATM   20  C   UNL     1       8.033  31.802  61.430  1.00  0.00     0.040 A 
HETATM   21  C   UNL     1       6.940  32.161  60.627  1.00  0.00    -0.038 A 
HETATM   22 CL   UNL     1       8.259  32.467  63.006  1.00  0.00    -0.084 Cl
HETATM   23  C   UNL     1       5.903  33.142  61.100  1.00  0.00     0.050 C 
HETATM   24  C   UNL     1       6.805  31.566  59.357  1.00  0.00     0.045 A 
ENDBRANCH  16  17
ENDBRANCH  15  16
ENDBRANCH  14  15
BRANCH  14  25
HETATM   25  O   UNL     1       8.616  27.585  57.457  1.00  0.00    -0.392 OA
HETATM   26  H   UNL     1       9.033  26.878  56.910  1.00  0.00     0.210 HD
ENDBRANCH  14  25
ENDBRANCH  13  14
ENDBRANCH   1  13
BRANCH   6  27
HETATM   27  C   UNL     1       5.029  25.087  52.306  1.00  0.00     0.175 C 
BRANCH  27  28
HETATM   28  C   UNL     1       5.582  26.139  51.322  1.00  0.00     0.256 C 
BRANCH  28  29
HETATM   29  N   UNL     1       4.493  26.863  50.553  1.00  0.00    -0.066 N 
HETATM   30  H   UNL     1       3.633  26.894  51.119  1.00  0.00     0.280 HD
HETATM   31  C   UNL     1       4.884  28.337  50.310  1.00  0.00     0.261 C 
HETATM   32  C   UNL     1       3.771  29.051  49.535  1.00  0.00     0.195 C 
HETATM   33  O   UNL     1       3.520  28.386  48.295  1.00  0.00    -0.388 OA
HETATM   34  C   UNL     1       3.069  27.045  48.490  1.00  0.00     0.195 C 
HETATM   35  C   UNL     1       4.138  26.214  49.209  1.00  0.00     0.261 C 
ENDBRANCH  28  29
ENDBRANCH  27  28
ENDBRANCH   6  27
TORSDOF 9
ENDMDL
MODEL 6
REMARK VINA RESULT:      -8.9      5.248      7.507
REMARK  9 active torsions:
REMARK  status: ('A' for Active; 'I' for Inactive)
REMARK    1  A    between atoms: C_7  and  O_8 
REMARK    2  A    between atoms: O_8  and  C_9 
REMARK    3  A    between atoms: C_9  and  C_10 
REMARK    4  A    between atoms: C_10  and  O_11 
REMARK    5  A    between atoms: C_10  and  C_12 
REMARK    6  A    between atoms: C_12  and  N_13 
REMARK    7  A    between atoms: N_18  and  C_19 
REMARK    8  A    between atoms: C_19  and  C_20 
REMARK    9  A    between atoms: C_20  and  N_21 
ROOT
HETATM    1  N   UNL     1       5.882  25.138  54.001  1.00  0.00    -0.179 N 
HETATM    2  C   UNL     1       5.840  25.957  55.113  1.00  0.00     0.681 A 
HETATM    3  N   UNL     1       4.934  26.919  55.291  1.00  0.00    -0.234 N 
HETATM    4  H   UNL     1       4.818  27.468  56.125  1.00  0.00     0.174 HD
HETATM    5  H   UNL     1       4.353  27.173  54.481  1.00  0.00     0.174 HD
HETATM    6  N   UNL     1       6.841  25.675  56.040  1.00  0.00    -0.180 N 
HETATM    7  C   UNL     1       7.544  24.565  55.477  1.00  0.00     0.079 A 
HETATM    8  C   UNL     1       6.968  24.248  54.234  1.00  0.00     0.079 A 
HETATM    9  C   UNL     1       8.611  23.856  55.986  1.00  0.00     0.032 A 
HETATM   10  C   UNL     1       9.108  22.805  55.208  1.00  0.00     0.002 A 
HETATM   11  C   UNL     1       8.534  22.489  53.960  1.00  0.00     0.002 A 
HETATM   12  C   UNL     1       7.447  23.214  53.459  1.00  0.00     0.032 A 
ENDROOT
BRANCH   1  13
HETATM   13  C   UNL     1       4.939  25.091  52.866  1.00  0.00     0.181 C 
BRANCH  13  14
HETATM   14  C   UNL     1       5.027  26.320  51.954  1.00  0.00     0.161 C 
BRANCH  14  15
HETATM   15  C   UNL     1       4.874  25.938  50.475  1.00  0.00     0.209 C 
BRANCH  15  16
HETATM   16  O   UNL     1       4.761  27.167  49.754  1.00  0.00    -0.349 OA
BRANCH  16  17
HETATM   17  C   UNL     1       3.677  27.312  48.931  1.00  0.00     0.069 A 
HETATM   18  C   UNL     1       3.399  26.200  48.136  1.00  0.00     0.038 A 
HETATM   19  C   UNL     1       2.328  26.220  47.242  1.00  0.00     0.027 A 
HETATM   20  C   UNL     1       1.523  27.355  47.139  1.00  0.00     0.040 A 
HETATM   21  C   UNL     1       1.778  28.480  47.939  1.00  0.00    -0.038 A 
HETATM   22 CL   UNL     1       0.223  27.324  46.004  1.00  0.00    -0.084 Cl
HETATM   23  C   UNL     1       0.935  29.722  47.844  1.00  0.00     0.050 C 
HETATM   24  C   UNL     1       2.867  28.446  48.831  1.00  0.00     0.045 A 
ENDBRANCH  16  17
ENDBRANCH  15  16
ENDBRANCH  14  15
BRANCH  14  25
HETATM   25  O   UNL     1       3.975  27.244  52.311  1.00  0.00    -0.392 OA
HETATM   26  H   UNL     1       3.151  26.824  51.967  1.00  0.00     0.210 HD
ENDBRANCH  14  25
ENDBRANCH  13  14
ENDBRANCH   1  13
BRANCH   6  27
HETATM   27  C   UNL     1       7.078  26.278  57.356  1.00  0.00     0.175 C 
BRANCH  27  28
HETATM   28  C   UNL     1       7.990  27.520  57.292  1.00  0.00     0.256 C 
BRANCH  28  29
HETATM   29  N   UNL     1       7.354  28.756  57.901  1.00  0.00    -0.066 N 
HETATM   30  H   UNL     1       6.697  28.475  58.643  1.00  0.00     0.280 HD
HETATM   31  C   UNL     1       8.418  29.631  58.597  1.00  0.00     0.261 C 
HETATM   32  C   UNL     1       7.755  30.871  59.207  1.00  0.00     0.195 C 
HETATM   33  O   UNL     1       7.069  31.618  58.200  1.00  0.00    -0.388 OA
HETATM   34  C   UNL     1       6.017  30.862  57.599  1.00  0.00     0.195 C 
HETATM   35  C   UNL     1       6.576  29.619  56.899  1.00  0.00     0.261 C 
ENDBRANCH  28  29
ENDBRANCH  27  28
ENDBRANCH   6  27
TORSDOF 9
ENDMDL
MODEL 7
REMARK VINA RESULT:      -8.8      4.970      8.439
REMARK  9 active torsions:
REMARK  status: ('A' for Active; 'I' for Inactive)
REMARK    1  A    between atoms: C_7  and  O_8 
REMARK    2  A    between atoms: O_8  and  C_9 
REMARK    3  A    between atoms: C_9  and  C_10 
REMARK    4  A    between atoms: C_10  and  O_11 
REMARK    5  A    between atoms: C_10  and  C_12 
REMARK    6  A    between atoms: C_12  and  N_13 
REMARK    7  A    between atoms: N_18  and  C_19 
REMARK    8  A    between atoms: C_19  and  C_20 
REMARK    9  A    between atoms: C_20  and  N_21 
ROOT
HETATM    1  N   UNL     1       4.637  28.636  54.642  1.00  0.00    -0.179 N 
HETATM    2  C   UNL     1       4.001  28.149  53.516  1.00  0.00     0.681 A 
HETATM    3  N   UNL     1       3.990  26.862  53.170  1.00  0.00    -0.234 N 
HETATM    4  H   UNL     1       3.462  26.463  52.414  1.00  0.00     0.174 HD
HETATM    5  H   UNL     1       4.632  26.235  53.671  1.00  0.00     0.174 HD
HETATM    6  N   UNL     1       3.364  29.142  52.774  1.00  0.00    -0.180 N 
HETATM    7  C   UNL     1       3.591  30.341  53.517  1.00  0.00     0.079 A 
HETATM    8  C   UNL     1       4.374  30.035  54.644  1.00  0.00     0.079 A 
HETATM    9  C   UNL     1       3.157  31.625  53.260  1.00  0.00     0.032 A 
HETATM   10  C   UNL     1       3.536  32.620  54.167  1.00  0.00     0.002 A 
HETATM   11  C   UNL     1       4.325  32.315  55.294  1.00  0.00     0.002 A 
HETATM   12  C   UNL     1       4.753  31.006  55.545  1.00  0.00     0.032 A 
ENDROOT
BRANCH   1  13
HETATM   13  C   UNL     1       5.336  27.875  55.696  1.00  0.00     0.181 C 
BRANCH  13  14
HETATM   14  C   UNL     1       6.845  27.751  55.456  1.00  0.00     0.161 C 
BRANCH  14  15
HETATM   15  C   UNL     1       7.180  26.520  54.601  1.00  0.00     0.209 C 
BRANCH  15  16
HETATM   16  O   UNL     1       7.169  25.400  55.490  1.00  0.00    -0.349 OA
BRANCH  16  17
HETATM   17  C   UNL     1       7.446  24.173  54.953  1.00  0.00     0.069 A 
HETATM   18  C   UNL     1       7.672  24.179  53.577  1.00  0.00     0.038 A 
HETATM   19  C   UNL     1       7.952  22.991  52.901  1.00  0.00     0.027 A 
HETATM   20  C   UNL     1       8.012  21.785  53.600  1.00  0.00     0.040 A 
HETATM   21  C   UNL     1       7.801  21.758  54.987  1.00  0.00    -0.038 A 
HETATM   22 CL   UNL     1       8.348  20.348  52.705  1.00  0.00    -0.084 Cl
HETATM   23  C   UNL     1       7.850  20.473  55.767  1.00  0.00     0.050 C 
HETATM   24  C   UNL     1       7.513  22.965  55.654  1.00  0.00     0.045 A 
ENDBRANCH  16  17
ENDBRANCH  15  16
ENDBRANCH  14  15
BRANCH  14  25
HETATM   25  O   UNL     1       7.310  28.936  54.774  1.00  0.00    -0.392 OA
HETATM   26  H   UNL     1       7.169  28.741  53.817  1.00  0.00     0.210 HD
ENDBRANCH  14  25
ENDBRANCH  13  14
ENDBRANCH   1  13
BRANCH   6  27
HETATM   27  C   UNL     1       2.540  29.008  51.568  1.00  0.00     0.175 C 
BRANCH  27  28
HETATM   28  C   UNL     1       3.370  28.698  50.305  1.00  0.00     0.256 C 
BRANCH  28  29
HETATM   29  N   UNL     1       2.775  27.585  49.462  1.00  0.00    -0.066 N 
HETATM   30  H   UNL     1       2.252  26.936  50.066  1.00  0.00     0.280 HD
HETATM   31  C   UNL     1       1.741  28.149  48.464  1.00  0.00     0.261 C 
HETATM   32  C   UNL     1       1.152  27.011  47.624  1.00  0.00     0.195 C 
HETATM   33  O   UNL     1       2.188  26.311  46.933  1.00  0.00    -0.388 OA
HETATM   34  C   UNL     1       3.113  25.701  47.834  1.00  0.00     0.195 C 
HETATM   35  C   UNL     1       3.814  26.762  48.690  1.00  0.00     0.261 C 
ENDBRANCH  28  29
ENDBRANCH  27  28
ENDBRANCH   6  27
TORSDOF 9
ENDMDL
MODEL 8
REMARK VINA RESULT:      -8.7      1.515      1.940
REMARK  9 active torsions:
REMARK  status: ('A' for Active; 'I' for Inactive)
REMARK    1  A    between atoms: C_7  and  O_8 
REMARK    2  A    between atoms: O_8  and  C_9 
REMARK    3  A    between atoms: C_9  and  C_10 
REMARK    4  A    between atoms: C_10  and  O_11 
REMARK    5  A    between atoms: C_10  and  C_12 
REMARK    6  A    between atoms: C_12  and  N_13 
REMARK    7  A    between atoms: N_18  and  C_19 
REMARK    8  A    between atoms: C_19  and  C_20 
REMARK    9  A    between atoms: C_20  and  N_21 
ROOT
HETATM    1  N   UNL     1       6.001  29.108  55.999  1.00  0.00    -0.179 N 
HETATM    2  C   UNL     1       4.988  29.953  56.408  1.00  0.00     0.681 A 
HETATM    3  N   UNL     1       3.746  29.909  55.927  1.00  0.00    -0.234 N 
HETATM    4  H   UNL     1       2.966  30.444  56.267  1.00  0.00     0.174 HD
HETATM    5  H   UNL     1       3.587  29.335  55.088  1.00  0.00     0.174 HD
HETATM    6  N   UNL     1       5.392  30.861  57.385  1.00  0.00    -0.180 N 
HETATM    7  C   UNL     1       6.761  30.532  57.630  1.00  0.00     0.079 A 
HETATM    8  C   UNL     1       7.133  29.475  56.780  1.00  0.00     0.079 A 
HETATM    9  C   UNL     1       7.649  31.091  58.526  1.00  0.00     0.032 A 
HETATM   10  C   UNL     1       8.945  30.566  58.551  1.00  0.00     0.002 A 
HETATM   11  C   UNL     1       9.319  29.511  57.696  1.00  0.00     0.002 A 
HETATM   12  C   UNL     1       8.406  28.949  56.796  1.00  0.00     0.032 A 
ENDROOT
BRANCH   1  13
HETATM   13  C   UNL     1       5.920  27.978  55.053  1.00  0.00     0.181 C 
BRANCH  13  14
HETATM   14  C   UNL     1       5.376  26.694  55.688  1.00  0.00     0.161 C 
BRANCH  14  15
HETATM   15  C   UNL     1       6.493  25.875  56.351  1.00  0.00     0.209 C 
BRANCH  15  16
HETATM   16  O   UNL     1       7.492  25.675  55.348  1.00  0.00    -0.349 OA
BRANCH  16  17
HETATM   17  C   UNL     1       7.645  24.405  54.862  1.00  0.00     0.069 A 
HETATM   18  C   UNL     1       7.835  24.331  53.482  1.00  0.00     0.038 A 
HETATM   19  C   UNL     1       7.991  23.094  52.855  1.00  0.00     0.027 A 
HETATM   20  C   UNL     1       7.960  21.919  53.607  1.00  0.00     0.040 A 
HETATM   21  C   UNL     1       7.782  21.972  54.998  1.00  0.00    -0.038 A 
HETATM   22 CL   UNL     1       8.143  20.420  52.773  1.00  0.00    -0.084 Cl
HETATM   23  C   UNL     1       7.735  20.723  55.836  1.00  0.00     0.050 C 
HETATM   24  C   UNL     1       7.620  23.228  55.615  1.00  0.00     0.045 A 
ENDBRANCH  16  17
ENDBRANCH  15  16
ENDBRANCH  14  15
BRANCH  14  25
HETATM   25  O   UNL     1       4.394  27.045  56.688  1.00  0.00    -0.392 OA
HETATM   26  H   UNL     1       4.497  26.356  57.386  1.00  0.00     0.210 HD
ENDBRANCH  14  25
ENDBRANCH  13  14
ENDBRANCH   1  13
BRANCH   6  27
HETATM   27  C   UNL     1       4.596  31.861  58.104  1.00  0.00     0.175 C 
BRANCH  27  28
HETATM   28  C   UNL     1       3.681  31.239  59.179  1.00  0.00     0.256 C 
BRANCH  28  29
HETATM   29  N   UNL     1       3.699  32.004  60.490  1.00  0.00    -0.066 N 
HETATM   30  H   UNL     1       3.331  31.407  61.244  1.00  0.00     0.280 HD
HETATM   31  C   UNL     1       5.147  32.347  60.901  1.00  0.00     0.261 C 
HETATM   32  C   UNL     1       5.144  33.117  62.226  1.00  0.00     0.195 C 
HETATM   33  O   UNL     1       4.357  34.306  62.112  1.00  0.00    -0.388 OA
HETATM   34  C   UNL     1       2.990  34.015  61.819  1.00  0.00     0.195 C 
HETATM   35  C   UNL     1       2.867  33.293  60.473  1.00  0.00     0.261 C 
ENDBRANCH  28  29
ENDBRANCH  27  28
ENDBRANCH   6  27
TORSDOF 9
ENDMDL
MODEL 9
REMARK VINA RESULT:      -8.6      3.034      4.817
REMARK  9 active torsions:
REMARK  status: ('A' for Active; 'I' for Inactive)
REMARK    1  A    between atoms: C_7  and  O_8 
REMARK    2  A    between atoms: O_8  and  C_9 
REMARK    3  A    between atoms: C_9  and  C_10 
REMARK    4  A    between atoms: C_10  and  O_11 
REMARK    5  A    between atoms: C_10  and  C_12 
REMARK    6  A    between atoms: C_12  and  N_13 
REMARK    7  A    between atoms: N_18  and  C_19 
REMARK    8  A    between atoms: C_19  and  C_20 
REMARK    9  A    between atoms: C_20  and  N_21 
ROOT
HETATM    1  N   UNL     1       4.806  27.175  53.854  1.00  0.00    -0.179 N 
HETATM    2  C   UNL     1       5.219  27.156  55.172  1.00  0.00     0.681 A 
HETATM    3  N   UNL     1       5.808  26.109  55.749  1.00  0.00    -0.234 N 
HETATM    4  H   UNL     1       6.202  26.094  56.673  1.00  0.00     0.174 HD
HETATM    5  H   UNL     1       5.793  25.218  55.235  1.00  0.00     0.174 HD
HETATM    6  N   UNL     1       4.961  28.348  55.844  1.00  0.00    -0.180 N 
HETATM    7  C   UNL     1       4.371  29.194  54.854  1.00  0.00     0.079 A 
HETATM    8  C   UNL     1       4.267  28.476  53.649  1.00  0.00     0.079 A 
HETATM    9  C   UNL     1       3.947  30.502  54.960  1.00  0.00     0.032 A 
HETATM   10  C   UNL     1       3.398  31.089  53.816  1.00  0.00     0.002 A 
HETATM   11  C   UNL     1       3.289  30.369  52.610  1.00  0.00     0.002 A 
HETATM   12  C   UNL     1       3.729  29.044  52.515  1.00  0.00     0.032 A 
ENDROOT
BRANCH   1  13
HETATM   13  C   UNL     1       4.989  26.132  52.825  1.00  0.00     0.181 C 
BRANCH  13  14
HETATM   14  C   UNL     1       6.207  26.374  51.926  1.00  0.00     0.161 C 
BRANCH  14  15
HETATM   15  C   UNL     1       7.052  25.102  51.766  1.00  0.00     0.209 C 
BRANCH  15  16
HETATM   16  O   UNL     1       7.994  25.109  52.841  1.00  0.00    -0.349 OA
BRANCH  16  17
HETATM   17  C   UNL     1       8.038  23.999  53.641  1.00  0.00     0.069 A 
HETATM   18  C   UNL     1       7.861  22.791  52.966  1.00  0.00     0.038 A 
HETATM   19  C   UNL     1       7.871  21.583  53.665  1.00  0.00     0.027 A 
HETATM   20  C   UNL     1       8.061  21.576  55.047  1.00  0.00     0.040 A 
HETATM   21  C   UNL     1       8.253  22.779  55.743  1.00  0.00    -0.038 A 
HETATM   22 CL   UNL     1       8.047  20.052  55.857  1.00  0.00    -0.084 Cl
HETATM   23  C   UNL     1       8.452  22.805  57.234  1.00  0.00     0.050 C 
HETATM   24  C   UNL     1       8.235  23.990  55.024  1.00  0.00     0.045 A 
ENDBRANCH  16  17
ENDBRANCH  15  16
ENDBRANCH  14  15
BRANCH  14  25
HETATM   25  O   UNL     1       5.750  26.802  50.624  1.00  0.00    -0.392 OA
HETATM   26  H   UNL     1       4.786  26.590  50.620  1.00  0.00     0.210 HD
ENDBRANCH  14  25
ENDBRANCH  13  14
ENDBRANCH   1  13
BRANCH   6  27
HETATM   27  C   UNL     1       5.308  28.729  57.218  1.00  0.00     0.175 C 
BRANCH  27  28
HETATM   28  C   UNL     1       6.672  29.443  57.317  1.00  0.00     0.256 C 
BRANCH  28  29
HETATM   29  N   UNL     1       6.853  30.198  58.621  1.00  0.00    -0.066 N 
HETATM   30  H   UNL     1       6.257  29.779  59.349  1.00  0.00     0.280 HD
HETATM   31  C   UNL     1       8.301  30.058  59.136  1.00  0.00     0.261 C 
HETATM   32  C   UNL     1       8.463  30.826  60.453  1.00  0.00     0.195 C 
HETATM   33  O   UNL     1       8.123  32.203  60.274  1.00  0.00    -0.388 OA
HETATM   34  C   UNL     1       6.759  32.369  59.883  1.00  0.00     0.195 C 
HETATM   35  C   UNL     1       6.496  31.688  58.535  1.00  0.00     0.261 C 
ENDBRANCH  28  29
ENDBRANCH  27  28
ENDBRANCH   6  27
TORSDOF 9
ENDMDL
MODEL 10
REMARK VINA RESULT:      -8.4      9.600     12.603
REMARK  9 active torsions:
REMARK  status: ('A' for Active; 'I' for Inactive)
REMARK    1  A    between atoms: C_7  and  O_8 
REMARK    2  A    between atoms: O_8  and  C_9 
REMARK    3  A    between atoms: C_9  and  C_10 
REMARK    4  A    between atoms: C_10  and  O_11 
REMARK    5  A    between atoms: C_10  and  C_12 
REMARK    6  A    between atoms: C_12  and  N_13 
REMARK    7  A    between atoms: N_18  and  C_19 
REMARK    8  A    between atoms: C_19  and  C_20 
REMARK    9  A    between atoms: C_20  and  N_21 
ROOT
HETATM    1  N   UNL     1       3.736  34.172  64.287  1.00  0.00    -0.179 N 
HETATM    2  C   UNL     1       3.744  34.750  65.542  1.00  0.00     0.681 A 
HETATM    3  N   UNL     1       2.662  35.257  66.132  1.00  0.00    -0.234 N 
HETATM    4  H   UNL     1       2.614  35.599  67.076  1.00  0.00     0.174 HD
HETATM    5  H   UNL     1       1.822  35.377  65.550  1.00  0.00     0.174 HD
HETATM    6  N   UNL     1       5.004  34.749  66.138  1.00  0.00    -0.180 N 
HETATM    7  C   UNL     1       5.843  34.083  65.192  1.00  0.00     0.079 A 
HETATM    8  C   UNL     1       5.075  33.743  64.065  1.00  0.00     0.079 A 
HETATM    9  C   UNL     1       7.185  33.775  65.278  1.00  0.00     0.032 A 
HETATM   10  C   UNL     1       7.758  33.113  64.187  1.00  0.00     0.002 A 
HETATM   11  C   UNL     1       6.990  32.777  63.054  1.00  0.00     0.002 A 
HETATM   12  C   UNL     1       5.628  33.090  62.984  1.00  0.00     0.032 A 
ENDROOT
BRANCH   1  13
HETATM   13  C   UNL     1       2.579  33.924  63.405  1.00  0.00     0.181 C 
BRANCH  13  14
HETATM   14  C   UNL     1       2.466  34.933  62.256  1.00  0.00     0.161 C 
BRANCH  14  15
HETATM   15  C   UNL     1       3.030  36.305  62.653  1.00  0.00     0.209 C 
BRANCH  15  16
HETATM   16  O   UNL     1       4.171  36.524  61.820  1.00  0.00    -0.349 OA
BRANCH  16  17
HETATM   17  C   UNL     1       5.037  37.516  62.194  1.00  0.00     0.069 A 
HETATM   18  C   UNL     1       5.327  37.548  63.558  1.00  0.00     0.038 A 
HETATM   19  C   UNL     1       6.187  38.518  64.075  1.00  0.00     0.027 A 
HETATM   20  C   UNL     1       6.766  39.464  63.228  1.00  0.00     0.040 A 
HETATM   21  C   UNL     1       6.497  39.441  61.851  1.00  0.00    -0.038 A 
HETATM   22 CL   UNL     1       7.807  40.647  63.929  1.00  0.00    -0.084 Cl
HETATM   23  C   UNL     1       7.098  40.452  60.913  1.00  0.00     0.050 C 
HETATM   24  C   UNL     1       5.622  38.459  61.345  1.00  0.00     0.045 A 
ENDBRANCH  16  17
ENDBRANCH  15  16
ENDBRANCH  14  15
BRANCH  14  25
HETATM   25  O   UNL     1       3.203  34.433  61.119  1.00  0.00    -0.392 OA
HETATM   26  H   UNL     1       2.639  33.709  60.759  1.00  0.00     0.210 HD
ENDBRANCH  14  25
ENDBRANCH  13  14
ENDBRANCH   1  13
BRANCH   6  27
HETATM   27  C   UNL     1       5.394  35.209  67.475  1.00  0.00     0.175 C 
BRANCH  27  28
HETATM   28  C   UNL     1       5.279  34.105  68.547  1.00  0.00     0.256 C 
BRANCH  28  29
HETATM   29  N   UNL     1       6.250  34.292  69.698  1.00  0.00    -0.066 N 
HETATM   30  H   UNL     1       5.863  34.971  70.369  1.00  0.00     0.280 HD
HETATM   31  C   UNL     1       6.420  32.977  70.488  1.00  0.00     0.261 C 
HETATM   32  C   UNL     1       7.402  33.187  71.646  1.00  0.00     0.195 C 
HETATM   33  O   UNL     1       8.663  33.646  71.155  1.00  0.00    -0.388 OA
HETATM   34  C   UNL     1       8.552  34.908  70.496  1.00  0.00     0.195 C 
HETATM   35  C   UNL     1       7.634  34.801  69.273  1.00  0.00     0.261 C 
ENDBRANCH  28  29
ENDBRANCH  27  28
ENDBRANCH   6  27
TORSDOF 9
ENDMDL
