MODEL 1
REMARK VINA RESULT:      -9.7      0.000      0.000
REMARK  7 active torsions:
REMARK  status: ('A' for Active; 'I' for Inactive)
REMARK    1  A    between atoms: O_2  and  C_3 
REMARK    2  A    between atoms: N_9  and  N_10 
REMARK       I    between atoms: N_10  and  C_11 
REMARK    3  A    between atoms: C_11  and  C_12 
REMARK    4  A    between atoms: C_12  and  C_13 
REMARK    5  A    between atoms: C_13  and  C_14 
REMARK    6  A    between atoms: C_14  and  N_15 
REMARK       I    between atoms: N_15  and  C_16 
REMARK    7  A    between atoms: C_16  and  C_17 
ROOT
HETATM    1  N   UNL     1       8.635  25.428  57.210  1.00  0.00    -0.246 N 
HETATM    2  C   UNL     1       7.571  26.313  57.317  1.00  0.00     0.237 C 
HETATM    3  O   UNL     1       6.426  26.030  57.658  1.00  0.00    -0.272 OA
HETATM    4  H   UNL     1       9.577  25.793  57.138  1.00  0.00     0.192 HD
ENDROOT
BRANCH   1   5
HETATM    5  N   UNL     1       8.471  24.129  57.576  1.00  0.00    -0.166 NA
HETATM    6  C   UNL     1       8.328  23.222  56.663  1.00  0.00     0.157 A 
HETATM    7  C   UNL     1       8.173  23.273  55.201  1.00  0.00     0.029 A 
HETATM    8  C   UNL     1       8.266  21.724  57.033  1.00  0.00     0.277 A 
HETATM    9  C   UNL     1       8.076  24.315  54.297  1.00  0.00     0.053 A 
HETATM   10  C   UNL     1       8.069  21.948  54.774  1.00  0.00     0.048 A 
HETATM   11  C   UNL     1       7.929  24.005  52.938  1.00  0.00     0.069 A 
HETATM   12  C   UNL     1       7.839  22.665  52.518  1.00  0.00     0.039 A 
HETATM   13  C   UNL     1       7.903  21.618  53.445  1.00  0.00     0.033 A 
HETATM   14  N   UNL     1       8.128  21.057  55.837  1.00  0.00    -0.321 N 
HETATM   15  H   UNL     1       8.056  20.053  55.784  1.00  0.00     0.169 HD
HETATM   16  O   UNL     1       8.341  21.243  58.142  1.00  0.00    -0.266 OA
BRANCH  11  17
HETATM   17  O   UNL     1       7.868  25.100  52.118  1.00  0.00    -0.356 OA
HETATM   18  C   UNL     1       6.576  25.632  51.849  1.00  0.00     0.210 C 
ENDBRANCH  11  17
ENDBRANCH   1   5
BRANCH   2  19
HETATM   19  C   UNL     1       7.945  27.727  56.931  1.00  0.00     0.106 C 
BRANCH  19  20
HETATM   20  C   UNL     1       7.231  28.749  57.805  1.00  0.00     0.029 C 
BRANCH  20  21
HETATM   21  C   UNL     1       8.228  29.762  58.362  1.00  0.00     0.123 C 
BRANCH  21  22
HETATM   22  N   UNL     1       7.759  30.378  59.583  1.00  0.00    -0.357 N 
HETATM   23  C   UNL     1       8.169  31.627  59.985  1.00  0.00     0.253 C 
HETATM   24  O   UNL     1       8.960  32.294  59.320  1.00  0.00    -0.268 OA
HETATM   25  H   UNL     1       7.156  29.833  60.188  1.00  0.00     0.162 HD
BRANCH  23  26
HETATM   26  C   UNL     1       7.593  32.193  61.247  1.00  0.00     0.053 A 
HETATM   27  C   UNL     1       6.311  32.748  61.401  1.00  0.00     0.049 A 
HETATM   28 CL   UNL     1       5.123  32.827  60.145  1.00  0.00    -0.083 Cl
HETATM   29  C   UNL     1       5.912  33.264  62.644  1.00  0.00     0.025 A 
HETATM   30  C   UNL     1       6.771  33.228  63.741  1.00  0.00     0.002 A 
HETATM   31  C   UNL     1       8.036  32.670  63.607  1.00  0.00     0.001 A 
HETATM   32  C   UNL     1       8.441  32.158  62.372  1.00  0.00     0.019 A 
ENDBRANCH  23  26
ENDBRANCH  21  22
ENDBRANCH  20  21
ENDBRANCH  19  20
ENDBRANCH   2  19
TORSDOF 7
ENDMDL
MODEL 2
REMARK VINA RESULT:      -9.6      2.195      3.626
REMARK  7 active torsions:
REMARK  status: ('A' for Active; 'I' for Inactive)
REMARK    1  A    between atoms: O_2  and  C_3 
REMARK    2  A    between atoms: N_9  and  N_10 
REMARK       I    between atoms: N_10  and  C_11 
REMARK    3  A    between atoms: C_11  and  C_12 
REMARK    4  A    between atoms: C_12  and  C_13 
REMARK    5  A    between atoms: C_13  and  C_14 
REMARK    6  A    between atoms: C_14  and  N_15 
REMARK       I    between atoms: N_15  and  C_16 
REMARK    7  A    between atoms: C_16  and  C_17 
ROOT
HETATM    1  N   UNL     1       6.290  27.803  55.415  1.00  0.00    -0.246 N 
HETATM    2  C   UNL     1       7.309  28.546  55.993  1.00  0.00     0.237 C 
HETATM    3  O   UNL     1       8.190  29.156  55.394  1.00  0.00    -0.272 OA
HETATM    4  H   UNL     1       5.496  27.527  55.981  1.00  0.00     0.192 HD
ENDROOT
BRANCH   1   5
HETATM    5  N   UNL     1       6.163  27.771  54.061  1.00  0.00    -0.166 NA
HETATM    6  C   UNL     1       6.511  26.705  53.413  1.00  0.00     0.157 A 
HETATM    7  C   UNL     1       7.174  25.452  53.805  1.00  0.00     0.029 A 
HETATM    8  C   UNL     1       6.263  26.585  51.893  1.00  0.00     0.277 A 
HETATM    9  C   UNL     1       7.702  24.997  54.998  1.00  0.00     0.053 A 
HETATM   10  C   UNL     1       7.266  24.681  52.645  1.00  0.00     0.048 A 
HETATM   11  C   UNL     1       8.281  23.720  55.026  1.00  0.00     0.069 A 
HETATM   12  C   UNL     1       8.355  22.946  53.853  1.00  0.00     0.039 A 
HETATM   13  C   UNL     1       7.849  23.431  52.642  1.00  0.00     0.033 A 
HETATM   14  N   UNL     1       6.734  25.339  51.544  1.00  0.00    -0.321 N 
HETATM   15  H   UNL     1       6.703  24.995  50.597  1.00  0.00     0.169 HD
HETATM   16  O   UNL     1       5.749  27.408  51.170  1.00  0.00    -0.266 OA
BRANCH  11  17
HETATM   17  O   UNL     1       8.753  23.346  56.256  1.00  0.00    -0.356 OA
HETATM   18  C   UNL     1       8.920  24.377  57.222  1.00  0.00     0.210 C 
ENDBRANCH  11  17
ENDBRANCH   1   5
BRANCH   2  19
HETATM   19  C   UNL     1       7.264  28.524  57.505  1.00  0.00     0.106 C 
BRANCH  19  20
HETATM   20  C   UNL     1       7.291  29.932  58.084  1.00  0.00     0.029 C 
BRANCH  20  21
HETATM   21  C   UNL     1       8.334  30.032  59.193  1.00  0.00     0.123 C 
BRANCH  21  22
HETATM   22  N   UNL     1       7.829  30.720  60.360  1.00  0.00    -0.357 N 
HETATM   23  C   UNL     1       8.085  32.049  60.603  1.00  0.00     0.253 C 
HETATM   24  O   UNL     1       8.760  32.729  59.833  1.00  0.00    -0.268 OA
HETATM   25  H   UNL     1       7.323  30.176  61.050  1.00  0.00     0.162 HD
BRANCH  23  26
HETATM   26  C   UNL     1       7.481  32.679  61.822  1.00  0.00     0.053 A 
HETATM   27  C   UNL     1       6.282  33.409  61.873  1.00  0.00     0.049 A 
HETATM   28 CL   UNL     1       5.237  33.669  60.519  1.00  0.00    -0.083 Cl
HETATM   29  C   UNL     1       5.848  33.964  63.088  1.00  0.00     0.025 A 
HETATM   30  C   UNL     1       6.590  33.795  64.256  1.00  0.00     0.002 A 
HETATM   31  C   UNL     1       7.770  33.064  64.222  1.00  0.00     0.001 A 
HETATM   32  C   UNL     1       8.210  32.511  63.017  1.00  0.00     0.019 A 
ENDBRANCH  23  26
ENDBRANCH  21  22
ENDBRANCH  20  21
ENDBRANCH  19  20
ENDBRANCH   2  19
TORSDOF 7
ENDMDL
MODEL 3
REMARK VINA RESULT:      -9.5      1.670      2.070
REMARK  7 active torsions:
REMARK  status: ('A' for Active; 'I' for Inactive)
REMARK    1  A    between atoms: O_2  and  C_3 
REMARK    2  A    between atoms: N_9  and  N_10 
REMARK       I    between atoms: N_10  and  C_11 
REMARK    3  A    between atoms: C_11  and  C_12 
REMARK    4  A    between atoms: C_12  and  C_13 
REMARK    5  A    between atoms: C_13  and  C_14 
REMARK    6  A    between atoms: C_14  and  N_15 
REMARK       I    between atoms: N_15  and  C_16 
REMARK    7  A    between atoms: C_16  and  C_17 
ROOT
HETATM    1  N   UNL     1       6.400  26.112  57.162  1.00  0.00    -0.246 N 
HETATM    2  C   UNL     1       7.184  27.222  57.442  1.00  0.00     0.237 C 
HETATM    3  O   UNL     1       8.361  27.207  57.793  1.00  0.00    -0.272 OA
HETATM    4  H   UNL     1       5.522  26.237  56.672  1.00  0.00     0.192 HD
ENDROOT
BRANCH   1   5
HETATM    5  N   UNL     1       6.954  24.870  57.190  1.00  0.00    -0.166 NA
HETATM    6  C   UNL     1       7.370  24.331  56.088  1.00  0.00     0.157 A 
HETATM    7  C   UNL     1       7.278  24.722  54.673  1.00  0.00     0.029 A 
HETATM    8  C   UNL     1       8.117  22.980  56.097  1.00  0.00     0.277 A 
HETATM    9  C   UNL     1       6.671  25.779  54.022  1.00  0.00     0.053 A 
HETATM   10  C   UNL     1       7.932  23.722  53.951  1.00  0.00     0.048 A 
HETATM   11  C   UNL     1       6.777  25.851  52.626  1.00  0.00     0.069 A 
HETATM   12  C   UNL     1       7.451  24.845  51.910  1.00  0.00     0.039 A 
HETATM   13  C   UNL     1       8.033  23.759  52.575  1.00  0.00     0.033 A 
HETATM   14  N   UNL     1       8.418  22.720  54.780  1.00  0.00    -0.321 N 
HETATM   15  H   UNL     1       8.908  21.887  54.491  1.00  0.00     0.169 HD
HETATM   16  O   UNL     1       8.391  22.304  57.064  1.00  0.00    -0.266 OA
BRANCH  11  17
HETATM   17  O   UNL     1       6.167  26.946  52.074  1.00  0.00    -0.356 OA
HETATM   18  C   UNL     1       5.416  26.733  50.886  1.00  0.00     0.210 C 
ENDBRANCH  11  17
ENDBRANCH   1   5
BRANCH   2  19
HETATM   19  C   UNL     1       6.427  28.523  57.302  1.00  0.00     0.106 C 
BRANCH  19  20
HETATM   20  C   UNL     1       7.264  29.707  57.767  1.00  0.00     0.029 C 
BRANCH  20  21
HETATM   21  C   UNL     1       6.369  30.909  58.058  1.00  0.00     0.123 C 
BRANCH  21  22
HETATM   22  N   UNL     1       6.444  31.327  59.440  1.00  0.00    -0.357 N 
HETATM   23  C   UNL     1       7.460  32.121  59.918  1.00  0.00     0.253 C 
HETATM   24  O   UNL     1       8.363  32.526  59.189  1.00  0.00    -0.268 OA
HETATM   25  H   UNL     1       5.753  30.961  60.084  1.00  0.00     0.162 HD
BRANCH  23  26
HETATM   26  C   UNL     1       7.424  32.531  61.359  1.00  0.00     0.053 A 
HETATM   27  C   UNL     1       8.162  31.954  62.406  1.00  0.00     0.049 A 
HETATM   28 CL   UNL     1       9.311  30.677  62.204  1.00  0.00    -0.083 Cl
HETATM   29  C   UNL     1       8.009  32.428  63.719  1.00  0.00     0.025 A 
HETATM   30  C   UNL     1       7.135  33.476  64.003  1.00  0.00     0.002 A 
HETATM   31  C   UNL     1       6.410  34.064  62.975  1.00  0.00     0.001 A 
HETATM   32  C   UNL     1       6.554  33.596  61.667  1.00  0.00     0.019 A 
ENDBRANCH  23  26
ENDBRANCH  21  22
ENDBRANCH  20  21
ENDBRANCH  19  20
ENDBRANCH   2  19
TORSDOF 7
ENDMDL
MODEL 4
REMARK VINA RESULT:      -9.2      3.507      9.817
REMARK  7 active torsions:
REMARK  status: ('A' for Active; 'I' for Inactive)
REMARK    1  A    between atoms: O_2  and  C_3 
REMARK    2  A    between atoms: N_9  and  N_10 
REMARK       I    between atoms: N_10  and  C_11 
REMARK    3  A    between atoms: C_11  and  C_12 
REMARK    4  A    between atoms: C_12  and  C_13 
REMARK    5  A    between atoms: C_13  and  C_14 
REMARK    6  A    between atoms: C_14  and  N_15 
REMARK       I    between atoms: N_15  and  C_16 
REMARK    7  A    between atoms: C_16  and  C_17 
ROOT
HETATM    1  N   UNL     1       5.134  28.879  55.564  1.00  0.00    -0.246 N 
HETATM    2  C   UNL     1       5.239  27.501  55.686  1.00  0.00     0.237 C 
HETATM    3  O   UNL     1       4.831  26.825  56.626  1.00  0.00    -0.272 OA
HETATM    4  H   UNL     1       5.300  29.310  54.663  1.00  0.00     0.192 HD
ENDROOT
BRANCH   1   5
HETATM    5  N   UNL     1       4.463  29.591  56.509  1.00  0.00    -0.166 NA
HETATM    6  C   UNL     1       5.128  30.260  57.396  1.00  0.00     0.157 A 
HETATM    7  C   UNL     1       6.557  30.356  57.730  1.00  0.00     0.029 A 
HETATM    8  C   UNL     1       4.405  31.179  58.404  1.00  0.00     0.277 A 
HETATM    9  C   UNL     1       7.686  29.724  57.242  1.00  0.00     0.053 A 
HETATM   10  C   UNL     1       6.649  31.258  58.791  1.00  0.00     0.048 A 
HETATM   11  C   UNL     1       8.928  30.054  57.801  1.00  0.00     0.069 A 
HETATM   12  C   UNL     1       9.009  30.976  58.862  1.00  0.00     0.039 A 
HETATM   13  C   UNL     1       7.857  31.585  59.372  1.00  0.00     0.033 A 
HETATM   14  N   UNL     1       5.402  31.734  59.174  1.00  0.00    -0.321 N 
HETATM   15  H   UNL     1       5.210  32.378  59.925  1.00  0.00     0.169 HD
HETATM   16  O   UNL     1       3.213  31.378  58.486  1.00  0.00    -0.266 OA
BRANCH  11  17
HETATM   17  O   UNL     1       9.989  29.398  57.237  1.00  0.00    -0.356 OA
HETATM   18  C   UNL     1      10.216  29.615  55.850  1.00  0.00     0.210 C 
ENDBRANCH  11  17
ENDBRANCH   1   5
BRANCH   2  19
HETATM   19  C   UNL     1       5.959  26.863  54.518  1.00  0.00     0.106 C 
BRANCH  19  20
HETATM   20  C   UNL     1       5.056  26.761  53.296  1.00  0.00     0.029 C 
BRANCH  20  21
HETATM   21  C   UNL     1       5.557  25.670  52.355  1.00  0.00     0.123 C 
BRANCH  21  22
HETATM   22  N   UNL     1       5.977  24.483  53.066  1.00  0.00    -0.357 N 
HETATM   23  C   UNL     1       7.233  23.942  52.923  1.00  0.00     0.253 C 
HETATM   24  O   UNL     1       8.074  24.445  52.180  1.00  0.00    -0.268 OA
HETATM   25  H   UNL     1       5.291  24.005  53.639  1.00  0.00     0.162 HD
BRANCH  23  26
HETATM   26  C   UNL     1       7.584  22.733  53.737  1.00  0.00     0.053 A 
HETATM   27  C   UNL     1       7.559  22.638  55.138  1.00  0.00     0.049 A 
HETATM   28 CL   UNL     1       7.055  23.910  56.196  1.00  0.00    -0.083 Cl
HETATM   29  C   UNL     1       7.938  21.442  55.769  1.00  0.00     0.025 A 
HETATM   30  C   UNL     1       8.333  20.334  55.021  1.00  0.00     0.002 A 
HETATM   31  C   UNL     1       8.349  20.410  53.634  1.00  0.00     0.001 A 
HETATM   32  C   UNL     1       7.977  21.598  52.999  1.00  0.00     0.019 A 
ENDBRANCH  23  26
ENDBRANCH  21  22
ENDBRANCH  20  21
ENDBRANCH  19  20
ENDBRANCH   2  19
TORSDOF 7
ENDMDL
MODEL 5
REMARK VINA RESULT:      -9.2      3.039     10.299
REMARK  7 active torsions:
REMARK  status: ('A' for Active; 'I' for Inactive)
REMARK    1  A    between atoms: O_2  and  C_3 
REMARK    2  A    between atoms: N_9  and  N_10 
REMARK       I    between atoms: N_10  and  C_11 
REMARK    3  A    between atoms: C_11  and  C_12 
REMARK    4  A    between atoms: C_12  and  C_13 
REMARK    5  A    between atoms: C_13  and  C_14 
REMARK    6  A    between atoms: C_14  and  N_15 
REMARK       I    between atoms: N_15  and  C_16 
REMARK    7  A    between atoms: C_16  and  C_17 
ROOT
HETATM    1  N   UNL     1       7.817  29.884  58.361  1.00  0.00    -0.246 N 
HETATM    2  C   UNL     1       7.524  28.646  57.809  1.00  0.00     0.237 C 
HETATM    3  O   UNL     1       7.930  27.560  58.211  1.00  0.00    -0.272 OA
HETATM    4  H   UNL     1       7.262  30.689  58.095  1.00  0.00     0.192 HD
ENDROOT
BRANCH   1   5
HETATM    5  N   UNL     1       8.560  29.957  59.498  1.00  0.00    -0.166 NA
HETATM    6  C   UNL     1       8.198  30.762  60.446  1.00  0.00     0.157 A 
HETATM    7  C   UNL     1       7.151  31.788  60.558  1.00  0.00     0.029 A 
HETATM    8  C   UNL     1       8.941  30.780  61.800  1.00  0.00     0.277 A 
HETATM    9  C   UNL     1       6.219  32.288  59.667  1.00  0.00     0.053 A 
HETATM   10  C   UNL     1       7.258  32.315  61.847  1.00  0.00     0.048 A 
HETATM   11  C   UNL     1       5.348  33.294  60.110  1.00  0.00     0.069 A 
HETATM   12  C   UNL     1       5.457  33.807  61.415  1.00  0.00     0.039 A 
HETATM   13  C   UNL     1       6.427  33.320  62.298  1.00  0.00     0.033 A 
HETATM   14  N   UNL     1       8.292  31.725  62.560  1.00  0.00    -0.321 N 
HETATM   15  H   UNL     1       8.576  31.950  63.502  1.00  0.00     0.169 HD
HETATM   16  O   UNL     1       9.885  30.094  62.123  1.00  0.00    -0.266 OA
BRANCH  11  17
HETATM   17  O   UNL     1       4.444  33.706  59.167  1.00  0.00    -0.356 OA
HETATM   18  C   UNL     1       3.209  34.225  59.643  1.00  0.00     0.210 C 
ENDBRANCH  11  17
ENDBRANCH   1   5
BRANCH   2  19
HETATM   19  C   UNL     1       6.637  28.745  56.588  1.00  0.00     0.106 C 
BRANCH  19  20
HETATM   20  C   UNL     1       7.455  28.724  55.303  1.00  0.00     0.029 C 
BRANCH  20  21
HETATM   21  C   UNL     1       6.791  27.822  54.265  1.00  0.00     0.123 C 
BRANCH  21  22
HETATM   22  N   UNL     1       7.440  26.534  54.164  1.00  0.00    -0.357 N 
HETATM   23  C   UNL     1       6.883  25.384  54.671  1.00  0.00     0.253 C 
HETATM   24  O   UNL     1       5.792  25.389  55.237  1.00  0.00    -0.268 OA
HETATM   25  H   UNL     1       8.370  26.501  53.761  1.00  0.00     0.162 HD
BRANCH  23  26
HETATM   26  C   UNL     1       7.619  24.092  54.479  1.00  0.00     0.053 A 
HETATM   27  C   UNL     1       8.559  23.532  55.359  1.00  0.00     0.049 A 
HETATM   28 CL   UNL     1       9.004  24.221  56.882  1.00  0.00    -0.083 Cl
HETATM   29  C   UNL     1       9.191  22.320  55.036  1.00  0.00     0.025 A 
HETATM   30  C   UNL     1       8.891  21.652  53.849  1.00  0.00     0.002 A 
HETATM   31  C   UNL     1       7.953  22.188  52.977  1.00  0.00     0.001 A 
HETATM   32  C   UNL     1       7.324  23.396  53.289  1.00  0.00     0.019 A 
ENDBRANCH  23  26
ENDBRANCH  21  22
ENDBRANCH  20  21
ENDBRANCH  19  20
ENDBRANCH   2  19
TORSDOF 7
ENDMDL
MODEL 6
REMARK VINA RESULT:      -9.2      3.206      9.751
REMARK  7 active torsions:
REMARK  status: ('A' for Active; 'I' for Inactive)
REMARK    1  A    between atoms: O_2  and  C_3 
REMARK    2  A    between atoms: N_9  and  N_10 
REMARK       I    between atoms: N_10  and  C_11 
REMARK    3  A    between atoms: C_11  and  C_12 
REMARK    4  A    between atoms: C_12  and  C_13 
REMARK    5  A    between atoms: C_13  and  C_14 
REMARK    6  A    between atoms: C_14  and  N_15 
REMARK       I    between atoms: N_15  and  C_16 
REMARK    7  A    between atoms: C_16  and  C_17 
ROOT
HETATM    1  N   UNL     1       7.351  28.936  56.019  1.00  0.00    -0.246 N 
HETATM    2  C   UNL     1       7.062  27.933  55.105  1.00  0.00     0.237 C 
HETATM    3  O   UNL     1       7.869  27.365  54.375  1.00  0.00    -0.272 OA
HETATM    4  H   UNL     1       6.663  29.179  56.721  1.00  0.00     0.192 HD
ENDROOT
BRANCH   1   5
HETATM    5  N   UNL     1       8.642  29.314  56.219  1.00  0.00    -0.166 NA
HETATM    6  C   UNL     1       8.930  30.107  57.202  1.00  0.00     0.157 A 
HETATM    7  C   UNL     1       8.114  30.854  58.172  1.00  0.00     0.029 A 
HETATM    8  C   UNL     1      10.396  30.457  57.538  1.00  0.00     0.277 A 
HETATM    9  C   UNL     1       6.751  31.009  58.339  1.00  0.00     0.053 A 
HETATM   10  C   UNL     1       9.014  31.532  58.996  1.00  0.00     0.048 A 
HETATM   11  C   UNL     1       6.296  31.816  59.391  1.00  0.00     0.069 A 
HETATM   12  C   UNL     1       7.213  32.483  60.224  1.00  0.00     0.039 A 
HETATM   13  C   UNL     1       8.592  32.349  60.025  1.00  0.00     0.033 A 
HETATM   14  N   UNL     1      10.331  31.295  58.627  1.00  0.00    -0.321 N 
HETATM   15  H   UNL     1      11.155  31.686  59.058  1.00  0.00     0.169 HD
HETATM   16  O   UNL     1      11.389  30.062  56.969  1.00  0.00    -0.266 OA
BRANCH  11  17
HETATM   17  O   UNL     1       4.933  31.888  59.493  1.00  0.00    -0.356 OA
HETATM   18  C   UNL     1       4.176  31.264  58.462  1.00  0.00     0.210 C 
ENDBRANCH  11  17
ENDBRANCH   1   5
BRANCH   2  19
HETATM   19  C   UNL     1       5.589  27.594  55.056  1.00  0.00     0.106 C 
BRANCH  19  20
HETATM   20  C   UNL     1       5.127  26.928  56.346  1.00  0.00     0.029 C 
BRANCH  20  21
HETATM   21  C   UNL     1       6.209  25.992  56.877  1.00  0.00     0.123 C 
BRANCH  21  22
HETATM   22  N   UNL     1       6.426  24.857  56.009  1.00  0.00    -0.357 N 
HETATM   23  C   UNL     1       7.634  24.202  55.936  1.00  0.00     0.253 C 
HETATM   24  O   UNL     1       8.599  24.547  56.615  1.00  0.00    -0.268 OA
HETATM   25  H   UNL     1       5.674  24.583  55.388  1.00  0.00     0.162 HD
BRANCH  23  26
HETATM   26  C   UNL     1       7.744  23.011  55.033  1.00  0.00     0.053 A 
HETATM   27  C   UNL     1       7.844  23.036  53.632  1.00  0.00     0.049 A 
HETATM   28 CL   UNL     1       7.916  24.480  52.683  1.00  0.00    -0.083 Cl
HETATM   29  C   UNL     1       7.918  21.833  52.911  1.00  0.00     0.025 A 
HETATM   30  C   UNL     1       7.901  20.604  53.568  1.00  0.00     0.002 A 
HETATM   31  C   UNL     1       7.816  20.565  54.953  1.00  0.00     0.001 A 
HETATM   32  C   UNL     1       7.739  21.757  55.678  1.00  0.00     0.019 A 
ENDBRANCH  23  26
ENDBRANCH  21  22
ENDBRANCH  20  21
ENDBRANCH  19  20
ENDBRANCH   2  19
TORSDOF 7
ENDMDL
MODEL 7
REMARK VINA RESULT:      -9.1      5.737      9.850
REMARK  7 active torsions:
REMARK  status: ('A' for Active; 'I' for Inactive)
REMARK    1  A    between atoms: O_2  and  C_3 
REMARK    2  A    between atoms: N_9  and  N_10 
REMARK       I    between atoms: N_10  and  C_11 
REMARK    3  A    between atoms: C_11  and  C_12 
REMARK    4  A    between atoms: C_12  and  C_13 
REMARK    5  A    between atoms: C_13  and  C_14 
REMARK    6  A    between atoms: C_14  and  N_15 
REMARK       I    between atoms: N_15  and  C_16 
REMARK    7  A    between atoms: C_16  and  C_17 
ROOT
HETATM    1  N   UNL     1       6.078  26.312  51.185  1.00  0.00    -0.246 N 
HETATM    2  C   UNL     1       5.811  26.568  52.522  1.00  0.00     0.237 C 
HETATM    3  O   UNL     1       4.710  26.523  53.062  1.00  0.00    -0.272 OA
HETATM    4  H   UNL     1       7.036  26.160  50.891  1.00  0.00     0.192 HD
ENDROOT
BRANCH   1   5
HETATM    5  N   UNL     1       5.076  25.895  50.365  1.00  0.00    -0.166 NA
HETATM    6  C   UNL     1       4.604  26.706  49.472  1.00  0.00     0.157 A 
HETATM    7  C   UNL     1       4.828  28.129  49.177  1.00  0.00     0.029 A 
HETATM    8  C   UNL     1       3.557  26.229  48.442  1.00  0.00     0.277 A 
HETATM    9  C   UNL     1       5.588  29.111  49.785  1.00  0.00     0.053 A 
HETATM   10  C   UNL     1       4.024  28.429  48.076  1.00  0.00     0.048 A 
HETATM   11  C   UNL     1       5.573  30.400  49.233  1.00  0.00     0.069 A 
HETATM   12  C   UNL     1       4.770  30.687  48.114  1.00  0.00     0.039 A 
HETATM   13  C   UNL     1       3.977  29.694  47.527  1.00  0.00     0.033 A 
HETATM   14  N   UNL     1       3.295  27.326  47.653  1.00  0.00    -0.321 N 
HETATM   15  H   UNL     1       2.634  27.299  46.892  1.00  0.00     0.169 HD
HETATM   16  O   UNL     1       3.082  25.120  48.344  1.00  0.00    -0.266 OA
BRANCH  11  17
HETATM   17  O   UNL     1       6.375  31.297  49.887  1.00  0.00    -0.356 OA
HETATM   18  C   UNL     1       5.821  32.580  50.153  1.00  0.00     0.210 C 
ENDBRANCH  11  17
ENDBRANCH   1   5
BRANCH   2  19
HETATM   19  C   UNL     1       7.048  26.958  53.301  1.00  0.00     0.106 C 
BRANCH  19  20
HETATM   20  C   UNL     1       6.704  27.354  54.731  1.00  0.00     0.029 C 
BRANCH  20  21
HETATM   21  C   UNL     1       7.454  26.471  55.723  1.00  0.00     0.123 C 
BRANCH  21  22
HETATM   22  N   UNL     1       7.788  25.180  55.163  1.00  0.00    -0.357 N 
HETATM   23  C   UNL     1       7.292  24.003  55.672  1.00  0.00     0.253 C 
HETATM   24  O   UNL     1       6.528  23.986  56.635  1.00  0.00    -0.268 OA
HETATM   25  H   UNL     1       8.465  25.150  54.410  1.00  0.00     0.162 HD
BRANCH  23  26
HETATM   26  C   UNL     1       7.668  22.720  54.995  1.00  0.00     0.053 A 
HETATM   27  C   UNL     1       8.113  21.546  55.625  1.00  0.00     0.049 A 
HETATM   28 CL   UNL     1       8.256  21.350  57.338  1.00  0.00    -0.083 Cl
HETATM   29  C   UNL     1       8.454  20.421  54.856  1.00  0.00     0.025 A 
HETATM   30  C   UNL     1       8.350  20.447  53.466  1.00  0.00     0.002 A 
HETATM   31  C   UNL     1       7.898  21.597  52.832  1.00  0.00     0.001 A 
HETATM   32  C   UNL     1       7.560  22.721  53.589  1.00  0.00     0.019 A 
ENDBRANCH  23  26
ENDBRANCH  21  22
ENDBRANCH  20  21
ENDBRANCH  19  20
ENDBRANCH   2  19
TORSDOF 7
ENDMDL
MODEL 8
REMARK VINA RESULT:      -9.1      3.352      9.885
REMARK  7 active torsions:
REMARK  status: ('A' for Active; 'I' for Inactive)
REMARK    1  A    between atoms: O_2  and  C_3 
REMARK    2  A    between atoms: N_9  and  N_10 
REMARK       I    between atoms: N_10  and  C_11 
REMARK    3  A    between atoms: C_11  and  C_12 
REMARK    4  A    between atoms: C_12  and  C_13 
REMARK    5  A    between atoms: C_13  and  C_14 
REMARK    6  A    between atoms: C_14  and  N_15 
REMARK       I    between atoms: N_15  and  C_16 
REMARK    7  A    between atoms: C_16  and  C_17 
ROOT
HETATM    1  N   UNL     1       7.842  28.517  57.108  1.00  0.00    -0.246 N 
HETATM    2  C   UNL     1       8.432  28.760  55.876  1.00  0.00     0.237 C 
HETATM    3  O   UNL     1       9.399  29.487  55.667  1.00  0.00    -0.272 OA
HETATM    4  H   UNL     1       7.200  27.740  57.205  1.00  0.00     0.192 HD
ENDROOT
BRANCH   1   5
HETATM    5  N   UNL     1       8.389  29.049  58.234  1.00  0.00    -0.166 NA
HETATM    6  C   UNL     1       7.832  30.079  58.788  1.00  0.00     0.157 A 
HETATM    7  C   UNL     1       6.720  30.960  58.400  1.00  0.00     0.029 A 
HETATM    8  C   UNL     1       8.348  30.633  60.134  1.00  0.00     0.277 A 
HETATM    9  C   UNL     1       5.913  31.024  57.280  1.00  0.00     0.053 A 
HETATM   10  C   UNL     1       6.589  31.896  59.427  1.00  0.00     0.048 A 
HETATM   11  C   UNL     1       4.923  32.017  57.228  1.00  0.00     0.069 A 
HETATM   12  C   UNL     1       4.791  32.946  58.276  1.00  0.00     0.039 A 
HETATM   13  C   UNL     1       5.637  32.895  59.391  1.00  0.00     0.033 A 
HETATM   14  N   UNL     1       7.530  31.699  60.428  1.00  0.00    -0.321 N 
HETATM   15  H   UNL     1       7.646  32.257  61.261  1.00  0.00     0.169 HD
HETATM   16  O   UNL     1       9.269  30.205  60.795  1.00  0.00    -0.266 OA
BRANCH  11  17
HETATM   17  O   UNL     1       4.158  31.985  56.094  1.00  0.00    -0.356 OA
HETATM   18  C   UNL     1       3.062  31.079  56.082  1.00  0.00     0.210 C 
ENDBRANCH  11  17
ENDBRANCH   1   5
BRANCH   2  19
HETATM   19  C   UNL     1       7.735  28.040  54.742  1.00  0.00     0.106 C 
BRANCH  19  20
HETATM   20  C   UNL     1       6.548  27.230  55.244  1.00  0.00     0.029 C 
BRANCH  20  21
HETATM   21  C   UNL     1       6.061  26.273  54.159  1.00  0.00     0.123 C 
BRANCH  21  22
HETATM   22  N   UNL     1       6.515  24.918  54.381  1.00  0.00    -0.357 N 
HETATM   23  C   UNL     1       7.563  24.366  53.682  1.00  0.00     0.253 C 
HETATM   24  O   UNL     1       8.177  25.002  52.828  1.00  0.00    -0.268 OA
HETATM   25  H   UNL     1       5.992  24.342  55.031  1.00  0.00     0.162 HD
BRANCH  23  26
HETATM   26  C   UNL     1       7.981  22.966  54.015  1.00  0.00     0.053 A 
HETATM   27  C   UNL     1       8.530  22.529  55.232  1.00  0.00     0.049 A 
HETATM   28 CL   UNL     1       8.774  23.541  56.614  1.00  0.00    -0.083 Cl
HETATM   29  C   UNL     1       8.899  21.184  55.395  1.00  0.00     0.025 A 
HETATM   30  C   UNL     1       8.721  20.264  54.362  1.00  0.00     0.002 A 
HETATM   31  C   UNL     1       8.167  20.680  53.158  1.00  0.00     0.001 A 
HETATM   32  C   UNL     1       7.800  22.017  52.988  1.00  0.00     0.019 A 
ENDBRANCH  23  26
ENDBRANCH  21  22
ENDBRANCH  20  21
ENDBRANCH  19  20
ENDBRANCH   2  19
TORSDOF 7
ENDMDL
MODEL 9
REMARK VINA RESULT:      -8.8      2.746      4.235
REMARK  7 active torsions:
REMARK  status: ('A' for Active; 'I' for Inactive)
REMARK    1  A    between atoms: O_2  and  C_3 
REMARK    2  A    between atoms: N_9  and  N_10 
REMARK       I    between atoms: N_10  and  C_11 
REMARK    3  A    between atoms: C_11  and  C_12 
REMARK    4  A    between atoms: C_12  and  C_13 
REMARK    5  A    between atoms: C_13  and  C_14 
REMARK    6  A    between atoms: C_14  and  N_15 
REMARK       I    between atoms: N_15  and  C_16 
REMARK    7  A    between atoms: C_16  and  C_17 
ROOT
HETATM    1  N   UNL     1       4.822  27.724  55.161  1.00  0.00    -0.246 N 
HETATM    2  C   UNL     1       5.518  28.708  55.849  1.00  0.00     0.237 C 
HETATM    3  O   UNL     1       6.107  29.662  55.349  1.00  0.00    -0.272 OA
HETATM    4  H   UNL     1       4.194  27.114  55.670  1.00  0.00     0.192 HD
ENDROOT
BRANCH   1   5
HETATM    5  N   UNL     1       4.685  27.814  53.811  1.00  0.00    -0.166 NA
HETATM    6  C   UNL     1       5.321  26.983  53.048  1.00  0.00     0.157 A 
HETATM    7  C   UNL     1       6.333  25.947  53.302  1.00  0.00     0.029 A 
HETATM    8  C   UNL     1       5.092  26.973  51.521  1.00  0.00     0.277 A 
HETATM    9  C   UNL     1       6.995  25.533  54.443  1.00  0.00     0.053 A 
HETATM   10  C   UNL     1       6.628  25.379  52.062  1.00  0.00     0.048 A 
HETATM   11  C   UNL     1       7.927  24.491  54.331  1.00  0.00     0.069 A 
HETATM   12  C   UNL     1       8.206  23.917  53.077  1.00  0.00     0.039 A 
HETATM   13  C   UNL     1       7.556  24.367  51.922  1.00  0.00     0.033 A 
HETATM   14  N   UNL     1       5.905  25.973  51.037  1.00  0.00    -0.321 N 
HETATM   15  H   UNL     1       5.959  25.748  50.055  1.00  0.00     0.169 HD
HETATM   16  O   UNL     1       4.343  27.685  50.890  1.00  0.00    -0.266 OA
BRANCH  11  17
HETATM   17  O   UNL     1       8.512  24.134  55.516  1.00  0.00    -0.356 OA
HETATM   18  C   UNL     1       7.865  24.562  56.708  1.00  0.00     0.210 C 
ENDBRANCH  11  17
ENDBRANCH   1   5
BRANCH   2  19
HETATM   19  C   UNL     1       5.518  28.486  57.345  1.00  0.00     0.106 C 
BRANCH  19  20
HETATM   20  C   UNL     1       6.911  28.141  57.857  1.00  0.00     0.029 C 
BRANCH  20  21
HETATM   21  C   UNL     1       7.777  29.396  57.929  1.00  0.00     0.123 C 
BRANCH  21  22
HETATM   22  N   UNL     1       7.752  30.004  59.241  1.00  0.00    -0.357 N 
HETATM   23  C   UNL     1       7.455  31.333  59.434  1.00  0.00     0.253 C 
HETATM   24  O   UNL     1       7.188  32.079  58.494  1.00  0.00    -0.268 OA
HETATM   25  H   UNL     1       8.028  29.435  60.033  1.00  0.00     0.162 HD
BRANCH  23  26
HETATM   26  C   UNL     1       7.417  31.856  60.838  1.00  0.00     0.053 A 
HETATM   27  C   UNL     1       8.281  31.494  61.884  1.00  0.00     0.049 A 
HETATM   28 CL   UNL     1       9.608  30.397  61.720  1.00  0.00    -0.083 Cl
HETATM   29  C   UNL     1       8.112  32.052  63.162  1.00  0.00     0.025 A 
HETATM   30  C   UNL     1       7.096  32.974  63.410  1.00  0.00     0.002 A 
HETATM   31  C   UNL     1       6.243  33.351  62.381  1.00  0.00     0.001 A 
HETATM   32  C   UNL     1       6.403  32.797  61.108  1.00  0.00     0.019 A 
ENDBRANCH  23  26
ENDBRANCH  21  22
ENDBRANCH  20  21
ENDBRANCH  19  20
ENDBRANCH   2  19
TORSDOF 7
ENDMDL
MODEL 10
REMARK VINA RESULT:      -8.8      5.134      9.805
REMARK  7 active torsions:
REMARK  status: ('A' for Active; 'I' for Inactive)
REMARK    1  A    between atoms: O_2  and  C_3 
REMARK    2  A    between atoms: N_9  and  N_10 
REMARK       I    between atoms: N_10  and  C_11 
REMARK    3  A    between atoms: C_11  and  C_12 
REMARK    4  A    between atoms: C_12  and  C_13 
REMARK    5  A    between atoms: C_13  and  C_14 
REMARK    6  A    between atoms: C_14  and  N_15 
REMARK       I    between atoms: N_15  and  C_16 
REMARK    7  A    between atoms: C_16  and  C_17 
ROOT
HETATM    1  N   UNL     1       6.115  27.039  54.120  1.00  0.00    -0.246 N 
HETATM    2  C   UNL     1       4.964  27.683  53.689  1.00  0.00     0.237 C 
HETATM    3  O   UNL     1       4.177  28.306  54.394  1.00  0.00    -0.272 OA
HETATM    4  H   UNL     1       6.804  26.747  53.438  1.00  0.00     0.192 HD
ENDROOT
BRANCH   1   5
HETATM    5  N   UNL     1       6.495  27.136  55.422  1.00  0.00    -0.166 NA
HETATM    6  C   UNL     1       7.150  26.162  55.970  1.00  0.00     0.157 A 
HETATM    7  C   UNL     1       7.517  24.811  55.522  1.00  0.00     0.029 A 
HETATM    8  C   UNL     1       7.706  26.288  57.405  1.00  0.00     0.277 A 
HETATM    9  C   UNL     1       7.247  24.090  54.373  1.00  0.00     0.053 A 
HETATM   10  C   UNL     1       8.237  24.235  56.571  1.00  0.00     0.048 A 
HETATM   11  C   UNL     1       7.762  22.790  54.266  1.00  0.00     0.069 A 
HETATM   12  C   UNL     1       8.498  22.226  55.325  1.00  0.00     0.039 A 
HETATM   13  C   UNL     1       8.736  22.951  56.498  1.00  0.00     0.033 A 
HETATM   14  N   UNL     1       8.346  25.095  57.655  1.00  0.00    -0.321 N 
HETATM   15  H   UNL     1       8.802  24.900  58.533  1.00  0.00     0.169 HD
HETATM   16  O   UNL     1       7.611  27.243  58.144  1.00  0.00    -0.266 OA
BRANCH  11  17
HETATM   17  O   UNL     1       7.464  22.166  53.084  1.00  0.00    -0.356 OA
HETATM   18  C   UNL     1       7.985  20.856  52.899  1.00  0.00     0.210 C 
ENDBRANCH  11  17
ENDBRANCH   1   5
BRANCH   2  19
HETATM   19  C   UNL     1       4.727  27.524  52.203  1.00  0.00     0.106 C 
BRANCH  19  20
HETATM   20  C   UNL     1       5.686  26.511  51.592  1.00  0.00     0.029 C 
BRANCH  20  21
HETATM   21  C   UNL     1       5.014  25.773  50.437  1.00  0.00     0.123 C 
BRANCH  21  22
HETATM   22  N   UNL     1       4.024  26.587  49.769  1.00  0.00    -0.357 N 
HETATM   23  C   UNL     1       3.895  26.620  48.400  1.00  0.00     0.253 C 
HETATM   24  O   UNL     1       4.617  25.950  47.666  1.00  0.00    -0.268 OA
HETATM   25  H   UNL     1       3.452  27.202  50.338  1.00  0.00     0.162 HD
BRANCH  23  26
HETATM   26  C   UNL     1       2.809  27.467  47.808  1.00  0.00     0.053 A 
HETATM   27  C   UNL     1       2.857  28.857  47.604  1.00  0.00     0.049 A 
HETATM   28 CL   UNL     1       4.228  29.850  47.956  1.00  0.00    -0.083 Cl
HETATM   29  C   UNL     1       1.750  29.526  47.057  1.00  0.00     0.025 A 
HETATM   30  C   UNL     1       0.596  28.827  46.703  1.00  0.00     0.002 A 
HETATM   31  C   UNL     1       0.541  27.452  46.887  1.00  0.00     0.001 A 
HETATM   32  C   UNL     1       1.637  26.779  47.433  1.00  0.00     0.019 A 
ENDBRANCH  23  26
ENDBRANCH  21  22
ENDBRANCH  20  21
ENDBRANCH  19  20
ENDBRANCH   2  19
TORSDOF 7
ENDMDL
