MODEL 1
REMARK VINA RESULT:      -9.2      0.000      0.000
REMARK  4 active torsions:
REMARK  status: ('A' for Active; 'I' for Inactive)
REMARK    1  A    between atoms: C_4  and  N_5 
REMARK    2  A    between atoms: N_5  and  N_6 
REMARK       I    between atoms: N_6  and  C_7 
REMARK    3  A    between atoms: C_7  and  C_8 
REMARK    4  A    between atoms: C_9  and  C_10 
ROOT
HETATM    1  C   UNL     1       7.796  26.945  56.479  1.00  0.00     0.081 A 
HETATM    2  C   UNL     1       7.525  27.492  55.187  1.00  0.00     0.106 A 
HETATM    3  N   UNL     1       8.011  28.738  55.075  1.00  0.00    -0.173 NA
HETATM    4  N   UNL     1       8.577  28.988  56.261  1.00  0.00    -0.288 N 
HETATM    5  H   UNL     1       9.014  29.894  56.405  1.00  0.00     0.188 HD
HETATM    6  C   UNL     1       8.498  27.944  57.127  1.00  0.00     0.128 A 
ENDROOT
BRANCH   1   7
HETATM    7  C   UNL     1       7.498  25.646  57.061  1.00  0.00     0.270 C 
HETATM    8  N   UNL     1       8.573  24.777  57.142  1.00  0.00    -0.283 N 
HETATM    9  H   UNL     1       9.493  24.991  56.773  1.00  0.00     0.184 HD
HETATM   10  O   UNL     1       6.364  25.356  57.435  1.00  0.00    -0.266 OA
BRANCH   8  11
HETATM   11  N   UNL     1       8.332  23.475  57.610  1.00  0.00    -0.203 NA
HETATM   12  H   UNL     1       8.892  23.255  58.433  1.00  0.00     0.153 HD
BRANCH  11  13
HETATM   13  C   UNL     1       8.340  22.466  56.623  1.00  0.00     0.028 A 
HETATM   14  C   UNL     1       8.160  22.750  55.261  1.00  0.00     0.032 A 
HETATM   15  C   UNL     1       8.097  21.726  54.303  1.00  0.00    -0.060 A 
HETATM   16  C   UNL     1       7.855  22.046  52.858  1.00  0.00     0.048 C 
HETATM   17  C   UNL     1       8.180  20.395  54.723  1.00  0.00     0.007 A 
HETATM   18  C   UNL     1       8.330  20.095  56.075  1.00  0.00     0.002 A 
HETATM   19  C   UNL     1       8.398  21.123  57.017  1.00  0.00     0.025 A 
ENDBRANCH  11  13
ENDBRANCH   8  11
ENDBRANCH   1   7
BRANCH   2  20
HETATM   20  C   UNL     1       6.908  26.845  54.032  1.00  0.00     0.017 A 
HETATM   21  C   UNL     1       5.557  27.022  53.698  1.00  0.00     0.046 A 
HETATM   22 CL   UNL     1       4.468  27.946  54.675  1.00  0.00    -0.083 Cl
HETATM   23  C   UNL     1       5.027  26.398  52.564  1.00  0.00     0.025 A 
HETATM   24  C   UNL     1       5.834  25.588  51.762  1.00  0.00     0.002 A 
HETATM   25  C   UNL     1       7.173  25.399  52.092  1.00  0.00     0.001 A 
HETATM   26  C   UNL     1       7.710  26.026  53.218  1.00  0.00     0.016 A 
ENDBRANCH   2  20
TORSDOF 4
ENDMDL
MODEL 2
REMARK VINA RESULT:      -8.8      1.744      2.005
REMARK  4 active torsions:
REMARK  status: ('A' for Active; 'I' for Inactive)
REMARK    1  A    between atoms: C_4  and  N_5 
REMARK    2  A    between atoms: N_5  and  N_6 
REMARK       I    between atoms: N_6  and  C_7 
REMARK    3  A    between atoms: C_7  and  C_8 
REMARK    4  A    between atoms: C_9  and  C_10 
ROOT
HETATM    1  C   UNL     1       5.991  27.058  56.658  1.00  0.00     0.081 A 
HETATM    2  C   UNL     1       5.424  27.191  55.353  1.00  0.00     0.106 A 
HETATM    3  N   UNL     1       4.500  28.165  55.321  1.00  0.00    -0.173 NA
HETATM    4  N   UNL     1       4.471  28.644  56.570  1.00  0.00    -0.288 N 
HETATM    5  H   UNL     1       3.828  29.402  56.781  1.00  0.00     0.188 HD
HETATM    6  C   UNL     1       5.357  28.037  57.402  1.00  0.00     0.128 A 
ENDROOT
BRANCH   1   7
HETATM    7  C   UNL     1       7.026  26.179  57.178  1.00  0.00     0.270 C 
HETATM    8  N   UNL     1       6.896  24.846  56.827  1.00  0.00    -0.283 N 
HETATM    9  H   UNL     1       6.111  24.481  56.299  1.00  0.00     0.184 HD
HETATM   10  O   UNL     1       7.934  26.605  57.887  1.00  0.00    -0.266 OA
BRANCH   8  11
HETATM   11  N   UNL     1       7.810  23.930  57.372  1.00  0.00    -0.203 NA
HETATM   12  H   UNL     1       8.640  24.393  57.744  1.00  0.00     0.153 HD
BRANCH  11  13
HETATM   13  C   UNL     1       8.091  22.803  56.570  1.00  0.00     0.028 A 
HETATM   14  C   UNL     1       7.922  22.817  55.177  1.00  0.00     0.032 A 
HETATM   15  C   UNL     1       8.136  21.664  54.404  1.00  0.00    -0.060 A 
HETATM   16  C   UNL     1       7.903  21.684  52.923  1.00  0.00     0.048 C 
HETATM   17  C   UNL     1       8.490  20.472  55.043  1.00  0.00     0.007 A 
HETATM   18  C   UNL     1       8.634  20.435  56.429  1.00  0.00     0.002 A 
HETATM   19  C   UNL     1       8.425  21.590  57.185  1.00  0.00     0.025 A 
ENDBRANCH  11  13
ENDBRANCH   8  11
ENDBRANCH   1   7
BRANCH   2  20
HETATM   20  C   UNL     1       5.790  26.495  54.123  1.00  0.00     0.017 A 
HETATM   21  C   UNL     1       6.974  26.769  53.422  1.00  0.00     0.046 A 
HETATM   22 CL   UNL     1       8.069  28.021  53.895  1.00  0.00    -0.083 Cl
HETATM   23  C   UNL     1       7.286  26.050  52.262  1.00  0.00     0.025 A 
HETATM   24  C   UNL     1       6.417  25.065  51.789  1.00  0.00     0.002 A 
HETATM   25  C   UNL     1       5.235  24.794  52.472  1.00  0.00     0.001 A 
HETATM   26  C   UNL     1       4.923  25.502  53.635  1.00  0.00     0.016 A 
ENDBRANCH   2  20
TORSDOF 4
ENDMDL
MODEL 3
REMARK VINA RESULT:      -8.8      2.458      3.985
REMARK  4 active torsions:
REMARK  status: ('A' for Active; 'I' for Inactive)
REMARK    1  A    between atoms: C_4  and  N_5 
REMARK    2  A    between atoms: N_5  and  N_6 
REMARK       I    between atoms: N_6  and  C_7 
REMARK    3  A    between atoms: C_7  and  C_8 
REMARK    4  A    between atoms: C_9  and  C_10 
ROOT
HETATM    1  C   UNL     1       6.808  26.861  57.174  1.00  0.00     0.081 A 
HETATM    2  C   UNL     1       6.948  28.281  57.107  1.00  0.00     0.106 A 
HETATM    3  N   UNL     1       5.754  28.881  56.967  1.00  0.00    -0.173 NA
HETATM    4  N   UNL     1       4.871  27.876  56.942  1.00  0.00    -0.288 N 
HETATM    5  H   UNL     1       3.887  28.102  56.839  1.00  0.00     0.188 HD
HETATM    6  C   UNL     1       5.443  26.652  57.086  1.00  0.00     0.128 A 
ENDROOT
BRANCH   1   7
HETATM    7  C   UNL     1       7.787  25.800  57.345  1.00  0.00     0.270 C 
HETATM    8  N   UNL     1       7.271  24.516  57.339  1.00  0.00    -0.283 N 
HETATM    9  H   UNL     1       6.279  24.313  57.282  1.00  0.00     0.184 HD
HETATM   10  O   UNL     1       8.981  26.048  57.496  1.00  0.00    -0.266 OA
BRANCH   8  11
HETATM   11  N   UNL     1       8.152  23.451  57.591  1.00  0.00    -0.203 NA
HETATM   12  H   UNL     1       9.058  23.776  57.928  1.00  0.00     0.153 HD
BRANCH  11  13
HETATM   13  C   UNL     1       8.233  22.477  56.573  1.00  0.00     0.028 A 
HETATM   14  C   UNL     1       8.066  22.797  55.218  1.00  0.00     0.032 A 
HETATM   15  C   UNL     1       8.077  21.803  54.226  1.00  0.00    -0.060 A 
HETATM   16  C   UNL     1       7.849  22.158  52.787  1.00  0.00     0.048 C 
HETATM   17  C   UNL     1       8.221  20.465  54.605  1.00  0.00     0.007 A 
HETATM   18  C   UNL     1       8.358  20.128  55.950  1.00  0.00     0.002 A 
HETATM   19  C   UNL     1       8.352  21.126  56.926  1.00  0.00     0.025 A 
ENDBRANCH  11  13
ENDBRANCH   8  11
ENDBRANCH   1   7
BRANCH   2  20
HETATM   20  C   UNL     1       8.154  29.089  57.262  1.00  0.00     0.017 A 
HETATM   21  C   UNL     1       9.043  29.333  56.205  1.00  0.00     0.046 A 
HETATM   22 CL   UNL     1       8.847  28.623  54.640  1.00  0.00    -0.083 Cl
HETATM   23  C   UNL     1      10.170  30.138  56.407  1.00  0.00     0.025 A 
HETATM   24  C   UNL     1      10.422  30.695  57.662  1.00  0.00     0.002 A 
HETATM   25  C   UNL     1       9.551  30.450  58.719  1.00  0.00     0.001 A 
HETATM   26  C   UNL     1       8.420  29.654  58.522  1.00  0.00     0.016 A 
ENDBRANCH   2  20
TORSDOF 4
ENDMDL
MODEL 4
REMARK VINA RESULT:      -8.5      2.460      4.355
REMARK  4 active torsions:
REMARK  status: ('A' for Active; 'I' for Inactive)
REMARK    1  A    between atoms: C_4  and  N_5 
REMARK    2  A    between atoms: N_5  and  N_6 
REMARK       I    between atoms: N_6  and  C_7 
REMARK    3  A    between atoms: C_7  and  C_8 
REMARK    4  A    between atoms: C_9  and  C_10 
ROOT
HETATM    1  C   UNL     1       6.361  27.857  56.841  1.00  0.00     0.081 A 
HETATM    2  C   UNL     1       6.895  29.180  56.751  1.00  0.00     0.106 A 
HETATM    3  N   UNL     1       5.934  30.073  56.460  1.00  0.00    -0.173 NA
HETATM    4  N   UNL     1       4.815  29.345  56.363  1.00  0.00    -0.288 N 
HETATM    5  H   UNL     1       3.947  29.824  56.143  1.00  0.00     0.188 HD
HETATM    6  C   UNL     1       5.009  28.023  56.605  1.00  0.00     0.128 A 
ENDROOT
BRANCH   1   7
HETATM    7  C   UNL     1       6.987  26.582  57.151  1.00  0.00     0.270 C 
HETATM    8  N   UNL     1       6.782  25.583  56.216  1.00  0.00    -0.283 N 
HETATM    9  H   UNL     1       6.192  25.695  55.399  1.00  0.00     0.184 HD
HETATM   10  O   UNL     1       7.635  26.420  58.182  1.00  0.00    -0.266 OA
BRANCH   8  11
HETATM   11  N   UNL     1       7.282  24.302  56.500  1.00  0.00    -0.203 NA
HETATM   12  H   UNL     1       8.088  24.336  57.125  1.00  0.00     0.153 HD
BRANCH  11  13
HETATM   13  C   UNL     1       7.455  23.456  55.384  1.00  0.00     0.028 A 
HETATM   14  C   UNL     1       7.922  22.139  55.508  1.00  0.00     0.032 A 
HETATM   15  C   UNL     1       8.158  21.338  54.380  1.00  0.00    -0.060 A 
HETATM   16  C   UNL     1       8.703  19.949  54.530  1.00  0.00     0.048 C 
HETATM   17  C   UNL     1       7.956  21.880  53.107  1.00  0.00     0.007 A 
HETATM   18  C   UNL     1       7.521  23.196  52.965  1.00  0.00     0.002 A 
HETATM   19  C   UNL     1       7.283  23.979  54.096  1.00  0.00     0.025 A 
ENDBRANCH  11  13
ENDBRANCH   8  11
ENDBRANCH   1   7
BRANCH   2  20
HETATM   20  C   UNL     1       8.255  29.637  57.019  1.00  0.00     0.017 A 
HETATM   21  C   UNL     1       8.597  30.359  58.172  1.00  0.00     0.046 A 
HETATM   22 CL   UNL     1       7.425  30.860  59.342  1.00  0.00    -0.083 Cl
HETATM   23  C   UNL     1       9.924  30.748  58.390  1.00  0.00     0.025 A 
HETATM   24  C   UNL     1      10.913  30.429  57.457  1.00  0.00     0.002 A 
HETATM   25  C   UNL     1      10.581  29.722  56.305  1.00  0.00     0.001 A 
HETATM   26  C   UNL     1       9.260  29.324  56.087  1.00  0.00     0.016 A 
ENDBRANCH   2  20
TORSDOF 4
ENDMDL
MODEL 5
REMARK VINA RESULT:      -8.5      3.149      6.508
REMARK  4 active torsions:
REMARK  status: ('A' for Active; 'I' for Inactive)
REMARK    1  A    between atoms: C_4  and  N_5 
REMARK    2  A    between atoms: N_5  and  N_6 
REMARK       I    between atoms: N_6  and  C_7 
REMARK    3  A    between atoms: C_7  and  C_8 
REMARK    4  A    between atoms: C_9  and  C_10 
ROOT
HETATM    1  C   UNL     1       5.828  27.256  55.059  1.00  0.00     0.081 A 
HETATM    2  C   UNL     1       5.962  25.892  55.463  1.00  0.00     0.106 A 
HETATM    3  N   UNL     1       5.168  25.615  56.510  1.00  0.00    -0.173 NA
HETATM    4  N   UNL     1       4.543  26.768  56.775  1.00  0.00    -0.288 N 
HETATM    5  H   UNL     1       3.882  26.792  57.546  1.00  0.00     0.188 HD
HETATM    6  C   UNL     1       4.881  27.772  55.924  1.00  0.00     0.128 A 
ENDROOT
BRANCH   1   7
HETATM    7  C   UNL     1       6.447  28.010  53.981  1.00  0.00     0.270 C 
HETATM    8  N   UNL     1       5.567  28.679  53.149  1.00  0.00    -0.283 N 
HETATM    9  H   UNL     1       4.558  28.610  53.231  1.00  0.00     0.184 HD
HETATM   10  O   UNL     1       7.667  28.029  53.830  1.00  0.00    -0.266 OA
BRANCH   8  11
HETATM   11  N   UNL     1       6.095  29.351  52.034  1.00  0.00    -0.203 NA
HETATM   12  H   UNL     1       6.182  30.354  52.198  1.00  0.00     0.153 HD
BRANCH  11  13
HETATM   13  C   UNL     1       5.511  29.019  50.793  1.00  0.00     0.028 A 
HETATM   14  C   UNL     1       5.007  27.738  50.523  1.00  0.00     0.032 A 
HETATM   15  C   UNL     1       4.497  27.406  49.257  1.00  0.00    -0.060 A 
HETATM   16  C   UNL     1       4.006  26.018  48.972  1.00  0.00     0.048 C 
HETATM   17  C   UNL     1       4.527  28.364  48.239  1.00  0.00     0.007 A 
HETATM   18  C   UNL     1       5.051  29.631  48.483  1.00  0.00     0.002 A 
HETATM   19  C   UNL     1       5.549  29.951  49.747  1.00  0.00     0.025 A 
ENDBRANCH  11  13
ENDBRANCH   8  11
ENDBRANCH   1   7
BRANCH   2  20
HETATM   20  C   UNL     1       6.740  24.826  54.838  1.00  0.00     0.017 A 
HETATM   21  C   UNL     1       6.429  24.302  53.575  1.00  0.00     0.046 A 
HETATM   22 CL   UNL     1       5.038  24.801  52.675  1.00  0.00    -0.083 Cl
HETATM   23  C   UNL     1       7.227  23.299  53.014  1.00  0.00     0.025 A 
HETATM   24  C   UNL     1       8.332  22.806  53.711  1.00  0.00     0.002 A 
HETATM   25  C   UNL     1       8.643  23.313  54.970  1.00  0.00     0.001 A 
HETATM   26  C   UNL     1       7.854  24.320  55.531  1.00  0.00     0.016 A 
ENDBRANCH   2  20
TORSDOF 4
ENDMDL
MODEL 6
REMARK VINA RESULT:      -8.4      3.558      5.957
REMARK  4 active torsions:
REMARK  status: ('A' for Active; 'I' for Inactive)
REMARK    1  A    between atoms: C_4  and  N_5 
REMARK    2  A    between atoms: N_5  and  N_6 
REMARK       I    between atoms: N_6  and  C_7 
REMARK    3  A    between atoms: C_7  and  C_8 
REMARK    4  A    between atoms: C_9  and  C_10 
ROOT
HETATM    1  C   UNL     1       9.216  29.345  57.467  1.00  0.00     0.081 A 
HETATM    2  C   UNL     1       9.201  30.548  58.238  1.00  0.00     0.106 A 
HETATM    3  N   UNL     1      10.344  31.237  58.086  1.00  0.00    -0.173 NA
HETATM    4  N   UNL     1      11.075  30.498  57.243  1.00  0.00    -0.288 N 
HETATM    5  H   UNL     1      11.998  30.833  56.984  1.00  0.00     0.188 HD
HETATM    6  C   UNL     1      10.441  29.372  56.825  1.00  0.00     0.128 A 
ENDROOT
BRANCH   1   7
HETATM    7  C   UNL     1       8.221  28.300  57.287  1.00  0.00     0.270 C 
HETATM    8  N   UNL     1       7.861  28.051  55.974  1.00  0.00    -0.283 N 
HETATM    9  H   UNL     1       8.209  28.589  55.188  1.00  0.00     0.184 HD
HETATM   10  O   UNL     1       7.738  27.703  58.245  1.00  0.00    -0.266 OA
BRANCH   8  11
HETATM   11  N   UNL     1       6.838  27.119  55.738  1.00  0.00    -0.203 NA
HETATM   12  H   UNL     1       6.417  26.786  56.605  1.00  0.00     0.153 HD
BRANCH  11  13
HETATM   13  C   UNL     1       7.152  26.093  54.820  1.00  0.00     0.028 A 
HETATM   14  C   UNL     1       7.281  24.753  55.212  1.00  0.00     0.032 A 
HETATM   15  C   UNL     1       7.667  23.758  54.300  1.00  0.00    -0.060 A 
HETATM   16  C   UNL     1       7.847  22.338  54.748  1.00  0.00     0.048 C 
HETATM   17  C   UNL     1       7.962  24.122  52.982  1.00  0.00     0.007 A 
HETATM   18  C   UNL     1       7.866  25.453  52.583  1.00  0.00     0.002 A 
HETATM   19  C   UNL     1       7.475  26.431  53.500  1.00  0.00     0.025 A 
ENDBRANCH  11  13
ENDBRANCH   8  11
ENDBRANCH   1   7
BRANCH   2  20
HETATM   20  C   UNL     1       8.114  31.110  59.035  1.00  0.00     0.017 A 
HETATM   21  C   UNL     1       8.184  31.233  60.431  1.00  0.00     0.046 A 
HETATM   22 CL   UNL     1       9.524  30.645  61.353  1.00  0.00    -0.083 Cl
HETATM   23  C   UNL     1       7.121  31.804  61.139  1.00  0.00     0.025 A 
HETATM   24  C   UNL     1       5.981  32.246  60.465  1.00  0.00     0.002 A 
HETATM   25  C   UNL     1       5.899  32.118  59.081  1.00  0.00     0.001 A 
HETATM   26  C   UNL     1       6.960  31.557  58.367  1.00  0.00     0.016 A 
ENDBRANCH   2  20
TORSDOF 4
ENDMDL
MODEL 7
REMARK VINA RESULT:      -8.4      2.460      3.739
REMARK  4 active torsions:
REMARK  status: ('A' for Active; 'I' for Inactive)
REMARK    1  A    between atoms: C_4  and  N_5 
REMARK    2  A    between atoms: N_5  and  N_6 
REMARK       I    between atoms: N_6  and  C_7 
REMARK    3  A    between atoms: C_7  and  C_8 
REMARK    4  A    between atoms: C_9  and  C_10 
ROOT
HETATM    1  C   UNL     1       5.512  25.885  54.529  1.00  0.00     0.081 A 
HETATM    2  C   UNL     1       5.080  27.246  54.466  1.00  0.00     0.106 A 
HETATM    3  N   UNL     1       4.287  27.455  53.402  1.00  0.00    -0.173 NA
HETATM    4  N   UNL     1       4.213  26.264  52.796  1.00  0.00    -0.288 N 
HETATM    5  H   UNL     1       3.656  26.187  51.951  1.00  0.00     0.188 HD
HETATM    6  C   UNL     1       4.905  25.288  53.440  1.00  0.00     0.128 A 
ENDROOT
BRANCH   1   7
HETATM    7  C   UNL     1       6.345  25.180  55.489  1.00  0.00     0.270 C 
HETATM    8  N   UNL     1       7.644  24.937  55.076  1.00  0.00    -0.283 N 
HETATM    9  H   UNL     1       7.989  25.172  54.151  1.00  0.00     0.184 HD
HETATM   10  O   UNL     1       5.905  24.822  56.579  1.00  0.00    -0.266 OA
BRANCH   8  11
HETATM   11  N   UNL     1       8.473  24.179  55.919  1.00  0.00    -0.203 NA
HETATM   12  H   UNL     1       9.392  24.605  56.034  1.00  0.00     0.153 HD
BRANCH  11  13
HETATM   13  C   UNL     1       8.509  22.795  55.648  1.00  0.00     0.028 A 
HETATM   14  C   UNL     1       8.479  22.288  54.340  1.00  0.00     0.032 A 
HETATM   15  C   UNL     1       8.442  20.906  54.093  1.00  0.00    -0.060 A 
HETATM   16  C   UNL     1       8.362  20.383  52.690  1.00  0.00     0.048 C 
HETATM   17  C   UNL     1       8.398  20.022  55.175  1.00  0.00     0.007 A 
HETATM   18  C   UNL     1       8.398  20.510  56.480  1.00  0.00     0.002 A 
HETATM   19  C   UNL     1       8.442  21.886  56.712  1.00  0.00     0.025 A 
ENDBRANCH  11  13
ENDBRANCH   8  11
ENDBRANCH   1   7
BRANCH   2  20
HETATM   20  C   UNL     1       5.314  28.325  55.421  1.00  0.00     0.017 A 
HETATM   21  C   UNL     1       6.566  28.936  55.580  1.00  0.00     0.046 A 
HETATM   22 CL   UNL     1       7.977  28.408  54.729  1.00  0.00    -0.083 Cl
HETATM   23  C   UNL     1       6.725  29.985  56.493  1.00  0.00     0.025 A 
HETATM   24  C   UNL     1       5.642  30.423  57.258  1.00  0.00     0.002 A 
HETATM   25  C   UNL     1       4.398  29.815  57.114  1.00  0.00     0.001 A 
HETATM   26  C   UNL     1       4.232  28.774  56.198  1.00  0.00     0.016 A 
ENDBRANCH   2  20
TORSDOF 4
ENDMDL
MODEL 8
REMARK VINA RESULT:      -8.3      2.422      4.137
REMARK  4 active torsions:
REMARK  status: ('A' for Active; 'I' for Inactive)
REMARK    1  A    between atoms: C_4  and  N_5 
REMARK    2  A    between atoms: N_5  and  N_6 
REMARK       I    between atoms: N_6  and  C_7 
REMARK    3  A    between atoms: C_7  and  C_8 
REMARK    4  A    between atoms: C_9  and  C_10 
ROOT
HETATM    1  C   UNL     1       5.431  26.704  53.231  1.00  0.00     0.081 A 
HETATM    2  C   UNL     1       5.411  27.571  54.367  1.00  0.00     0.106 A 
HETATM    3  N   UNL     1       4.242  28.224  54.461  1.00  0.00    -0.173 NA
HETATM    4  N   UNL     1       3.529  27.793  53.413  1.00  0.00    -0.288 N 
HETATM    5  H   UNL     1       2.593  28.164  53.282  1.00  0.00     0.188 HD
HETATM    6  C   UNL     1       4.182  26.868  52.661  1.00  0.00     0.128 A 
ENDROOT
BRANCH   1   7
HETATM    7  C   UNL     1       6.444  25.790  52.730  1.00  0.00     0.270 C 
HETATM    8  N   UNL     1       7.129  25.081  53.702  1.00  0.00    -0.283 N 
HETATM    9  H   UNL     1       6.991  25.221  54.697  1.00  0.00     0.184 HD
HETATM   10  O   UNL     1       6.670  25.678  51.528  1.00  0.00    -0.266 OA
BRANCH   8  11
HETATM   11  N   UNL     1       8.183  24.249  53.290  1.00  0.00    -0.203 NA
HETATM   12  H   UNL     1       8.370  24.335  52.291  1.00  0.00     0.153 HD
BRANCH  11  13
HETATM   13  C   UNL     1       8.119  22.916  53.750  1.00  0.00     0.028 A 
HETATM   14  C   UNL     1       8.254  22.587  55.107  1.00  0.00     0.032 A 
HETATM   15  C   UNL     1       8.261  21.250  55.537  1.00  0.00    -0.060 A 
HETATM   16  C   UNL     1       8.455  20.914  56.986  1.00  0.00     0.048 C 
HETATM   17  C   UNL     1       8.168  20.229  54.586  1.00  0.00     0.007 A 
HETATM   18  C   UNL     1       8.063  20.539  53.232  1.00  0.00     0.002 A 
HETATM   19  C   UNL     1       8.050  21.873  52.819  1.00  0.00     0.025 A 
ENDBRANCH  11  13
ENDBRANCH   8  11
ENDBRANCH   1   7
BRANCH   2  20
HETATM   20  C   UNL     1       6.419  27.731  55.412  1.00  0.00     0.017 A 
HETATM   21  C   UNL     1       6.412  26.975  56.593  1.00  0.00     0.046 A 
HETATM   22 CL   UNL     1       5.157  25.846  56.970  1.00  0.00    -0.083 Cl
HETATM   23  C   UNL     1       7.420  27.153  57.547  1.00  0.00     0.025 A 
HETATM   24  C   UNL     1       8.433  28.091  57.336  1.00  0.00     0.002 A 
HETATM   25  C   UNL     1       8.442  28.853  56.171  1.00  0.00     0.001 A 
HETATM   26  C   UNL     1       7.443  28.674  55.211  1.00  0.00     0.016 A 
ENDBRANCH   2  20
TORSDOF 4
ENDMDL
MODEL 9
REMARK VINA RESULT:      -8.3      3.447      5.869
REMARK  4 active torsions:
REMARK  status: ('A' for Active; 'I' for Inactive)
REMARK    1  A    between atoms: C_4  and  N_5 
REMARK    2  A    between atoms: N_5  and  N_6 
REMARK       I    between atoms: N_6  and  C_7 
REMARK    3  A    between atoms: C_7  and  C_8 
REMARK    4  A    between atoms: C_9  and  C_10 
ROOT
HETATM    1  C   UNL     1       8.989  29.532  57.600  1.00  0.00     0.081 A 
HETATM    2  C   UNL     1       9.345  30.550  58.538  1.00  0.00     0.106 A 
HETATM    3  N   UNL     1      10.374  31.286  58.089  1.00  0.00    -0.173 NA
HETATM    4  N   UNL     1      10.674  30.757  56.897  1.00  0.00    -0.288 N 
HETATM    5  H   UNL     1      11.439  31.164  56.368  1.00  0.00     0.188 HD
HETATM    6  C   UNL     1       9.864  29.725  56.546  1.00  0.00     0.128 A 
ENDROOT
BRANCH   1   7
HETATM    7  C   UNL     1       7.945  28.520  57.621  1.00  0.00     0.270 C 
HETATM    8  N   UNL     1       8.360  27.240  57.299  1.00  0.00    -0.283 N 
HETATM    9  H   UNL     1       9.305  27.016  57.007  1.00  0.00     0.184 HD
HETATM   10  O   UNL     1       6.782  28.805  57.895  1.00  0.00    -0.266 OA
BRANCH   8  11
HETATM   11  N   UNL     1       7.384  26.234  57.211  1.00  0.00    -0.203 NA
HETATM   12  H   UNL     1       7.195  25.805  58.117  1.00  0.00     0.153 HD
BRANCH  11  13
HETATM   13  C   UNL     1       7.561  25.307  56.162  1.00  0.00     0.028 A 
HETATM   14  C   UNL     1       7.627  25.703  54.818  1.00  0.00     0.032 A 
HETATM   15  C   UNL     1       7.730  24.760  53.783  1.00  0.00    -0.060 A 
HETATM   16  C   UNL     1       7.751  25.199  52.349  1.00  0.00     0.048 C 
HETATM   17  C   UNL     1       7.729  23.398  54.101  1.00  0.00     0.007 A 
HETATM   18  C   UNL     1       7.634  22.987  55.429  1.00  0.00     0.002 A 
HETATM   19  C   UNL     1       7.539  23.936  56.449  1.00  0.00     0.025 A 
ENDBRANCH  11  13
ENDBRANCH   8  11
ENDBRANCH   1   7
BRANCH   2  20
HETATM   20  C   UNL     1       8.690  30.905  59.794  1.00  0.00     0.017 A 
HETATM   21  C   UNL     1       7.447  31.552  59.842  1.00  0.00     0.046 A 
HETATM   22 CL   UNL     1       6.613  32.077  58.421  1.00  0.00    -0.083 Cl
HETATM   23  C   UNL     1       6.855  31.843  61.076  1.00  0.00     0.025 A 
HETATM   24  C   UNL     1       7.500  31.501  62.266  1.00  0.00     0.002 A 
HETATM   25  C   UNL     1       8.739  30.868  62.227  1.00  0.00     0.001 A 
HETATM   26  C   UNL     1       9.331  30.567  60.999  1.00  0.00     0.016 A 
ENDBRANCH   2  20
TORSDOF 4
ENDMDL
MODEL 10
REMARK VINA RESULT:      -8.3      2.035      5.311
REMARK  4 active torsions:
REMARK  status: ('A' for Active; 'I' for Inactive)
REMARK    1  A    between atoms: C_4  and  N_5 
REMARK    2  A    between atoms: N_5  and  N_6 
REMARK       I    between atoms: N_6  and  C_7 
REMARK    3  A    between atoms: C_7  and  C_8 
REMARK    4  A    between atoms: C_9  and  C_10 
ROOT
HETATM    1  C   UNL     1       8.244  22.914  56.382  1.00  0.00     0.081 A 
HETATM    2  C   UNL     1       7.732  22.696  55.066  1.00  0.00     0.106 A 
HETATM    3  N   UNL     1       7.500  21.392  54.844  1.00  0.00    -0.173 NA
HETATM    4  N   UNL     1       7.854  20.788  55.984  1.00  0.00    -0.288 N 
HETATM    5  H   UNL     1       7.762  19.778  56.042  1.00  0.00     0.188 HD
HETATM    6  C   UNL     1       8.282  21.651  56.942  1.00  0.00     0.128 A 
ENDROOT
BRANCH   1   7
HETATM    7  C   UNL     1       8.619  24.131  57.084  1.00  0.00     0.270 C 
HETATM    8  N   UNL     1       7.586  24.767  57.752  1.00  0.00    -0.283 N 
HETATM    9  H   UNL     1       6.622  24.456  57.715  1.00  0.00     0.184 HD
HETATM   10  O   UNL     1       9.772  24.555  57.063  1.00  0.00    -0.266 OA
BRANCH   8  11
HETATM   11  N   UNL     1       7.862  25.996  58.373  1.00  0.00    -0.203 NA
HETATM   12  H   UNL     1       7.527  26.021  59.336  1.00  0.00     0.153 HD
BRANCH  11  13
HETATM   13  C   UNL     1       7.533  27.143  57.620  1.00  0.00     0.028 A 
HETATM   14  C   UNL     1       6.230  27.390  57.165  1.00  0.00     0.032 A 
HETATM   15  C   UNL     1       5.937  28.498  56.354  1.00  0.00    -0.060 A 
HETATM   16  C   UNL     1       4.546  28.720  55.837  1.00  0.00     0.048 C 
HETATM   17  C   UNL     1       6.975  29.351  55.966  1.00  0.00     0.007 A 
HETATM   18  C   UNL     1       8.280  29.103  56.386  1.00  0.00     0.002 A 
HETATM   19  C   UNL     1       8.557  28.001  57.197  1.00  0.00     0.025 A 
ENDBRANCH  11  13
ENDBRANCH   8  11
ENDBRANCH   1   7
BRANCH   2  20
HETATM   20  C   UNL     1       7.372  23.682  54.051  1.00  0.00     0.017 A 
HETATM   21  C   UNL     1       6.322  24.597  54.223  1.00  0.00     0.046 A 
HETATM   22 CL   UNL     1       5.294  24.585  55.614  1.00  0.00    -0.083 Cl
HETATM   23  C   UNL     1       6.039  25.537  53.226  1.00  0.00     0.025 A 
HETATM   24  C   UNL     1       6.792  25.565  52.050  1.00  0.00     0.002 A 
HETATM   25  C   UNL     1       7.828  24.654  51.866  1.00  0.00     0.001 A 
HETATM   26  C   UNL     1       8.120  23.719  52.861  1.00  0.00     0.016 A 
ENDBRANCH   2  20
TORSDOF 4
ENDMDL
