MODEL 1
REMARK VINA RESULT:     -10.4      0.000      0.000
REMARK  10 active torsions:
REMARK  status: ('A' for Active; 'I' for Inactive)
REMARK    1  A    between atoms: C_2  and  C_3 
REMARK    2  A    between atoms: C_3  and  C_4 
REMARK    3  A    between atoms: C_4  and  O_5 
REMARK    4  A    between atoms: O_5  and  C_6 
REMARK    5  A    between atoms: C_8  and  C_9 
REMARK       I    between atoms: C_9  and  N_10 
REMARK    6  A    between atoms: N_10  and  C_11 
REMARK    7  A    between atoms: C_11  and  N_12 
REMARK    8  A    between atoms: N_12  and  C_13 
REMARK    9  A    between atoms: C_15  and  O_16 
REMARK   10  A    between atoms: C_17  and  C_18 
ROOT
HETATM    1  N   UNL     1       6.478  30.670  57.684  1.00  0.00    -0.333 N 
HETATM    2  H   UNL     1       7.282  31.223  57.377  1.00  0.00     0.168 HD
ENDROOT
BRANCH   1   3
HETATM    3  C   UNL     1       5.549  31.416  58.365  1.00  0.00     0.179 C 
HETATM    4  S   UNL     1       4.146  32.133  57.806  1.00  0.00    -0.040 SA
BRANCH   3   5
HETATM    5  N   UNL     1       5.814  31.579  59.717  1.00  0.00    -0.299 N 
HETATM    6  C   UNL     1       6.901  32.205  60.315  1.00  0.00     0.257 C 
HETATM    7  O   UNL     1       7.937  32.463  59.705  1.00  0.00    -0.267 OA
HETATM    8  H   UNL     1       5.064  31.239  60.299  1.00  0.00     0.171 HD
BRANCH   6   9
HETATM    9  C   UNL     1       6.797  32.502  61.775  1.00  0.00     0.035 A 
HETATM   10  C   UNL     1       5.571  32.706  62.419  1.00  0.00     0.053 A 
HETATM   11  C   UNL     1       5.551  32.974  63.789  1.00  0.00     0.069 A 
HETATM   12  C   UNL     1       6.729  33.103  64.517  1.00  0.00     0.037 A 
HETATM   13  C   UNL     1       7.952  32.924  63.876  1.00  0.00     0.004 A 
HETATM   14  C   UNL     1       7.986  32.620  62.512  1.00  0.00     0.017 A 
BRANCH  11  15
HETATM   15  O   UNL     1       4.353  33.183  64.413  1.00  0.00    -0.351 OA
BRANCH  15  16
HETATM   16  C   UNL     1       4.534  33.862  65.663  1.00  0.00     0.175 C 
BRANCH  16  17
HETATM   17  C   UNL     1       3.767  35.182  65.637  1.00  0.00     0.026 C 
BRANCH  17  18
HETATM   18  C   UNL     1       4.690  36.387  65.446  1.00  0.00    -0.002 C 
HETATM   19  C   UNL     1       4.926  36.677  63.972  1.00  0.00     0.005 C 
ENDBRANCH  17  18
ENDBRANCH  16  17
ENDBRANCH  15  16
ENDBRANCH  11  15
ENDBRANCH   6   9
ENDBRANCH   3   5
ENDBRANCH   1   3
BRANCH   1  20
HETATM   20  C   UNL     1       6.555  29.300  57.358  1.00  0.00     0.036 A 
HETATM   21  C   UNL     1       5.563  28.580  56.695  1.00  0.00     0.067 A 
HETATM   22  C   UNL     1       5.766  27.235  56.350  1.00  0.00     0.082 A 
HETATM   23  C   UNL     1       6.968  26.578  56.650  1.00  0.00     0.050 A 
HETATM   24  C   UNL     1       7.952  27.309  57.331  1.00  0.00     0.021 A 
HETATM   25  C   UNL     1       7.756  28.653  57.668  1.00  0.00     0.030 A 
BRANCH  22  26
HETATM   26  O   UNL     1       4.754  26.568  55.708  1.00  0.00    -0.360 OA
HETATM   27  H   UNL     1       5.042  26.322  54.814  1.00  0.00     0.217 HD
ENDBRANCH  22  26
BRANCH  23  28
HETATM   28  C   UNL     1       7.267  25.193  56.284  1.00  0.00     0.183 A 
HETATM   29  O   UNL     1       7.132  24.847  54.963  1.00  0.00    -0.289 OA
HETATM   30  C   UNL     1       7.548  23.550  54.914  1.00  0.00     0.107 A 
HETATM   31  C   UNL     1       7.921  23.177  56.192  1.00  0.00     0.093 A 
HETATM   32  C   UNL     1       7.608  22.729  53.795  1.00  0.00     0.046 A 
HETATM   33  N   UNL     1       7.750  24.229  57.054  1.00  0.00    -0.221 NA
HETATM   34  C   UNL     1       8.400  21.879  56.403  1.00  0.00     0.035 A 
HETATM   35  C   UNL     1       8.479  21.015  55.300  1.00  0.00     0.009 A 
HETATM   36  C   UNL     1       8.085  21.425  54.011  1.00  0.00    -0.059 A 
HETATM   37  C   UNL     1       8.216  20.470  52.859  1.00  0.00     0.048 C 
ENDBRANCH  23  28
ENDBRANCH   1  20
TORSDOF 10
ENDMDL
MODEL 2
REMARK VINA RESULT:     -10.0      1.545      1.862
REMARK  10 active torsions:
REMARK  status: ('A' for Active; 'I' for Inactive)
REMARK    1  A    between atoms: C_2  and  C_3 
REMARK    2  A    between atoms: C_3  and  C_4 
REMARK    3  A    between atoms: C_4  and  O_5 
REMARK    4  A    between atoms: O_5  and  C_6 
REMARK    5  A    between atoms: C_8  and  C_9 
REMARK       I    between atoms: C_9  and  N_10 
REMARK    6  A    between atoms: N_10  and  C_11 
REMARK    7  A    between atoms: C_11  and  N_12 
REMARK    8  A    between atoms: N_12  and  C_13 
REMARK    9  A    between atoms: C_15  and  O_16 
REMARK   10  A    between atoms: C_17  and  C_18 
ROOT
HETATM    1  N   UNL     1       6.755  30.473  58.581  1.00  0.00    -0.333 N 
HETATM    2  H   UNL     1       5.884  30.996  58.467  1.00  0.00     0.168 HD
ENDROOT
BRANCH   1   3
HETATM    3  C   UNL     1       7.662  31.121  59.381  1.00  0.00     0.179 C 
HETATM    4  S   UNL     1       9.243  31.559  59.055  1.00  0.00    -0.040 SA
BRANCH   3   5
HETATM    5  N   UNL     1       7.183  31.473  60.635  1.00  0.00    -0.299 N 
HETATM    6  C   UNL     1       7.904  31.755  61.788  1.00  0.00     0.257 C 
HETATM    7  O   UNL     1       9.089  31.454  61.921  1.00  0.00    -0.267 OA
HETATM    8  H   UNL     1       6.180  31.586  60.644  1.00  0.00     0.171 HD
BRANCH   6   9
HETATM    9  C   UNL     1       7.162  32.392  62.916  1.00  0.00     0.035 A 
HETATM   10  C   UNL     1       5.770  32.540  62.918  1.00  0.00     0.053 A 
HETATM   11  C   UNL     1       5.143  33.141  64.011  1.00  0.00     0.069 A 
HETATM   12  C   UNL     1       5.880  33.651  65.075  1.00  0.00     0.037 A 
HETATM   13  C   UNL     1       7.267  33.527  65.067  1.00  0.00     0.004 A 
HETATM   14  C   UNL     1       7.905  32.896  63.995  1.00  0.00     0.017 A 
BRANCH  11  15
HETATM   15  O   UNL     1       3.785  33.293  64.004  1.00  0.00    -0.351 OA
BRANCH  15  16
HETATM   16  C   UNL     1       3.409  34.588  64.491  1.00  0.00     0.175 C 
BRANCH  16  17
HETATM   17  C   UNL     1       3.386  35.579  63.329  1.00  0.00     0.026 C 
BRANCH  17  18
HETATM   18  C   UNL     1       4.255  36.809  63.596  1.00  0.00    -0.002 C 
HETATM   19  C   UNL     1       5.624  36.671  62.948  1.00  0.00     0.005 C 
ENDBRANCH  17  18
ENDBRANCH  16  17
ENDBRANCH  15  16
ENDBRANCH  11  15
ENDBRANCH   6   9
ENDBRANCH   3   5
ENDBRANCH   1   3
BRANCH   1  20
HETATM   20  C   UNL     1       6.804  29.258  57.867  1.00  0.00     0.036 A 
HETATM   21  C   UNL     1       5.729  28.687  57.189  1.00  0.00     0.067 A 
HETATM   22  C   UNL     1       5.897  27.509  56.444  1.00  0.00     0.082 A 
HETATM   23  C   UNL     1       7.146  26.877  56.351  1.00  0.00     0.050 A 
HETATM   24  C   UNL     1       8.216  27.453  57.052  1.00  0.00     0.021 A 
HETATM   25  C   UNL     1       8.053  28.633  57.786  1.00  0.00     0.030 A 
BRANCH  22  26
HETATM   26  O   UNL     1       4.805  26.982  55.804  1.00  0.00    -0.360 OA
HETATM   27  H   UNL     1       4.842  26.012  55.844  1.00  0.00     0.217 HD
ENDBRANCH  22  26
BRANCH  23  28
HETATM   28  C   UNL     1       7.407  25.674  55.561  1.00  0.00     0.183 A 
HETATM   29  O   UNL     1       7.890  24.575  56.225  1.00  0.00    -0.289 OA
HETATM   30  C   UNL     1       7.955  23.608  55.267  1.00  0.00     0.107 A 
HETATM   31  C   UNL     1       7.503  24.156  54.081  1.00  0.00     0.093 A 
HETATM   32  C   UNL     1       8.382  22.296  55.427  1.00  0.00     0.046 A 
HETATM   33  N   UNL     1       7.147  25.465  54.278  1.00  0.00    -0.221 NA
HETATM   34  C   UNL     1       7.463  23.351  52.937  1.00  0.00     0.035 A 
HETATM   35  C   UNL     1       7.885  22.017  53.052  1.00  0.00     0.009 A 
HETATM   36  C   UNL     1       8.344  21.490  54.274  1.00  0.00    -0.059 A 
HETATM   37  C   UNL     1       8.758  20.048  54.351  1.00  0.00     0.048 C 
ENDBRANCH  23  28
ENDBRANCH   1  20
TORSDOF 10
ENDMDL
MODEL 3
REMARK VINA RESULT:     -10.0      1.195      1.757
REMARK  10 active torsions:
REMARK  status: ('A' for Active; 'I' for Inactive)
REMARK    1  A    between atoms: C_2  and  C_3 
REMARK    2  A    between atoms: C_3  and  C_4 
REMARK    3  A    between atoms: C_4  and  O_5 
REMARK    4  A    between atoms: O_5  and  C_6 
REMARK    5  A    between atoms: C_8  and  C_9 
REMARK       I    between atoms: C_9  and  N_10 
REMARK    6  A    between atoms: N_10  and  C_11 
REMARK    7  A    between atoms: C_11  and  N_12 
REMARK    8  A    between atoms: N_12  and  C_13 
REMARK    9  A    between atoms: C_15  and  O_16 
REMARK   10  A    between atoms: C_17  and  C_18 
ROOT
HETATM    1  N   UNL     1       4.591  30.203  57.866  1.00  0.00    -0.333 N 
HETATM    2  H   UNL     1       3.597  30.030  58.030  1.00  0.00     0.168 HD
ENDROOT
BRANCH   1   3
HETATM    3  C   UNL     1       4.983  31.461  58.252  1.00  0.00     0.179 C 
HETATM    4  S   UNL     1       4.983  32.887  57.380  1.00  0.00    -0.040 SA
BRANCH   3   5
HETATM    5  N   UNL     1       5.426  31.553  59.564  1.00  0.00    -0.299 N 
HETATM    6  C   UNL     1       6.623  32.077  60.036  1.00  0.00     0.257 C 
HETATM    7  O   UNL     1       7.592  32.284  59.307  1.00  0.00    -0.267 OA
HETATM    8  H   UNL     1       4.731  31.246  60.227  1.00  0.00     0.171 HD
BRANCH   6   9
HETATM    9  C   UNL     1       6.724  32.325  61.505  1.00  0.00     0.035 A 
HETATM   10  C   UNL     1       5.602  32.408  62.337  1.00  0.00     0.053 A 
HETATM   11  C   UNL     1       5.774  32.637  63.703  1.00  0.00     0.069 A 
HETATM   12  C   UNL     1       7.038  32.845  64.247  1.00  0.00     0.037 A 
HETATM   13  C   UNL     1       8.156  32.786  63.419  1.00  0.00     0.004 A 
HETATM   14  C   UNL     1       8.001  32.523  62.055  1.00  0.00     0.017 A 
BRANCH  11  15
HETATM   15  O   UNL     1       4.676  32.728  64.511  1.00  0.00    -0.351 OA
BRANCH  15  16
HETATM   16  C   UNL     1       4.605  34.013  65.143  1.00  0.00     0.175 C 
BRANCH  16  17
HETATM   17  C   UNL     1       3.450  34.810  64.541  1.00  0.00     0.026 C 
BRANCH  17  18
HETATM   18  C   UNL     1       3.901  36.164  63.992  1.00  0.00    -0.002 C 
HETATM   19  C   UNL     1       5.417  36.252  63.913  1.00  0.00     0.005 C 
ENDBRANCH  17  18
ENDBRANCH  16  17
ENDBRANCH  15  16
ENDBRANCH  11  15
ENDBRANCH   6   9
ENDBRANCH   3   5
ENDBRANCH   1   3
BRANCH   1  20
HETATM   20  C   UNL     1       5.278  29.129  57.264  1.00  0.00     0.036 A 
HETATM   21  C   UNL     1       6.528  28.657  57.660  1.00  0.00     0.067 A 
HETATM   22  C   UNL     1       7.096  27.532  57.042  1.00  0.00     0.082 A 
HETATM   23  C   UNL     1       6.425  26.845  56.020  1.00  0.00     0.050 A 
HETATM   24  C   UNL     1       5.175  27.339  55.620  1.00  0.00     0.021 A 
HETATM   25  C   UNL     1       4.603  28.454  56.241  1.00  0.00     0.030 A 
BRANCH  22  26
HETATM   26  O   UNL     1       8.333  27.116  57.461  1.00  0.00    -0.360 OA
HETATM   27  H   UNL     1       8.891  27.889  57.647  1.00  0.00     0.217 HD
ENDBRANCH  22  26
BRANCH  23  28
HETATM   28  C   UNL     1       6.935  25.642  55.361  1.00  0.00     0.183 A 
HETATM   29  O   UNL     1       7.166  24.541  56.148  1.00  0.00    -0.289 OA
HETATM   30  C   UNL     1       7.547  23.575  55.267  1.00  0.00     0.107 A 
HETATM   31  C   UNL     1       7.521  24.124  53.998  1.00  0.00     0.093 A 
HETATM   32  C   UNL     1       7.895  22.262  55.559  1.00  0.00     0.046 A 
HETATM   33  N   UNL     1       7.120  25.434  54.066  1.00  0.00    -0.221 NA
HETATM   34  C   UNL     1       7.865  23.320  52.906  1.00  0.00     0.035 A 
HETATM   35  C   UNL     1       8.223  21.985  53.154  1.00  0.00     0.009 A 
HETATM   36  C   UNL     1       8.245  21.457  54.460  1.00  0.00    -0.059 A 
HETATM   37  C   UNL     1       8.607  20.014  54.669  1.00  0.00     0.048 C 
ENDBRANCH  23  28
ENDBRANCH   1  20
TORSDOF 10
ENDMDL
MODEL 4
REMARK VINA RESULT:      -9.9      1.545      2.246
REMARK  10 active torsions:
REMARK  status: ('A' for Active; 'I' for Inactive)
REMARK    1  A    between atoms: C_2  and  C_3 
REMARK    2  A    between atoms: C_3  and  C_4 
REMARK    3  A    between atoms: C_4  and  O_5 
REMARK    4  A    between atoms: O_5  and  C_6 
REMARK    5  A    between atoms: C_8  and  C_9 
REMARK       I    between atoms: C_9  and  N_10 
REMARK    6  A    between atoms: N_10  and  C_11 
REMARK    7  A    between atoms: C_11  and  N_12 
REMARK    8  A    between atoms: N_12  and  C_13 
REMARK    9  A    between atoms: C_15  and  O_16 
REMARK   10  A    between atoms: C_17  and  C_18 
ROOT
HETATM    1  N   UNL     1       6.616  30.247  57.891  1.00  0.00    -0.333 N 
HETATM    2  H   UNL     1       5.884  30.791  57.429  1.00  0.00     0.168 HD
ENDROOT
BRANCH   1   3
HETATM    3  C   UNL     1       7.370  30.999  58.757  1.00  0.00     0.179 C 
HETATM    4  S   UNL     1       9.031  31.180  58.835  1.00  0.00    -0.040 SA
BRANCH   3   5
HETATM    5  N   UNL     1       6.638  31.722  59.688  1.00  0.00    -0.299 N 
HETATM    6  C   UNL     1       5.650  32.671  59.461  1.00  0.00     0.257 C 
HETATM    7  O   UNL     1       5.483  33.208  58.368  1.00  0.00    -0.267 OA
HETATM    8  H   UNL     1       6.841  31.442  60.636  1.00  0.00     0.171 HD
BRANCH   6   9
HETATM    9  C   UNL     1       4.817  33.079  60.632  1.00  0.00     0.035 A 
HETATM   10  C   UNL     1       5.093  32.661  61.939  1.00  0.00     0.053 A 
HETATM   11  C   UNL     1       4.274  33.088  62.985  1.00  0.00     0.069 A 
HETATM   12  C   UNL     1       3.150  33.873  62.748  1.00  0.00     0.037 A 
HETATM   13  C   UNL     1       2.858  34.272  61.446  1.00  0.00     0.004 A 
HETATM   14  C   UNL     1       3.690  33.881  60.393  1.00  0.00     0.017 A 
BRANCH  11  15
HETATM   15  O   UNL     1       4.541  32.669  64.258  1.00  0.00    -0.351 OA
BRANCH  15  16
HETATM   16  C   UNL     1       4.705  33.784  65.144  1.00  0.00     0.175 C 
BRANCH  16  17
HETATM   17  C   UNL     1       6.080  34.410  64.921  1.00  0.00     0.026 C 
BRANCH  17  18
HETATM   18  C   UNL     1       7.219  33.434  65.223  1.00  0.00    -0.002 C 
HETATM   19  C   UNL     1       7.965  33.046  63.956  1.00  0.00     0.005 C 
ENDBRANCH  17  18
ENDBRANCH  16  17
ENDBRANCH  15  16
ENDBRANCH  11  15
ENDBRANCH   6   9
ENDBRANCH   3   5
ENDBRANCH   1   3
BRANCH   1  20
HETATM   20  C   UNL     1       6.674  28.895  57.496  1.00  0.00     0.036 A 
HETATM   21  C   UNL     1       5.705  28.242  56.736  1.00  0.00     0.067 A 
HETATM   22  C   UNL     1       5.891  26.912  56.330  1.00  0.00     0.082 A 
HETATM   23  C   UNL     1       7.054  26.203  56.665  1.00  0.00     0.050 A 
HETATM   24  C   UNL     1       8.014  26.866  57.443  1.00  0.00     0.021 A 
HETATM   25  C   UNL     1       7.835  28.195  57.841  1.00  0.00     0.030 A 
BRANCH  22  26
HETATM   26  O   UNL     1       4.902  26.312  55.594  1.00  0.00    -0.360 OA
HETATM   27  H   UNL     1       4.628  26.904  54.875  1.00  0.00     0.217 HD
ENDBRANCH  22  26
BRANCH  23  28
HETATM   28  C   UNL     1       7.336  24.831  56.242  1.00  0.00     0.183 A 
HETATM   29  O   UNL     1       7.249  24.553  54.901  1.00  0.00    -0.289 OA
HETATM   30  C   UNL     1       7.636  23.251  54.804  1.00  0.00     0.107 A 
HETATM   31  C   UNL     1       7.947  22.805  56.075  1.00  0.00     0.093 A 
HETATM   32  C   UNL     1       7.725  22.486  53.647  1.00  0.00     0.046 A 
HETATM   33  N   UNL     1       7.764  23.818  56.981  1.00  0.00    -0.221 NA
HETATM   34  C   UNL     1       8.386  21.487  56.240  1.00  0.00     0.035 A 
HETATM   35  C   UNL     1       8.491  20.677  55.098  1.00  0.00     0.009 A 
HETATM   36  C   UNL     1       8.162  21.160  53.817  1.00  0.00    -0.059 A 
HETATM   37  C   UNL     1       8.319  20.261  52.624  1.00  0.00     0.048 C 
ENDBRANCH  23  28
ENDBRANCH   1  20
TORSDOF 10
ENDMDL
MODEL 5
REMARK VINA RESULT:      -9.8      2.249     12.217
REMARK  10 active torsions:
REMARK  status: ('A' for Active; 'I' for Inactive)
REMARK    1  A    between atoms: C_2  and  C_3 
REMARK    2  A    between atoms: C_3  and  C_4 
REMARK    3  A    between atoms: C_4  and  O_5 
REMARK    4  A    between atoms: O_5  and  C_6 
REMARK    5  A    between atoms: C_8  and  C_9 
REMARK       I    between atoms: C_9  and  N_10 
REMARK    6  A    between atoms: N_10  and  C_11 
REMARK    7  A    between atoms: C_11  and  N_12 
REMARK    8  A    between atoms: N_12  and  C_13 
REMARK    9  A    between atoms: C_15  and  O_16 
REMARK   10  A    between atoms: C_17  and  C_18 
ROOT
HETATM    1  N   UNL     1       8.107  30.161  57.656  1.00  0.00    -0.333 N 
HETATM    2  H   UNL     1       7.354  30.295  56.976  1.00  0.00     0.168 HD
ENDROOT
BRANCH   1   3
HETATM    3  C   UNL     1       9.189  29.503  57.127  1.00  0.00     0.179 C 
HETATM    4  S   UNL     1      10.785  29.993  57.028  1.00  0.00    -0.040 SA
BRANCH   3   5
HETATM    5  N   UNL     1       8.910  28.243  56.617  1.00  0.00    -0.299 N 
HETATM    6  C   UNL     1       8.142  27.233  57.181  1.00  0.00     0.257 C 
HETATM    7  O   UNL     1       7.824  27.225  58.369  1.00  0.00    -0.267 OA
HETATM    8  H   UNL     1       9.283  28.114  55.688  1.00  0.00     0.171 HD
BRANCH   6   9
HETATM    9  C   UNL     1       7.759  26.094  56.295  1.00  0.00     0.035 A 
HETATM   10  C   UNL     1       8.402  24.851  56.340  1.00  0.00     0.053 A 
HETATM   11  C   UNL     1       7.985  23.830  55.485  1.00  0.00     0.069 A 
HETATM   12  C   UNL     1       6.982  24.040  54.544  1.00  0.00     0.037 A 
HETATM   13  C   UNL     1       6.355  25.282  54.480  1.00  0.00     0.004 A 
HETATM   14  C   UNL     1       6.738  26.303  55.354  1.00  0.00     0.017 A 
BRANCH  11  15
HETATM   15  O   UNL     1       8.622  22.621  55.524  1.00  0.00    -0.351 OA
BRANCH  15  16
HETATM   16  C   UNL     1       7.688  21.552  55.726  1.00  0.00     0.175 C 
BRANCH  16  17
HETATM   17  C   UNL     1       8.385  20.217  55.474  1.00  0.00     0.026 C 
BRANCH  17  18
HETATM   18  C   UNL     1       8.878  20.080  54.032  1.00  0.00    -0.002 C 
HETATM   19  C   UNL     1       7.842  20.592  53.043  1.00  0.00     0.005 C 
ENDBRANCH  17  18
ENDBRANCH  16  17
ENDBRANCH  15  16
ENDBRANCH  11  15
ENDBRANCH   6   9
ENDBRANCH   3   5
ENDBRANCH   1   3
BRANCH   1  20
HETATM   20  C   UNL     1       7.820  30.651  58.947  1.00  0.00     0.036 A 
HETATM   21  C   UNL     1       8.529  30.323  60.101  1.00  0.00     0.067 A 
HETATM   22  C   UNL     1       8.212  30.922  61.330  1.00  0.00     0.082 A 
HETATM   23  C   UNL     1       7.184  31.871  61.434  1.00  0.00     0.050 A 
HETATM   24  C   UNL     1       6.468  32.181  60.268  1.00  0.00     0.021 A 
HETATM   25  C   UNL     1       6.789  31.591  59.041  1.00  0.00     0.030 A 
BRANCH  22  26
HETATM   26  O   UNL     1       8.932  30.556  62.437  1.00  0.00    -0.360 OA
HETATM   27  H   UNL     1       8.739  29.631  62.659  1.00  0.00     0.217 HD
ENDBRANCH  22  26
BRANCH  23  28
HETATM   28  C   UNL     1       6.826  32.568  62.670  1.00  0.00     0.183 A 
HETATM   29  O   UNL     1       5.559  33.087  62.757  1.00  0.00    -0.289 OA
HETATM   30  C   UNL     1       5.491  33.592  64.020  1.00  0.00     0.107 A 
HETATM   31  C   UNL     1       6.703  33.349  64.639  1.00  0.00     0.093 A 
HETATM   32  C   UNL     1       4.408  34.230  64.612  1.00  0.00     0.046 A 
HETATM   33  N   UNL     1       7.541  32.689  63.778  1.00  0.00    -0.221 NA
HETATM   34  C   UNL     1       6.881  33.767  65.962  1.00  0.00     0.035 A 
HETATM   35  C   UNL     1       5.813  34.416  66.601  1.00  0.00     0.009 A 
HETATM   36  C   UNL     1       4.592  34.653  65.941  1.00  0.00    -0.059 A 
HETATM   37  C   UNL     1       3.470  35.327  66.678  1.00  0.00     0.048 C 
ENDBRANCH  23  28
ENDBRANCH   1  20
TORSDOF 10
ENDMDL
MODEL 6
REMARK VINA RESULT:      -9.2      1.709      2.686
REMARK  10 active torsions:
REMARK  status: ('A' for Active; 'I' for Inactive)
REMARK    1  A    between atoms: C_2  and  C_3 
REMARK    2  A    between atoms: C_3  and  C_4 
REMARK    3  A    between atoms: C_4  and  O_5 
REMARK    4  A    between atoms: O_5  and  C_6 
REMARK    5  A    between atoms: C_8  and  C_9 
REMARK       I    between atoms: C_9  and  N_10 
REMARK    6  A    between atoms: N_10  and  C_11 
REMARK    7  A    between atoms: C_11  and  N_12 
REMARK    8  A    between atoms: N_12  and  C_13 
REMARK    9  A    between atoms: C_15  and  O_16 
REMARK   10  A    between atoms: C_17  and  C_18 
ROOT
HETATM    1  N   UNL     1       5.364  30.832  56.600  1.00  0.00    -0.333 N 
HETATM    2  H   UNL     1       6.148  31.489  56.604  1.00  0.00     0.168 HD
ENDROOT
BRANCH   1   3
HETATM    3  C   UNL     1       4.167  31.432  56.904  1.00  0.00     0.179 C 
HETATM    4  S   UNL     1       2.892  31.826  55.897  1.00  0.00    -0.040 SA
BRANCH   3   5
HETATM    5  N   UNL     1       3.995  31.736  58.246  1.00  0.00    -0.299 N 
HETATM    6  C   UNL     1       4.824  32.480  59.076  1.00  0.00     0.257 C 
HETATM    7  O   UNL     1       5.990  32.744  58.788  1.00  0.00    -0.267 OA
HETATM    8  H   UNL     1       3.111  31.407  58.604  1.00  0.00     0.171 HD
BRANCH   6   9
HETATM    9  C   UNL     1       4.263  32.906  60.393  1.00  0.00     0.035 A 
HETATM   10  C   UNL     1       4.777  32.458  61.615  1.00  0.00     0.053 A 
HETATM   11  C   UNL     1       4.205  32.903  62.808  1.00  0.00     0.069 A 
HETATM   12  C   UNL     1       3.093  33.739  62.806  1.00  0.00     0.037 A 
HETATM   13  C   UNL     1       2.563  34.169  61.593  1.00  0.00     0.004 A 
HETATM   14  C   UNL     1       3.148  33.759  60.392  1.00  0.00     0.017 A 
BRANCH  11  15
HETATM   15  O   UNL     1       4.703  32.455  63.998  1.00  0.00    -0.351 OA
BRANCH  15  16
HETATM   16  C   UNL     1       5.089  33.549  64.841  1.00  0.00     0.175 C 
BRANCH  16  17
HETATM   17  C   UNL     1       6.432  34.102  64.370  1.00  0.00     0.026 C 
BRANCH  17  18
HETATM   18  C   UNL     1       7.569  33.092  64.539  1.00  0.00    -0.002 C 
HETATM   19  C   UNL     1       8.129  32.660  63.193  1.00  0.00     0.005 C 
ENDBRANCH  17  18
ENDBRANCH  16  17
ENDBRANCH  15  16
ENDBRANCH  11  15
ENDBRANCH   6   9
ENDBRANCH   3   5
ENDBRANCH   1   3
BRANCH   1  20
HETATM   20  C   UNL     1       5.723  29.497  56.320  1.00  0.00     0.036 A 
HETATM   21  C   UNL     1       4.962  28.379  56.654  1.00  0.00     0.067 A 
HETATM   22  C   UNL     1       5.371  27.094  56.266  1.00  0.00     0.082 A 
HETATM   23  C   UNL     1       6.546  26.895  55.526  1.00  0.00     0.050 A 
HETATM   24  C   UNL     1       7.311  28.027  55.210  1.00  0.00     0.021 A 
HETATM   25  C   UNL     1       6.900  29.310  55.588  1.00  0.00     0.030 A 
BRANCH  22  26
HETATM   26  O   UNL     1       4.592  26.026  56.629  1.00  0.00    -0.360 OA
HETATM   27  H   UNL     1       4.018  26.279  57.371  1.00  0.00     0.217 HD
ENDBRANCH  22  26
BRANCH  23  28
HETATM   28  C   UNL     1       7.012  25.592  55.050  1.00  0.00     0.183 A 
HETATM   29  O   UNL     1       7.208  24.610  55.988  1.00  0.00    -0.289 OA
HETATM   30  C   UNL     1       7.553  23.514  55.257  1.00  0.00     0.107 A 
HETATM   31  C   UNL     1       7.541  23.873  53.922  1.00  0.00     0.093 A 
HETATM   32  C   UNL     1       7.856  22.246  55.738  1.00  0.00     0.046 A 
HETATM   33  N   UNL     1       7.185  25.192  53.799  1.00  0.00    -0.221 NA
HETATM   34  C   UNL     1       7.854  22.908  52.960  1.00  0.00     0.035 A 
HETATM   35  C   UNL     1       8.166  21.612  53.400  1.00  0.00     0.009 A 
HETATM   36  C   UNL     1       8.175  21.279  54.768  1.00  0.00    -0.059 A 
HETATM   37  C   UNL     1       8.489  19.870  55.185  1.00  0.00     0.048 C 
ENDBRANCH  23  28
ENDBRANCH   1  20
TORSDOF 10
ENDMDL
MODEL 7
REMARK VINA RESULT:      -9.1      2.044     11.699
REMARK  10 active torsions:
REMARK  status: ('A' for Active; 'I' for Inactive)
REMARK    1  A    between atoms: C_2  and  C_3 
REMARK    2  A    between atoms: C_3  and  C_4 
REMARK    3  A    between atoms: C_4  and  O_5 
REMARK    4  A    between atoms: O_5  and  C_6 
REMARK    5  A    between atoms: C_8  and  C_9 
REMARK       I    between atoms: C_9  and  N_10 
REMARK    6  A    between atoms: N_10  and  C_11 
REMARK    7  A    between atoms: C_11  and  N_12 
REMARK    8  A    between atoms: N_12  and  C_13 
REMARK    9  A    between atoms: C_15  and  O_16 
REMARK   10  A    between atoms: C_17  and  C_18 
ROOT
HETATM    1  N   UNL     1       6.122  30.910  56.515  1.00  0.00    -0.333 N 
HETATM    2  H   UNL     1       6.891  31.243  55.929  1.00  0.00     0.168 HD
ENDROOT
BRANCH   1   3
HETATM    3  C   UNL     1       5.330  29.988  55.877  1.00  0.00     0.179 C 
HETATM    4  S   UNL     1       3.833  30.191  55.161  1.00  0.00    -0.040 SA
BRANCH   3   5
HETATM    5  N   UNL     1       5.865  28.710  55.808  1.00  0.00    -0.299 N 
HETATM    6  C   UNL     1       7.191  28.320  55.949  1.00  0.00     0.257 C 
HETATM    7  O   UNL     1       8.128  29.114  55.878  1.00  0.00    -0.267 OA
HETATM    8  H   UNL     1       5.155  28.001  55.704  1.00  0.00     0.171 HD
BRANCH   6   9
HETATM    9  C   UNL     1       7.456  26.862  56.127  1.00  0.00     0.035 A 
HETATM   10  C   UNL     1       6.879  25.883  55.311  1.00  0.00     0.053 A 
HETATM   11  C   UNL     1       7.178  24.538  55.532  1.00  0.00     0.069 A 
HETATM   12  C   UNL     1       7.993  24.144  56.589  1.00  0.00     0.037 A 
HETATM   13  C   UNL     1       8.552  25.113  57.418  1.00  0.00     0.004 A 
HETATM   14  C   UNL     1       8.289  26.466  57.186  1.00  0.00     0.017 A 
BRANCH  11  15
HETATM   15  O   UNL     1       6.603  23.584  54.740  1.00  0.00    -0.351 OA
BRANCH  15  16
HETATM   16  C   UNL     1       6.876  23.832  53.354  1.00  0.00     0.175 C 
BRANCH  16  17
HETATM   17  C   UNL     1       7.934  22.846  52.863  1.00  0.00     0.026 C 
BRANCH  17  18
HETATM   18  C   UNL     1       7.917  21.534  53.650  1.00  0.00    -0.002 C 
HETATM   19  C   UNL     1       8.459  20.382  52.818  1.00  0.00     0.005 C 
ENDBRANCH  17  18
ENDBRANCH  16  17
ENDBRANCH  15  16
ENDBRANCH  11  15
ENDBRANCH   6   9
ENDBRANCH   3   5
ENDBRANCH   1   3
BRANCH   1  20
HETATM   20  C   UNL     1       6.063  31.503  57.793  1.00  0.00     0.036 A 
HETATM   21  C   UNL     1       4.968  32.201  58.299  1.00  0.00     0.067 A 
HETATM   22  C   UNL     1       4.979  32.692  59.614  1.00  0.00     0.082 A 
HETATM   23  C   UNL     1       6.080  32.489  60.459  1.00  0.00     0.050 A 
HETATM   24  C   UNL     1       7.182  31.799  59.932  1.00  0.00     0.021 A 
HETATM   25  C   UNL     1       7.169  31.300  58.625  1.00  0.00     0.030 A 
BRANCH  22  26
HETATM   26  O   UNL     1       3.882  33.382  60.060  1.00  0.00    -0.360 OA
HETATM   27  H   UNL     1       3.896  34.284  59.699  1.00  0.00     0.217 HD
ENDBRANCH  22  26
BRANCH  23  28
HETATM   28  C   UNL     1       6.146  32.933  61.851  1.00  0.00     0.183 A 
HETATM   29  O   UNL     1       4.962  33.040  62.536  1.00  0.00    -0.289 OA
HETATM   30  C   UNL     1       5.336  33.385  63.799  1.00  0.00     0.107 A 
HETATM   31  C   UNL     1       6.717  33.462  63.826  1.00  0.00     0.093 A 
HETATM   32  C   UNL     1       4.505  33.614  64.889  1.00  0.00     0.046 A 
HETATM   33  N   UNL     1       7.224  33.163  62.588  1.00  0.00    -0.221 NA
HETATM   34  C   UNL     1       7.352  33.793  65.028  1.00  0.00     0.035 A 
HETATM   35  C   UNL     1       6.551  34.033  66.156  1.00  0.00     0.009 A 
HETATM   36  C   UNL     1       5.146  33.952  66.094  1.00  0.00    -0.059 A 
HETATM   37  C   UNL     1       4.336  34.189  67.337  1.00  0.00     0.048 C 
ENDBRANCH  23  28
ENDBRANCH   1  20
TORSDOF 10
ENDMDL
MODEL 8
REMARK VINA RESULT:      -9.1      1.702      2.235
REMARK  10 active torsions:
REMARK  status: ('A' for Active; 'I' for Inactive)
REMARK    1  A    between atoms: C_2  and  C_3 
REMARK    2  A    between atoms: C_3  and  C_4 
REMARK    3  A    between atoms: C_4  and  O_5 
REMARK    4  A    between atoms: O_5  and  C_6 
REMARK    5  A    between atoms: C_8  and  C_9 
REMARK       I    between atoms: C_9  and  N_10 
REMARK    6  A    between atoms: N_10  and  C_11 
REMARK    7  A    between atoms: C_11  and  N_12 
REMARK    8  A    between atoms: N_12  and  C_13 
REMARK    9  A    between atoms: C_15  and  O_16 
REMARK   10  A    between atoms: C_17  and  C_18 
ROOT
HETATM    1  N   UNL     1       4.421  31.079  58.380  1.00  0.00    -0.333 N 
HETATM    2  H   UNL     1       3.650  30.864  59.017  1.00  0.00     0.168 HD
ENDROOT
BRANCH   1   3
HETATM    3  C   UNL     1       4.863  32.373  58.500  1.00  0.00     0.179 C 
HETATM    4  S   UNL     1       4.894  33.593  57.357  1.00  0.00    -0.040 SA
BRANCH   3   5
HETATM    5  N   UNL     1       5.337  32.710  59.759  1.00  0.00    -0.299 N 
HETATM    6  C   UNL     1       4.800  32.388  60.999  1.00  0.00     0.257 C 
HETATM    7  O   UNL     1       3.649  31.979  61.139  1.00  0.00    -0.267 OA
HETATM    8  H   UNL     1       6.219  33.199  59.719  1.00  0.00     0.171 HD
BRANCH   6   9
HETATM    9  C   UNL     1       5.664  32.621  62.195  1.00  0.00     0.035 A 
HETATM   10  C   UNL     1       5.153  33.052  63.425  1.00  0.00     0.053 A 
HETATM   11  C   UNL     1       6.020  33.242  64.502  1.00  0.00     0.069 A 
HETATM   12  C   UNL     1       7.393  33.071  64.361  1.00  0.00     0.037 A 
HETATM   13  C   UNL     1       7.909  32.665  63.134  1.00  0.00     0.004 A 
HETATM   14  C   UNL     1       7.049  32.436  62.056  1.00  0.00     0.017 A 
BRANCH  11  15
HETATM   15  O   UNL     1       5.518  33.673  65.697  1.00  0.00    -0.351 OA
BRANCH  15  16
HETATM   16  C   UNL     1       4.311  34.424  65.511  1.00  0.00     0.175 C 
BRANCH  16  17
HETATM   17  C   UNL     1       4.540  35.868  65.952  1.00  0.00     0.026 C 
BRANCH  17  18
HETATM   18  C   UNL     1       4.774  36.808  64.768  1.00  0.00    -0.002 C 
HETATM   19  C   UNL     1       3.803  36.521  63.633  1.00  0.00     0.005 C 
ENDBRANCH  17  18
ENDBRANCH  16  17
ENDBRANCH  15  16
ENDBRANCH  11  15
ENDBRANCH   6   9
ENDBRANCH   3   5
ENDBRANCH   1   3
BRANCH   1  20
HETATM   20  C   UNL     1       4.796  30.012  57.538  1.00  0.00     0.036 A 
HETATM   21  C   UNL     1       4.046  29.542  56.462  1.00  0.00     0.067 A 
HETATM   22  C   UNL     1       4.541  28.521  55.636  1.00  0.00     0.082 A 
HETATM   23  C   UNL     1       5.802  27.949  55.861  1.00  0.00     0.050 A 
HETATM   24  C   UNL     1       6.540  28.419  56.957  1.00  0.00     0.021 A 
HETATM   25  C   UNL     1       6.052  29.444  57.775  1.00  0.00     0.030 A 
BRANCH  22  26
HETATM   26  O   UNL     1       3.759  28.087  54.597  1.00  0.00    -0.360 OA
HETATM   27  H   UNL     1       3.750  28.758  53.895  1.00  0.00     0.217 HD
ENDBRANCH  22  26
BRANCH  23  28
HETATM   28  C   UNL     1       6.401  26.912  55.019  1.00  0.00     0.183 A 
HETATM   29  O   UNL     1       6.505  25.651  55.549  1.00  0.00    -0.289 OA
HETATM   30  C   UNL     1       7.012  24.902  54.530  1.00  0.00     0.107 A 
HETATM   31  C   UNL     1       7.181  25.732  53.437  1.00  0.00     0.093 A 
HETATM   32  C   UNL     1       7.306  23.544  54.552  1.00  0.00     0.046 A 
HETATM   33  N   UNL     1       6.780  27.005  53.753  1.00  0.00    -0.221 NA
HETATM   34  C   UNL     1       7.684  25.190  52.250  1.00  0.00     0.035 A 
HETATM   35  C   UNL     1       7.995  23.822  52.225  1.00  0.00     0.009 A 
HETATM   36  C   UNL     1       7.816  23.004  53.358  1.00  0.00    -0.059 A 
HETATM   37  C   UNL     1       8.137  21.539  53.272  1.00  0.00     0.048 C 
ENDBRANCH  23  28
ENDBRANCH   1  20
TORSDOF 10
ENDMDL
MODEL 9
REMARK VINA RESULT:      -9.0      1.735      2.330
REMARK  10 active torsions:
REMARK  status: ('A' for Active; 'I' for Inactive)
REMARK    1  A    between atoms: C_2  and  C_3 
REMARK    2  A    between atoms: C_3  and  C_4 
REMARK    3  A    between atoms: C_4  and  O_5 
REMARK    4  A    between atoms: O_5  and  C_6 
REMARK    5  A    between atoms: C_8  and  C_9 
REMARK       I    between atoms: C_9  and  N_10 
REMARK    6  A    between atoms: N_10  and  C_11 
REMARK    7  A    between atoms: C_11  and  N_12 
REMARK    8  A    between atoms: N_12  and  C_13 
REMARK    9  A    between atoms: C_15  and  O_16 
REMARK   10  A    between atoms: C_17  and  C_18 
ROOT
HETATM    1  N   UNL     1       6.426  30.944  58.521  1.00  0.00    -0.333 N 
HETATM    2  H   UNL     1       7.050  31.042  59.325  1.00  0.00     0.168 HD
ENDROOT
BRANCH   1   3
HETATM    3  C   UNL     1       5.600  32.028  58.355  1.00  0.00     0.179 C 
HETATM    4  S   UNL     1       4.751  32.518  57.001  1.00  0.00    -0.040 SA
BRANCH   3   5
HETATM    5  N   UNL     1       5.441  32.814  59.487  1.00  0.00    -0.299 N 
HETATM    6  C   UNL     1       4.561  32.636  60.547  1.00  0.00     0.257 C 
HETATM    7  O   UNL     1       3.590  31.884  60.485  1.00  0.00    -0.267 OA
HETATM    8  H   UNL     1       6.115  33.564  59.530  1.00  0.00     0.171 HD
BRANCH   6   9
HETATM    9  C   UNL     1       4.798  33.455  61.773  1.00  0.00     0.035 A 
HETATM   10  C   UNL     1       4.675  32.935  63.066  1.00  0.00     0.053 A 
HETATM   11  C   UNL     1       4.918  33.759  64.166  1.00  0.00     0.069 A 
HETATM   12  C   UNL     1       5.223  35.107  64.004  1.00  0.00     0.037 A 
HETATM   13  C   UNL     1       5.325  35.635  62.720  1.00  0.00     0.004 A 
HETATM   14  C   UNL     1       5.118  34.812  61.609  1.00  0.00     0.017 A 
BRANCH  11  15
HETATM   15  O   UNL     1       4.786  33.250  65.427  1.00  0.00    -0.351 OA
BRANCH  15  16
HETATM   16  C   UNL     1       4.086  34.164  66.282  1.00  0.00     0.175 C 
BRANCH  16  17
HETATM   17  C   UNL     1       4.695  34.116  67.681  1.00  0.00     0.026 C 
BRANCH  17  18
HETATM   18  C   UNL     1       5.921  35.022  67.813  1.00  0.00    -0.002 C 
HETATM   19  C   UNL     1       6.899  34.483  68.845  1.00  0.00     0.005 C 
ENDBRANCH  17  18
ENDBRANCH  16  17
ENDBRANCH  15  16
ENDBRANCH  11  15
ENDBRANCH   6   9
ENDBRANCH   3   5
ENDBRANCH   1   3
BRANCH   1  20
HETATM   20  C   UNL     1       6.557  29.724  57.827  1.00  0.00     0.036 A 
HETATM   21  C   UNL     1       5.506  28.860  57.526  1.00  0.00     0.067 A 
HETATM   22  C   UNL     1       5.728  27.702  56.764  1.00  0.00     0.082 A 
HETATM   23  C   UNL     1       7.004  27.383  56.276  1.00  0.00     0.050 A 
HETATM   24  C   UNL     1       8.056  28.253  56.599  1.00  0.00     0.021 A 
HETATM   25  C   UNL     1       7.835  29.413  57.350  1.00  0.00     0.030 A 
BRANCH  22  26
HETATM   26  O   UNL     1       4.662  26.879  56.506  1.00  0.00    -0.360 OA
HETATM   27  H   UNL     1       3.867  27.415  56.354  1.00  0.00     0.217 HD
ENDBRANCH  22  26
BRANCH  23  28
HETATM   28  C   UNL     1       7.302  26.219  55.441  1.00  0.00     0.183 A 
HETATM   29  O   UNL     1       7.254  24.985  56.039  1.00  0.00    -0.289 OA
HETATM   30  C   UNL     1       7.490  24.112  55.020  1.00  0.00     0.107 A 
HETATM   31  C   UNL     1       7.658  24.847  53.862  1.00  0.00     0.093 A 
HETATM   32  C   UNL     1       7.545  22.726  55.099  1.00  0.00     0.046 A 
HETATM   33  N   UNL     1       7.526  26.185  54.136  1.00  0.00    -0.221 NA
HETATM   34  C   UNL     1       7.904  24.171  52.662  1.00  0.00     0.035 A 
HETATM   35  C   UNL     1       7.968  22.769  52.694  1.00  0.00     0.009 A 
HETATM   36  C   UNL     1       7.797  22.049  53.892  1.00  0.00    -0.059 A 
HETATM   37  C   UNL     1       7.847  20.548  53.867  1.00  0.00     0.048 C 
ENDBRANCH  23  28
ENDBRANCH   1  20
TORSDOF 10
ENDMDL
MODEL 10
REMARK VINA RESULT:      -8.9      1.983      3.106
REMARK  10 active torsions:
REMARK  status: ('A' for Active; 'I' for Inactive)
REMARK    1  A    between atoms: C_2  and  C_3 
REMARK    2  A    between atoms: C_3  and  C_4 
REMARK    3  A    between atoms: C_4  and  O_5 
REMARK    4  A    between atoms: O_5  and  C_6 
REMARK    5  A    between atoms: C_8  and  C_9 
REMARK       I    between atoms: C_9  and  N_10 
REMARK    6  A    between atoms: N_10  and  C_11 
REMARK    7  A    between atoms: C_11  and  N_12 
REMARK    8  A    between atoms: N_12  and  C_13 
REMARK    9  A    between atoms: C_15  and  O_16 
REMARK   10  A    between atoms: C_17  and  C_18 
ROOT
HETATM    1  N   UNL     1       3.972  30.304  55.739  1.00  0.00    -0.333 N 
HETATM    2  H   UNL     1       2.994  30.317  56.036  1.00  0.00     0.168 HD
ENDROOT
BRANCH   1   3
HETATM    3  C   UNL     1       4.546  31.552  55.748  1.00  0.00     0.179 C 
HETATM    4  S   UNL     1       4.347  32.818  54.675  1.00  0.00    -0.040 SA
BRANCH   3   5
HETATM    5  N   UNL     1       5.400  31.790  56.815  1.00  0.00    -0.299 N 
HETATM    6  C   UNL     1       5.198  31.515  58.161  1.00  0.00     0.257 C 
HETATM    7  O   UNL     1       4.089  31.267  58.630  1.00  0.00    -0.267 OA
HETATM    8  H   UNL     1       6.294  32.152  56.517  1.00  0.00     0.171 HD
BRANCH   6   9
HETATM    9  C   UNL     1       6.389  31.598  59.058  1.00  0.00     0.035 A 
HETATM   10  C   UNL     1       6.431  32.423  60.188  1.00  0.00     0.053 A 
HETATM   11  C   UNL     1       7.577  32.444  60.983  1.00  0.00     0.069 A 
HETATM   12  C   UNL     1       8.705  31.704  60.643  1.00  0.00     0.037 A 
HETATM   13  C   UNL     1       8.678  30.899  59.508  1.00  0.00     0.004 A 
HETATM   14  C   UNL     1       7.524  30.842  58.721  1.00  0.00     0.017 A 
BRANCH  11  15
HETATM   15  O   UNL     1       7.617  33.259  62.079  1.00  0.00    -0.351 OA
BRANCH  15  16
HETATM   16  C   UNL     1       7.762  32.496  63.285  1.00  0.00     0.175 C 
BRANCH  16  17
HETATM   17  C   UNL     1       7.589  33.418  64.490  1.00  0.00     0.026 C 
BRANCH  17  18
HETATM   18  C   UNL     1       6.125  33.548  64.917  1.00  0.00    -0.002 C 
HETATM   19  C   UNL     1       5.586  34.941  64.628  1.00  0.00     0.005 C 
ENDBRANCH  17  18
ENDBRANCH  16  17
ENDBRANCH  15  16
ENDBRANCH  11  15
ENDBRANCH   6   9
ENDBRANCH   3   5
ENDBRANCH   1   3
BRANCH   1  20
HETATM   20  C   UNL     1       4.454  29.031  55.372  1.00  0.00     0.036 A 
HETATM   21  C   UNL     1       4.199  28.400  54.156  1.00  0.00     0.067 A 
HETATM   22  C   UNL     1       4.787  27.161  53.856  1.00  0.00     0.082 A 
HETATM   23  C   UNL     1       5.650  26.526  54.760  1.00  0.00     0.050 A 
HETATM   24  C   UNL     1       5.886  27.163  55.987  1.00  0.00     0.021 A 
HETATM   25  C   UNL     1       5.309  28.403  56.284  1.00  0.00     0.030 A 
BRANCH  22  26
HETATM   26  O   UNL     1       4.495  26.578  52.650  1.00  0.00    -0.360 OA
HETATM   27  H   UNL     1       4.800  25.657  52.652  1.00  0.00     0.217 HD
ENDBRANCH  22  26
BRANCH  23  28
HETATM   28  C   UNL     1       6.332  25.258  54.499  1.00  0.00     0.183 A 
HETATM   29  O   UNL     1       6.625  24.465  55.579  1.00  0.00    -0.289 OA
HETATM   30  C   UNL     1       7.170  23.343  55.032  1.00  0.00     0.107 A 
HETATM   31  C   UNL     1       7.172  23.499  53.658  1.00  0.00     0.093 A 
HETATM   32  C   UNL     1       7.636  22.220  55.706  1.00  0.00     0.046 A 
HETATM   33  N   UNL     1       6.628  24.714  53.327  1.00  0.00    -0.221 NA
HETATM   34  C   UNL     1       7.677  22.466  52.861  1.00  0.00     0.035 A 
HETATM   35  C   UNL     1       8.159  21.313  53.500  1.00  0.00     0.009 A 
HETATM   36  C   UNL     1       8.147  21.186  54.902  1.00  0.00    -0.059 A 
HETATM   37  C   UNL     1       8.648  19.919  55.535  1.00  0.00     0.048 C 
ENDBRANCH  23  28
ENDBRANCH   1  20
TORSDOF 10
ENDMDL
