MODEL 1
REMARK VINA RESULT:      -9.2      0.000      0.000
REMARK  7 active torsions:
REMARK  status: ('A' for Active; 'I' for Inactive)
REMARK    1  A    between atoms: O_2  and  C_3 
REMARK    2  A    between atoms: C_6  and  C_7 
REMARK    3  A    between atoms: C_7  and  N_8 
REMARK    4  A    between atoms: C_7  and  C_25 
REMARK    5  A    between atoms: N_8  and  C_11 
REMARK    6  A    between atoms: C_11  and  C_12 
REMARK       I    between atoms: C_12  and  N_13 
REMARK    7  A    between atoms: N_13  and  C_14 
ROOT
HETATM    1  N   UNL     1       7.824  24.633  55.883  1.00  0.00    -0.055 N 
HETATM    2  H   UNL     1       8.680  24.125  56.156  1.00  0.00     0.278 HD
HETATM    3  H   UNL     1       8.185  25.441  55.362  1.00  0.00     0.278 HD
ENDROOT
BRANCH   1   4
HETATM    4  C   UNL     1       6.994  23.803  54.956  1.00  0.00     0.252 C 
BRANCH   4   5
HETATM    5  C   UNL     1       6.532  24.502  53.678  1.00  0.00    -0.023 A 
HETATM    6  C   UNL     1       5.173  24.437  53.302  1.00  0.00     0.012 A 
HETATM    7  C   UNL     1       4.691  25.097  52.165  1.00  0.00     0.037 A 
HETATM    8  C   UNL     1       5.550  25.864  51.385  1.00  0.00     0.068 A 
HETATM    9  C   UNL     1       6.890  25.963  51.758  1.00  0.00     0.037 A 
HETATM   10  C   UNL     1       7.377  25.303  52.892  1.00  0.00     0.012 A 
BRANCH   8  11
HETATM   11  O   UNL     1       5.217  26.561  50.261  1.00  0.00    -0.356 OA
HETATM   12  C   UNL     1       5.398  27.973  50.293  1.00  0.00     0.210 C 
ENDBRANCH   8  11
ENDBRANCH   4   5
BRANCH   4  13
HETATM   13  C   UNL     1       7.650  22.437  54.779  1.00  0.00    -0.023 A 
HETATM   14  C   UNL     1       7.897  21.952  53.482  1.00  0.00     0.009 A 
HETATM   15  C   UNL     1       8.442  20.682  53.289  1.00  0.00     0.001 A 
HETATM   16  C   UNL     1       8.741  19.876  54.384  1.00  0.00     0.000 A 
HETATM   17  C   UNL     1       8.500  20.338  55.675  1.00  0.00     0.001 A 
HETATM   18  C   UNL     1       7.955  21.608  55.874  1.00  0.00     0.009 A 
ENDBRANCH   4  13
ENDBRANCH   1   4
BRANCH   1  19
HETATM   19  C   UNL     1       7.179  25.154  57.146  1.00  0.00     0.336 C 
BRANCH  19  20
HETATM   20  C   UNL     1       5.979  26.023  56.771  1.00  0.00     0.248 C 
HETATM   21  N   UNL     1       6.297  27.176  56.087  1.00  0.00    -0.326 N 
HETATM   22  H   UNL     1       7.272  27.363  55.876  1.00  0.00     0.169 HD
HETATM   23  O   UNL     1       4.864  25.627  57.109  1.00  0.00    -0.271 OA
BRANCH  21  24
HETATM   24  C   UNL     1       5.397  28.170  55.632  1.00  0.00     0.037 A 
HETATM   25  C   UNL     1       4.696  29.031  56.486  1.00  0.00     0.061 A 
HETATM   26  C   UNL     1       3.859  29.954  55.897  1.00  0.00     0.065 A 
HETATM   27  C   UNL     1       3.698  30.047  54.517  1.00  0.00     0.063 A 
HETATM   28  N   UNL     1       3.052  30.921  56.486  1.00  0.00    -0.306 N 
HETATM   29  N   UNL     1       2.794  31.069  54.257  1.00  0.00    -0.307 N 
HETATM   30  C   UNL     1       4.366  29.221  53.651  1.00  0.00     0.034 A 
HETATM   31  C   UNL     1       2.381  31.626  55.477  1.00  0.00     0.325 A 
HETATM   32  H   UNL     1       2.465  31.389  53.361  1.00  0.00     0.170 HD
HETATM   33  O   UNL     1       1.594  32.542  55.629  1.00  0.00    -0.247 OA
HETATM   34  C   UNL     1       5.224  28.272  54.225  1.00  0.00     0.032 A 
HETATM   35  H   UNL     1       2.936  31.116  57.467  1.00  0.00     0.170 HD
ENDBRANCH  21  24
ENDBRANCH  19  20
ENDBRANCH   1  19
TORSDOF 7
ENDMDL
MODEL 2
REMARK VINA RESULT:      -9.1      3.511      4.057
REMARK  7 active torsions:
REMARK  status: ('A' for Active; 'I' for Inactive)
REMARK    1  A    between atoms: O_2  and  C_3 
REMARK    2  A    between atoms: C_6  and  C_7 
REMARK    3  A    between atoms: C_7  and  N_8 
REMARK    4  A    between atoms: C_7  and  C_25 
REMARK    5  A    between atoms: N_8  and  C_11 
REMARK    6  A    between atoms: C_11  and  C_12 
REMARK       I    between atoms: C_12  and  N_13 
REMARK    7  A    between atoms: N_13  and  C_14 
ROOT
HETATM    1  N   UNL     1       7.724  24.776  56.260  1.00  0.00    -0.055 N 
HETATM    2  H   UNL     1       7.248  24.835  57.175  1.00  0.00     0.278 HD
HETATM    3  H   UNL     1       8.617  24.324  56.487  1.00  0.00     0.278 HD
ENDROOT
BRANCH   1   4
HETATM    4  C   UNL     1       6.964  23.883  55.330  1.00  0.00     0.252 C 
BRANCH   4   5
HETATM    5  C   UNL     1       6.525  24.522  54.013  1.00  0.00    -0.023 A 
HETATM    6  C   UNL     1       7.475  24.733  52.992  1.00  0.00     0.012 A 
HETATM    7  C   UNL     1       7.115  25.273  51.750  1.00  0.00     0.037 A 
HETATM    8  C   UNL     1       5.787  25.593  51.487  1.00  0.00     0.068 A 
HETATM    9  C   UNL     1       4.830  25.365  52.474  1.00  0.00     0.037 A 
HETATM   10  C   UNL     1       5.186  24.828  53.717  1.00  0.00     0.012 A 
BRANCH   8  11
HETATM   11  O   UNL     1       5.297  26.117  50.326  1.00  0.00    -0.356 OA
HETATM   12  C   UNL     1       5.120  27.529  50.273  1.00  0.00     0.210 C 
ENDBRANCH   8  11
ENDBRANCH   4   5
BRANCH   4  13
HETATM   13  C   UNL     1       7.680  22.540  55.223  1.00  0.00    -0.023 A 
HETATM   14  C   UNL     1       7.689  21.857  53.993  1.00  0.00     0.009 A 
HETATM   15  C   UNL     1       8.286  20.601  53.881  1.00  0.00     0.001 A 
HETATM   16  C   UNL     1       8.875  20.006  54.993  1.00  0.00     0.000 A 
HETATM   17  C   UNL     1       8.872  20.665  56.219  1.00  0.00     0.001 A 
HETATM   18  C   UNL     1       8.277  21.922  56.338  1.00  0.00     0.009 A 
ENDBRANCH   4  13
ENDBRANCH   1   4
BRANCH   1  19
HETATM   19  C   UNL     1       8.025  26.186  55.810  1.00  0.00     0.336 C 
BRANCH  19  20
HETATM   20  C   UNL     1       8.105  27.094  57.037  1.00  0.00     0.248 C 
HETATM   21  N   UNL     1       8.320  28.425  56.752  1.00  0.00    -0.326 N 
HETATM   22  H   UNL     1       8.399  28.707  55.780  1.00  0.00     0.169 HD
HETATM   23  O   UNL     1       7.978  26.568  58.142  1.00  0.00    -0.271 OA
BRANCH  21  24
HETATM   24  C   UNL     1       8.454  29.483  57.683  1.00  0.00     0.037 A 
HETATM   25  C   UNL     1       7.413  29.928  58.507  1.00  0.00     0.061 A 
HETATM   26  C   UNL     1       7.695  30.965  59.369  1.00  0.00     0.065 A 
HETATM   27  C   UNL     1       8.950  31.563  59.438  1.00  0.00     0.063 A 
HETATM   28  N   UNL     1       6.869  31.601  60.290  1.00  0.00    -0.306 N 
HETATM   29  N   UNL     1       8.899  32.565  60.399  1.00  0.00    -0.307 N 
HETATM   30  C   UNL     1       9.993  31.155  58.646  1.00  0.00     0.034 A 
HETATM   31  C   UNL     1       7.605  32.602  60.941  1.00  0.00     0.325 A 
HETATM   32  H   UNL     1       9.640  33.182  60.688  1.00  0.00     0.170 HD
HETATM   33  O   UNL     1       7.200  33.355  61.807  1.00  0.00    -0.247 OA
HETATM   34  C   UNL     1       9.732  30.102  57.759  1.00  0.00     0.032 A 
HETATM   35  H   UNL     1       5.900  31.411  60.488  1.00  0.00     0.170 HD
ENDBRANCH  21  24
ENDBRANCH  19  20
ENDBRANCH   1  19
TORSDOF 7
ENDMDL
MODEL 3
REMARK VINA RESULT:      -8.8      1.677      2.159
REMARK  7 active torsions:
REMARK  status: ('A' for Active; 'I' for Inactive)
REMARK    1  A    between atoms: O_2  and  C_3 
REMARK    2  A    between atoms: C_6  and  C_7 
REMARK    3  A    between atoms: C_7  and  N_8 
REMARK    4  A    between atoms: C_7  and  C_25 
REMARK    5  A    between atoms: N_8  and  C_11 
REMARK    6  A    between atoms: C_11  and  C_12 
REMARK       I    between atoms: C_12  and  N_13 
REMARK    7  A    between atoms: N_13  and  C_14 
ROOT
HETATM    1  N   UNL     1       8.364  24.472  56.102  1.00  0.00    -0.055 N 
HETATM    2  H   UNL     1       9.094  23.767  56.293  1.00  0.00     0.278 HD
HETATM    3  H   UNL     1       8.861  25.185  55.555  1.00  0.00     0.278 HD
ENDROOT
BRANCH   1   4
HETATM    4  C   UNL     1       7.283  23.889  55.248  1.00  0.00     0.252 C 
BRANCH   4   5
HETATM    5  C   UNL     1       6.708  24.820  54.181  1.00  0.00    -0.023 A 
HETATM    6  C   UNL     1       7.579  25.641  53.433  1.00  0.00     0.012 A 
HETATM    7  C   UNL     1       7.108  26.479  52.414  1.00  0.00     0.037 A 
HETATM    8  C   UNL     1       5.754  26.499  52.097  1.00  0.00     0.068 A 
HETATM    9  C   UNL     1       4.883  25.673  52.806  1.00  0.00     0.037 A 
HETATM   10  C   UNL     1       5.349  24.836  53.826  1.00  0.00     0.012 A 
BRANCH   8  11
HETATM   11  O   UNL     1       5.161  27.257  51.129  1.00  0.00    -0.356 OA
HETATM   12  C   UNL     1       5.251  28.672  51.265  1.00  0.00     0.210 C 
ENDBRANCH   8  11
ENDBRANCH   4   5
BRANCH   4  13
HETATM   13  C   UNL     1       7.706  22.501  54.775  1.00  0.00    -0.023 A 
HETATM   14  C   UNL     1       8.013  21.511  55.726  1.00  0.00     0.009 A 
HETATM   15  C   UNL     1       8.459  20.251  55.322  1.00  0.00     0.001 A 
HETATM   16  C   UNL     1       8.612  19.965  53.969  1.00  0.00     0.000 A 
HETATM   17  C   UNL     1       8.316  20.934  53.014  1.00  0.00     0.001 A 
HETATM   18  C   UNL     1       7.870  22.196  53.411  1.00  0.00     0.009 A 
ENDBRANCH   4  13
ENDBRANCH   1   4
BRANCH   1  19
HETATM   19  C   UNL     1       7.974  25.096  57.421  1.00  0.00     0.336 C 
BRANCH  19  20
HETATM   20  C   UNL     1       7.789  26.600  57.224  1.00  0.00     0.248 C 
HETATM   21  N   UNL     1       6.517  26.977  56.850  1.00  0.00    -0.326 N 
HETATM   22  H   UNL     1       5.809  26.258  56.742  1.00  0.00     0.169 HD
HETATM   23  O   UNL     1       8.768  27.322  57.410  1.00  0.00    -0.271 OA
BRANCH  21  24
HETATM   24  C   UNL     1       6.064  28.292  56.583  1.00  0.00     0.037 A 
HETATM   25  C   UNL     1       6.261  29.372  57.453  1.00  0.00     0.061 A 
HETATM   26  C   UNL     1       5.768  30.596  57.055  1.00  0.00     0.065 A 
HETATM   27  C   UNL     1       5.100  30.778  55.847  1.00  0.00     0.063 A 
HETATM   28  N   UNL     1       5.818  31.825  57.704  1.00  0.00    -0.306 N 
HETATM   29  N   UNL     1       4.738  32.116  55.753  1.00  0.00    -0.307 N 
HETATM   30  C   UNL     1       4.887  29.744  54.972  1.00  0.00     0.034 A 
HETATM   31  C   UNL     1       5.180  32.784  56.905  1.00  0.00     0.325 A 
HETATM   32  H   UNL     1       4.244  32.570  55.003  1.00  0.00     0.170 HD
HETATM   33  O   UNL     1       5.037  33.965  57.161  1.00  0.00    -0.247 OA
HETATM   34  C   UNL     1       5.378  28.488  55.353  1.00  0.00     0.032 A 
HETATM   35  H   UNL     1       6.229  32.036  58.599  1.00  0.00     0.170 HD
ENDBRANCH  21  24
ENDBRANCH  19  20
ENDBRANCH   1  19
TORSDOF 7
ENDMDL
MODEL 4
REMARK VINA RESULT:      -8.7      3.179      6.021
REMARK  7 active torsions:
REMARK  status: ('A' for Active; 'I' for Inactive)
REMARK    1  A    between atoms: O_2  and  C_3 
REMARK    2  A    between atoms: C_6  and  C_7 
REMARK    3  A    between atoms: C_7  and  N_8 
REMARK    4  A    between atoms: C_7  and  C_25 
REMARK    5  A    between atoms: N_8  and  C_11 
REMARK    6  A    between atoms: C_11  and  C_12 
REMARK       I    between atoms: C_12  and  N_13 
REMARK    7  A    between atoms: N_13  and  C_14 
ROOT
HETATM    1  N   UNL     1       4.081  27.135  53.035  1.00  0.00    -0.055 N 
HETATM    2  H   UNL     1       3.290  27.000  52.386  1.00  0.00     0.278 HD
HETATM    3  H   UNL     1       3.955  26.383  53.723  1.00  0.00     0.278 HD
ENDROOT
BRANCH   1   4
HETATM    4  C   UNL     1       5.382  26.918  52.329  1.00  0.00     0.252 C 
BRANCH   4   5
HETATM    5  C   UNL     1       6.161  25.672  52.746  1.00  0.00    -0.023 A 
HETATM    6  C   UNL     1       7.298  25.283  52.007  1.00  0.00     0.012 A 
HETATM    7  C   UNL     1       8.073  24.174  52.375  1.00  0.00     0.037 A 
HETATM    8  C   UNL     1       7.746  23.440  53.510  1.00  0.00     0.068 A 
HETATM    9  C   UNL     1       6.642  23.828  54.268  1.00  0.00     0.037 A 
HETATM   10  C   UNL     1       5.865  24.933  53.904  1.00  0.00     0.012 A 
BRANCH   8  11
HETATM   11  O   UNL     1       8.412  22.348  53.986  1.00  0.00    -0.356 OA
HETATM   12  C   UNL     1       9.185  22.522  55.168  1.00  0.00     0.210 C 
ENDBRANCH   8  11
ENDBRANCH   4   5
BRANCH   4  13
HETATM   13  C   UNL     1       5.181  27.118  50.830  1.00  0.00    -0.023 A 
HETATM   14  C   UNL     1       5.469  28.368  50.253  1.00  0.00     0.009 A 
HETATM   15  C   UNL     1       5.240  28.596  48.896  1.00  0.00     0.001 A 
HETATM   16  C   UNL     1       4.714  27.585  48.097  1.00  0.00     0.000 A 
HETATM   17  C   UNL     1       4.419  26.342  48.650  1.00  0.00     0.001 A 
HETATM   18  C   UNL     1       4.647  26.108  50.008  1.00  0.00     0.009 A 
ENDBRANCH   4  13
ENDBRANCH   1   4
BRANCH   1  19
HETATM   19  C   UNL     1       3.867  28.448  53.750  1.00  0.00     0.336 C 
BRANCH  19  20
HETATM   20  C   UNL     1       4.694  28.457  55.035  1.00  0.00     0.248 C 
HETATM   21  N   UNL     1       5.716  29.382  55.053  1.00  0.00    -0.326 N 
HETATM   22  H   UNL     1       5.842  29.982  54.244  1.00  0.00     0.169 HD
HETATM   23  O   UNL     1       4.384  27.655  55.916  1.00  0.00    -0.271 OA
BRANCH  21  24
HETATM   24  C   UNL     1       6.647  29.600  56.096  1.00  0.00     0.037 A 
HETATM   25  C   UNL     1       6.314  30.187  57.323  1.00  0.00     0.061 A 
HETATM   26  C   UNL     1       7.327  30.330  58.246  1.00  0.00     0.065 A 
HETATM   27  C   UNL     1       8.633  29.917  57.996  1.00  0.00     0.063 A 
HETATM   28  N   UNL     1       7.289  30.869  59.528  1.00  0.00    -0.306 N 
HETATM   29  N   UNL     1       9.397  30.201  59.121  1.00  0.00    -0.307 N 
HETATM   30  C   UNL     1       8.996  29.339  56.807  1.00  0.00     0.034 A 
HETATM   31  C   UNL     1       8.573  30.795  60.087  1.00  0.00     0.325 A 
HETATM   32  H   UNL     1      10.379  30.025  59.260  1.00  0.00     0.170 HD
HETATM   33  O   UNL     1       8.906  31.174  61.195  1.00  0.00    -0.247 OA
HETATM   34  C   UNL     1       7.984  29.184  55.850  1.00  0.00     0.032 A 
HETATM   35  H   UNL     1       6.497  31.259  60.012  1.00  0.00     0.170 HD
ENDBRANCH  21  24
ENDBRANCH  19  20
ENDBRANCH   1  19
TORSDOF 7
ENDMDL
MODEL 5
REMARK VINA RESULT:      -8.7      3.585      6.018
REMARK  7 active torsions:
REMARK  status: ('A' for Active; 'I' for Inactive)
REMARK    1  A    between atoms: O_2  and  C_3 
REMARK    2  A    between atoms: C_6  and  C_7 
REMARK    3  A    between atoms: C_7  and  N_8 
REMARK    4  A    between atoms: C_7  and  C_25 
REMARK    5  A    between atoms: N_8  and  C_11 
REMARK    6  A    between atoms: C_11  and  C_12 
REMARK       I    between atoms: C_12  and  N_13 
REMARK    7  A    between atoms: N_13  and  C_14 
ROOT
HETATM    1  N   UNL     1       6.990  24.511  52.388  1.00  0.00    -0.055 N 
HETATM    2  H   UNL     1       7.574  24.018  51.694  1.00  0.00     0.278 HD
HETATM    3  H   UNL     1       6.125  23.957  52.405  1.00  0.00     0.278 HD
ENDROOT
BRANCH   1   4
HETATM    4  C   UNL     1       7.620  24.448  53.744  1.00  0.00     0.252 C 
BRANCH   4   5
HETATM    5  C   UNL     1       7.047  25.409  54.784  1.00  0.00    -0.023 A 
HETATM    6  C   UNL     1       7.871  26.416  55.329  1.00  0.00     0.012 A 
HETATM    7  C   UNL     1       7.382  27.350  56.253  1.00  0.00     0.037 A 
HETATM    8  C   UNL     1       6.046  27.318  56.636  1.00  0.00     0.068 A 
HETATM    9  C   UNL     1       5.210  26.347  56.086  1.00  0.00     0.037 A 
HETATM   10  C   UNL     1       5.694  25.411  55.165  1.00  0.00     0.012 A 
BRANCH   8  11
HETATM   11  O   UNL     1       5.437  28.164  57.516  1.00  0.00    -0.356 OA
HETATM   12  C   UNL     1       4.855  29.349  56.983  1.00  0.00     0.210 C 
ENDBRANCH   8  11
ENDBRANCH   4   5
BRANCH   4  13
HETATM   13  C   UNL     1       7.750  22.989  54.172  1.00  0.00    -0.023 A 
HETATM   14  C   UNL     1       7.834  22.675  55.541  1.00  0.00     0.009 A 
HETATM   15  C   UNL     1       8.012  21.356  55.958  1.00  0.00     0.001 A 
HETATM   16  C   UNL     1       8.115  20.334  55.019  1.00  0.00     0.000 A 
HETATM   17  C   UNL     1       8.038  20.626  53.660  1.00  0.00     0.001 A 
HETATM   18  C   UNL     1       7.860  21.944  53.236  1.00  0.00     0.009 A 
ENDBRANCH   4  13
ENDBRANCH   1   4
BRANCH   1  19
HETATM   19  C   UNL     1       6.652  25.869  51.820  1.00  0.00     0.336 C 
BRANCH  19  20
HETATM   20  C   UNL     1       5.339  25.772  51.043  1.00  0.00     0.248 C 
HETATM   21  N   UNL     1       5.277  26.569  49.921  1.00  0.00    -0.326 N 
HETATM   22  H   UNL     1       6.081  27.142  49.686  1.00  0.00     0.169 HD
HETATM   23  O   UNL     1       4.476  25.011  51.480  1.00  0.00    -0.271 OA
BRANCH  21  24
HETATM   24  C   UNL     1       4.186  26.695  49.027  1.00  0.00     0.037 A 
HETATM   25  C   UNL     1       3.297  27.777  49.036  1.00  0.00     0.061 A 
HETATM   26  C   UNL     1       2.284  27.765  48.101  1.00  0.00     0.065 A 
HETATM   27  C   UNL     1       2.130  26.735  47.177  1.00  0.00     0.063 A 
HETATM   28  N   UNL     1       1.272  28.693  47.879  1.00  0.00    -0.306 N 
HETATM   29  N   UNL     1       1.025  27.028  46.387  1.00  0.00    -0.307 N 
HETATM   30  C   UNL     1       2.979  25.660  47.139  1.00  0.00     0.034 A 
HETATM   31  C   UNL     1       0.478  28.248  46.812  1.00  0.00     0.325 A 
HETATM   32  H   UNL     1       0.647  26.485  45.628  1.00  0.00     0.170 HD
HETATM   33  O   UNL     1      -0.496  28.811  46.347  1.00  0.00    -0.247 OA
HETATM   34  C   UNL     1       4.018  25.647  48.081  1.00  0.00     0.032 A 
HETATM   35  H   UNL     1       1.100  29.551  48.376  1.00  0.00     0.170 HD
ENDBRANCH  21  24
ENDBRANCH  19  20
ENDBRANCH   1  19
TORSDOF 7
ENDMDL
MODEL 6
REMARK VINA RESULT:      -8.6      5.693      8.448
REMARK  7 active torsions:
REMARK  status: ('A' for Active; 'I' for Inactive)
REMARK    1  A    between atoms: O_2  and  C_3 
REMARK    2  A    between atoms: C_6  and  C_7 
REMARK    3  A    between atoms: C_7  and  N_8 
REMARK    4  A    between atoms: C_7  and  C_25 
REMARK    5  A    between atoms: N_8  and  C_11 
REMARK    6  A    between atoms: C_11  and  C_12 
REMARK       I    between atoms: C_12  and  N_13 
REMARK    7  A    between atoms: N_13  and  C_14 
ROOT
HETATM    1  N   UNL     1       7.282  29.698  58.522  1.00  0.00    -0.055 N 
HETATM    2  H   UNL     1       6.491  30.109  59.042  1.00  0.00     0.278 HD
HETATM    3  H   UNL     1       7.581  28.920  59.122  1.00  0.00     0.278 HD
ENDROOT
BRANCH   1   4
HETATM    4  C   UNL     1       6.816  29.137  57.215  1.00  0.00     0.252 C 
BRANCH   4   5
HETATM    5  C   UNL     1       6.955  27.623  57.059  1.00  0.00    -0.023 A 
HETATM    6  C   UNL     1       8.229  27.026  57.168  1.00  0.00     0.012 A 
HETATM    7  C   UNL     1       8.403  25.639  57.077  1.00  0.00     0.037 A 
HETATM    8  C   UNL     1       7.302  24.807  56.902  1.00  0.00     0.068 A 
HETATM    9  C   UNL     1       6.033  25.377  56.821  1.00  0.00     0.037 A 
HETATM   10  C   UNL     1       5.854  26.762  56.909  1.00  0.00     0.012 A 
BRANCH   8  11
HETATM   11  O   UNL     1       7.325  23.446  56.804  1.00  0.00    -0.356 OA
HETATM   12  C   UNL     1       7.454  22.890  55.500  1.00  0.00     0.210 C 
ENDBRANCH   8  11
ENDBRANCH   4   5
BRANCH   4  13
HETATM   13  C   UNL     1       5.453  29.729  56.870  1.00  0.00    -0.023 A 
HETATM   14  C   UNL     1       5.088  29.885  55.520  1.00  0.00     0.009 A 
HETATM   15  C   UNL     1       3.873  30.476  55.175  1.00  0.00     0.001 A 
HETATM   16  C   UNL     1       3.008  30.926  56.169  1.00  0.00     0.000 A 
HETATM   17  C   UNL     1       3.353  30.783  57.510  1.00  0.00     0.001 A 
HETATM   18  C   UNL     1       4.568  30.192  57.862  1.00  0.00     0.009 A 
ENDBRANCH   4  13
ENDBRANCH   1   4
BRANCH   1  19
HETATM   19  C   UNL     1       8.397  30.717  58.504  1.00  0.00     0.336 C 
BRANCH  19  20
HETATM   20  C   UNL     1       8.250  31.637  59.716  1.00  0.00     0.248 C 
HETATM   21  N   UNL     1       7.424  31.154  60.706  1.00  0.00    -0.326 N 
HETATM   22  H   UNL     1       6.990  30.245  60.577  1.00  0.00     0.169 HD
HETATM   23  O   UNL     1       8.864  32.704  59.696  1.00  0.00    -0.271 OA
BRANCH  21  24
HETATM   24  C   UNL     1       7.092  31.795  61.924  1.00  0.00     0.037 A 
HETATM   25  C   UNL     1       5.777  32.041  62.337  1.00  0.00     0.061 A 
HETATM   26  C   UNL     1       5.608  32.670  63.552  1.00  0.00     0.065 A 
HETATM   27  C   UNL     1       6.680  33.054  64.353  1.00  0.00     0.063 A 
HETATM   28  N   UNL     1       4.436  33.036  64.205  1.00  0.00    -0.306 N 
HETATM   29  N   UNL     1       6.170  33.654  65.497  1.00  0.00    -0.307 N 
HETATM   30  C   UNL     1       7.980  32.830  63.981  1.00  0.00     0.034 A 
HETATM   31  C   UNL     1       4.769  33.651  65.421  1.00  0.00     0.325 A 
HETATM   32  H   UNL     1       6.682  34.039  66.273  1.00  0.00     0.170 HD
HETATM   33  O   UNL     1       3.993  34.094  66.247  1.00  0.00    -0.247 OA
HETATM   34  C   UNL     1       8.180  32.193  62.748  1.00  0.00     0.032 A 
HETATM   35  H   UNL     1       3.487  32.903  63.894  1.00  0.00     0.170 HD
ENDBRANCH  21  24
ENDBRANCH  19  20
ENDBRANCH   1  19
TORSDOF 7
ENDMDL
MODEL 7
REMARK VINA RESULT:      -8.5      3.384      6.682
REMARK  7 active torsions:
REMARK  status: ('A' for Active; 'I' for Inactive)
REMARK    1  A    between atoms: O_2  and  C_3 
REMARK    2  A    between atoms: C_6  and  C_7 
REMARK    3  A    between atoms: C_7  and  N_8 
REMARK    4  A    between atoms: C_7  and  C_25 
REMARK    5  A    between atoms: N_8  and  C_11 
REMARK    6  A    between atoms: C_11  and  C_12 
REMARK       I    between atoms: C_12  and  N_13 
REMARK    7  A    between atoms: N_13  and  C_14 
ROOT
HETATM    1  N   UNL     1       5.957  28.108  56.700  1.00  0.00    -0.055 N 
HETATM    2  H   UNL     1       5.342  27.383  56.296  1.00  0.00     0.278 HD
HETATM    3  H   UNL     1       5.374  28.534  57.429  1.00  0.00     0.278 HD
ENDROOT
BRANCH   1   4
HETATM    4  C   UNL     1       7.149  27.481  57.351  1.00  0.00     0.252 C 
BRANCH   4   5
HETATM    5  C   UNL     1       7.633  26.173  56.726  1.00  0.00    -0.023 A 
HETATM    6  C   UNL     1       8.404  25.278  57.497  1.00  0.00     0.012 A 
HETATM    7  C   UNL     1       8.834  24.046  56.985  1.00  0.00     0.037 A 
HETATM    8  C   UNL     1       8.481  23.665  55.695  1.00  0.00     0.068 A 
HETATM    9  C   UNL     1       7.695  24.525  54.929  1.00  0.00     0.037 A 
HETATM   10  C   UNL     1       7.266  25.757  55.435  1.00  0.00     0.012 A 
BRANCH   8  11
HETATM   11  O   UNL     1       8.823  22.498  55.075  1.00  0.00    -0.356 OA
HETATM   12  C   UNL     1       8.600  22.418  53.671  1.00  0.00     0.210 C 
ENDBRANCH   8  11
ENDBRANCH   4   5
BRANCH   4  13
HETATM   13  C   UNL     1       8.213  28.549  57.589  1.00  0.00    -0.023 A 
HETATM   14  C   UNL     1       8.012  29.514  58.594  1.00  0.00     0.009 A 
HETATM   15  C   UNL     1       8.940  30.536  58.795  1.00  0.00     0.001 A 
HETATM   16  C   UNL     1      10.076  30.615  57.995  1.00  0.00     0.000 A 
HETATM   17  C   UNL     1      10.290  29.671  56.994  1.00  0.00     0.001 A 
HETATM   18  C   UNL     1       9.365  28.646  56.788  1.00  0.00     0.009 A 
ENDBRANCH   4  13
ENDBRANCH   1   4
BRANCH   1  19
HETATM   19  C   UNL     1       6.193  29.152  55.634  1.00  0.00     0.336 C 
BRANCH  19  20
HETATM   20  C   UNL     1       5.387  28.783  54.388  1.00  0.00     0.248 C 
HETATM   21  N   UNL     1       6.115  28.765  53.219  1.00  0.00    -0.326 N 
HETATM   22  H   UNL     1       7.106  28.981  53.260  1.00  0.00     0.169 HD
HETATM   23  O   UNL     1       4.188  28.545  54.537  1.00  0.00    -0.271 OA
BRANCH  21  24
HETATM   24  C   UNL     1       5.631  28.478  51.920  1.00  0.00     0.037 A 
HETATM   25  C   UNL     1       5.245  27.198  51.501  1.00  0.00     0.061 A 
HETATM   26  C   UNL     1       4.787  27.073  50.208  1.00  0.00     0.065 A 
HETATM   27  C   UNL     1       4.702  28.153  49.334  1.00  0.00     0.063 A 
HETATM   28  N   UNL     1       4.342  25.942  49.531  1.00  0.00    -0.306 N 
HETATM   29  N   UNL     1       4.206  27.690  48.123  1.00  0.00    -0.307 N 
HETATM   30  C   UNL     1       5.072  29.420  49.708  1.00  0.00     0.034 A 
HETATM   31  C   UNL     1       3.975  26.310  48.228  1.00  0.00     0.325 A 
HETATM   32  H   UNL     1       4.026  28.220  47.285  1.00  0.00     0.170 HD
HETATM   33  O   UNL     1       3.542  25.575  47.360  1.00  0.00    -0.247 OA
HETATM   34  C   UNL     1       5.542  29.574  51.020  1.00  0.00     0.032 A 
HETATM   35  H   UNL     1       4.279  24.998  49.877  1.00  0.00     0.170 HD
ENDBRANCH  21  24
ENDBRANCH  19  20
ENDBRANCH   1  19
TORSDOF 7
ENDMDL
MODEL 8
REMARK VINA RESULT:      -8.4      6.998     11.283
REMARK  7 active torsions:
REMARK  status: ('A' for Active; 'I' for Inactive)
REMARK    1  A    between atoms: O_2  and  C_3 
REMARK    2  A    between atoms: C_6  and  C_7 
REMARK    3  A    between atoms: C_7  and  N_8 
REMARK    4  A    between atoms: C_7  and  C_25 
REMARK    5  A    between atoms: N_8  and  C_11 
REMARK    6  A    between atoms: C_11  and  C_12 
REMARK       I    between atoms: C_12  and  N_13 
REMARK    7  A    between atoms: N_13  and  C_14 
ROOT
HETATM    1  N   UNL     1       5.187  32.803  61.365  1.00  0.00    -0.055 N 
HETATM    2  H   UNL     1       5.287  31.803  61.127  1.00  0.00     0.278 HD
HETATM    3  H   UNL     1       4.375  32.817  61.993  1.00  0.00     0.278 HD
ENDROOT
BRANCH   1   4
HETATM    4  C   UNL     1       6.383  33.283  62.126  1.00  0.00     0.252 C 
BRANCH   4   5
HETATM    5  C   UNL     1       6.149  33.576  63.607  1.00  0.00    -0.023 A 
HETATM    6  C   UNL     1       4.830  33.631  64.106  1.00  0.00     0.012 A 
HETATM    7  C   UNL     1       4.564  33.852  65.464  1.00  0.00     0.037 A 
HETATM    8  C   UNL     1       5.613  33.998  66.365  1.00  0.00     0.068 A 
HETATM    9  C   UNL     1       6.922  33.919  65.895  1.00  0.00     0.037 A 
HETATM   10  C   UNL     1       7.193  33.700  64.539  1.00  0.00     0.012 A 
BRANCH   8  11
HETATM   11  O   UNL     1       5.500  34.210  67.709  1.00  0.00    -0.356 OA
HETATM   12  C   UNL     1       6.690  34.538  68.418  1.00  0.00     0.210 C 
ENDBRANCH   8  11
ENDBRANCH   4   5
BRANCH   4  13
HETATM   13  C   UNL     1       7.581  32.398  61.794  1.00  0.00    -0.023 A 
HETATM   14  C   UNL     1       7.771  31.198  62.502  1.00  0.00     0.009 A 
HETATM   15  C   UNL     1       8.889  30.398  62.260  1.00  0.00     0.001 A 
HETATM   16  C   UNL     1       9.834  30.787  61.315  1.00  0.00     0.000 A 
HETATM   17  C   UNL     1       9.664  31.973  60.606  1.00  0.00     0.001 A 
HETATM   18  C   UNL     1       8.548  32.777  60.844  1.00  0.00     0.009 A 
ENDBRANCH   4  13
ENDBRANCH   1   4
BRANCH   1  19
HETATM   19  C   UNL     1       4.803  33.537  60.102  1.00  0.00     0.336 C 
BRANCH  19  20
HETATM   20  C   UNL     1       5.400  32.806  58.899  1.00  0.00     0.248 C 
HETATM   21  N   UNL     1       5.627  31.462  59.099  1.00  0.00    -0.326 N 
HETATM   22  H   UNL     1       5.382  31.056  59.997  1.00  0.00     0.169 HD
HETATM   23  O   UNL     1       5.624  33.469  57.886  1.00  0.00    -0.271 OA
BRANCH  21  24
HETATM   24  C   UNL     1       6.184  30.547  58.174  1.00  0.00     0.037 A 
HETATM   25  C   UNL     1       5.503  30.070  57.048  1.00  0.00     0.061 A 
HETATM   26  C   UNL     1       6.178  29.186  56.233  1.00  0.00     0.065 A 
HETATM   27  C   UNL     1       7.479  28.770  56.496  1.00  0.00     0.063 A 
HETATM   28  N   UNL     1       5.757  28.561  55.065  1.00  0.00    -0.306 N 
HETATM   29  N   UNL     1       7.861  27.889  55.491  1.00  0.00    -0.307 N 
HETATM   30  C   UNL     1       8.177  29.214  57.589  1.00  0.00     0.034 A 
HETATM   31  C   UNL     1       6.796  27.748  54.589  1.00  0.00     0.325 A 
HETATM   32  H   UNL     1       8.741  27.412  55.390  1.00  0.00     0.170 HD
HETATM   33  O   UNL     1       6.777  27.055  53.588  1.00  0.00    -0.247 OA
HETATM   34  C   UNL     1       7.513  30.113  58.435  1.00  0.00     0.032 A 
HETATM   35  H   UNL     1       4.866  28.645  54.603  1.00  0.00     0.170 HD
ENDBRANCH  21  24
ENDBRANCH  19  20
ENDBRANCH   1  19
TORSDOF 7
ENDMDL
MODEL 9
REMARK VINA RESULT:      -8.3      4.051      6.793
REMARK  7 active torsions:
REMARK  status: ('A' for Active; 'I' for Inactive)
REMARK    1  A    between atoms: O_2  and  C_3 
REMARK    2  A    between atoms: C_6  and  C_7 
REMARK    3  A    between atoms: C_7  and  N_8 
REMARK    4  A    between atoms: C_7  and  C_25 
REMARK    5  A    between atoms: N_8  and  C_11 
REMARK    6  A    between atoms: C_11  and  C_12 
REMARK       I    between atoms: C_12  and  N_13 
REMARK    7  A    between atoms: N_13  and  C_14 
ROOT
HETATM    1  N   UNL     1       5.685  27.450  53.668  1.00  0.00    -0.055 N 
HETATM    2  H   UNL     1       5.267  26.626  53.208  1.00  0.00     0.278 HD
HETATM    3  H   UNL     1       5.106  27.571  54.508  1.00  0.00     0.278 HD
ENDROOT
BRANCH   1   4
HETATM    4  C   UNL     1       7.088  27.157  54.097  1.00  0.00     0.252 C 
BRANCH   4   5
HETATM    5  C   UNL     1       7.519  27.788  55.421  1.00  0.00    -0.023 A 
HETATM    6  C   UNL     1       8.537  28.765  55.427  1.00  0.00     0.012 A 
HETATM    7  C   UNL     1       8.938  29.405  56.607  1.00  0.00     0.037 A 
HETATM    8  C   UNL     1       8.311  29.104  57.811  1.00  0.00     0.068 A 
HETATM    9  C   UNL     1       7.284  28.161  57.820  1.00  0.00     0.037 A 
HETATM   10  C   UNL     1       6.882  27.518  56.644  1.00  0.00     0.012 A 
BRANCH   8  11
HETATM   11  O   UNL     1       8.594  29.652  59.029  1.00  0.00    -0.356 OA
HETATM   12  C   UNL     1       9.461  30.781  59.049  1.00  0.00     0.210 C 
ENDBRANCH   8  11
ENDBRANCH   4   5
BRANCH   4  13
HETATM   13  C   UNL     1       7.362  25.665  53.940  1.00  0.00    -0.023 A 
HETATM   14  C   UNL     1       7.779  25.166  52.692  1.00  0.00     0.009 A 
HETATM   15  C   UNL     1       7.981  23.798  52.504  1.00  0.00     0.001 A 
HETATM   16  C   UNL     1       7.764  22.909  53.552  1.00  0.00     0.000 A 
HETATM   17  C   UNL     1       7.348  23.384  54.793  1.00  0.00     0.001 A 
HETATM   18  C   UNL     1       7.144  24.751  54.988  1.00  0.00     0.009 A 
ENDBRANCH   4  13
ENDBRANCH   1   4
BRANCH   1  19
HETATM   19  C   UNL     1       5.446  28.643  52.773  1.00  0.00     0.336 C 
BRANCH  19  20
HETATM   20  C   UNL     1       4.293  28.328  51.820  1.00  0.00     0.248 C 
HETATM   21  N   UNL     1       4.681  27.849  50.588  1.00  0.00    -0.326 N 
HETATM   22  H   UNL     1       5.672  27.732  50.402  1.00  0.00     0.169 HD
HETATM   23  O   UNL     1       3.149  28.530  52.228  1.00  0.00    -0.271 OA
BRANCH  21  24
HETATM   24  C   UNL     1       3.836  27.494  49.509  1.00  0.00     0.037 A 
HETATM   25  C   UNL     1       2.741  28.263  49.095  1.00  0.00     0.061 A 
HETATM   26  C   UNL     1       2.013  27.793  48.024  1.00  0.00     0.065 A 
HETATM   27  C   UNL     1       2.329  26.608  47.365  1.00  0.00     0.063 A 
HETATM   28  N   UNL     1       0.894  28.340  47.405  1.00  0.00    -0.306 N 
HETATM   29  N   UNL     1       1.407  26.426  46.342  1.00  0.00    -0.307 N 
HETATM   30  C   UNL     1       3.391  25.829  47.743  1.00  0.00     0.034 A 
HETATM   31  C   UNL     1       0.503  27.499  46.353  1.00  0.00     0.325 A 
HETATM   32  H   UNL     1       1.359  25.667  45.682  1.00  0.00     0.170 HD
HETATM   33  O   UNL     1      -0.436  27.668  45.598  1.00  0.00    -0.247 OA
HETATM   34  C   UNL     1       4.149  26.285  48.831  1.00  0.00     0.032 A 
HETATM   35  H   UNL     1       0.411  29.192  47.640  1.00  0.00     0.170 HD
ENDBRANCH  21  24
ENDBRANCH  19  20
ENDBRANCH   1  19
TORSDOF 7
ENDMDL
MODEL 10
REMARK VINA RESULT:      -8.2      3.487      5.341
REMARK  7 active torsions:
REMARK  status: ('A' for Active; 'I' for Inactive)
REMARK    1  A    between atoms: O_2  and  C_3 
REMARK    2  A    between atoms: C_6  and  C_7 
REMARK    3  A    between atoms: C_7  and  N_8 
REMARK    4  A    between atoms: C_7  and  C_25 
REMARK    5  A    between atoms: N_8  and  C_11 
REMARK    6  A    between atoms: C_11  and  C_12 
REMARK       I    between atoms: C_12  and  N_13 
REMARK    7  A    between atoms: N_13  and  C_14 
ROOT
HETATM    1  N   UNL     1       5.132  27.030  55.034  1.00  0.00    -0.055 N 
HETATM    2  H   UNL     1       4.725  26.100  54.849  1.00  0.00     0.278 HD
HETATM    3  H   UNL     1       5.132  27.088  56.060  1.00  0.00     0.278 HD
ENDROOT
BRANCH   1   4
HETATM    4  C   UNL     1       6.549  27.088  54.556  1.00  0.00     0.252 C 
BRANCH   4   5
HETATM    5  C   UNL     1       7.532  27.795  55.488  1.00  0.00    -0.023 A 
HETATM    6  C   UNL     1       8.442  28.733  54.957  1.00  0.00     0.012 A 
HETATM    7  C   UNL     1       9.334  29.440  55.774  1.00  0.00     0.037 A 
HETATM    8  C   UNL     1       9.320  29.247  57.152  1.00  0.00     0.068 A 
HETATM    9  C   UNL     1       8.408  28.346  57.697  1.00  0.00     0.037 A 
HETATM   10  C   UNL     1       7.518  27.635  56.884  1.00  0.00     0.012 A 
BRANCH   8  11
HETATM   11  O   UNL     1      10.124  29.870  58.063  1.00  0.00    -0.356 OA
HETATM   12  C   UNL     1       9.725  31.163  58.505  1.00  0.00     0.210 C 
ENDBRANCH   8  11
ENDBRANCH   4   5
BRANCH   4  13
HETATM   13  C   UNL     1       6.968  25.710  54.053  1.00  0.00    -0.023 A 
HETATM   14  C   UNL     1       7.473  25.575  52.747  1.00  0.00     0.009 A 
HETATM   15  C   UNL     1       7.809  24.319  52.240  1.00  0.00     0.001 A 
HETATM   16  C   UNL     1       7.640  23.182  53.024  1.00  0.00     0.000 A 
HETATM   17  C   UNL     1       7.138  23.295  54.317  1.00  0.00     0.001 A 
HETATM   18  C   UNL     1       6.800  24.549  54.830  1.00  0.00     0.009 A 
ENDBRANCH   4  13
ENDBRANCH   1   4
BRANCH   1  19
HETATM   19  C   UNL     1       4.161  28.066  54.518  1.00  0.00     0.336 C 
BRANCH  19  20
HETATM   20  C   UNL     1       4.362  29.367  55.294  1.00  0.00     0.248 C 
HETATM   21  N   UNL     1       4.361  29.224  56.664  1.00  0.00    -0.326 N 
HETATM   22  H   UNL     1       4.242  28.295  57.056  1.00  0.00     0.169 HD
HETATM   23  O   UNL     1       4.498  30.402  54.641  1.00  0.00    -0.271 OA
BRANCH  21  24
HETATM   24  C   UNL     1       4.507  30.252  57.627  1.00  0.00     0.037 A 
HETATM   25  C   UNL     1       3.457  30.719  58.428  1.00  0.00     0.061 A 
HETATM   26  C   UNL     1       3.752  31.722  59.326  1.00  0.00     0.065 A 
HETATM   27  C   UNL     1       5.027  32.266  59.450  1.00  0.00     0.063 A 
HETATM   28  N   UNL     1       2.922  32.368  60.235  1.00  0.00    -0.306 N 
HETATM   29  N   UNL     1       4.983  33.245  60.435  1.00  0.00    -0.307 N 
HETATM   30  C   UNL     1       6.078  31.836  58.682  1.00  0.00     0.034 A 
HETATM   31  C   UNL     1       3.675  33.322  60.936  1.00  0.00     0.325 A 
HETATM   32  H   UNL     1       5.738  33.824  60.764  1.00  0.00     0.170 HD
HETATM   33  O   UNL     1       3.272  34.069  61.808  1.00  0.00    -0.247 OA
HETATM   34  C   UNL     1       5.805  30.816  57.760  1.00  0.00     0.032 A 
HETATM   35  H   UNL     1       1.940  32.213  60.397  1.00  0.00     0.170 HD
ENDBRANCH  21  24
ENDBRANCH  19  20
ENDBRANCH   1  19
TORSDOF 7
ENDMDL
