MODEL 1
REMARK VINA RESULT:     -10.1      0.000      0.000
REMARK  8 active torsions:
REMARK  status: ('A' for Active; 'I' for Inactive)
REMARK    1  A    between atoms: O_2  and  C_3 
REMARK    2  A    between atoms: C_5  and  C_6 
REMARK    3  A    between atoms: C_10  and  C_11 
REMARK       I    between atoms: C_11  and  N_12 
REMARK    4  A    between atoms: N_12  and  C_13 
REMARK    5  A    between atoms: C_13  and  C_14 
REMARK    6  A    between atoms: C_15  and  C_16 
REMARK    7  A    between atoms: C_16  and  O_17 
REMARK    8  A    between atoms: O_17  and  C_18 
ROOT
HETATM    1  C   UNL     1       9.354  31.144  59.031  1.00  0.00     0.270 C 
HETATM    2  N   UNL     1       8.902  30.040  58.356  1.00  0.00    -0.345 N 
HETATM    3  O   UNL     1      10.161  31.930  58.546  1.00  0.00    -0.266 OA
HETATM    4  H   UNL     1       8.269  29.397  58.805  1.00  0.00     0.163 HD
ENDROOT
BRANCH   1   5
HETATM    5  C   UNL     1       8.806  31.319  60.349  1.00  0.00     0.120 A 
HETATM    6  N   UNL     1       9.018  30.407  61.344  1.00  0.00    -0.272 N 
HETATM    7  N   UNL     1       8.468  30.740  62.522  1.00  0.00    -0.174 NA
HETATM    8  H   UNL     1       9.546  29.543  61.275  1.00  0.00     0.189 HD
HETATM    9  C   UNL     1       7.848  31.906  62.290  1.00  0.00     0.089 A 
HETATM   10  C   UNL     1       8.033  32.301  60.936  1.00  0.00     0.071 A 
BRANCH   9  11
HETATM   11  C   UNL     1       7.121  32.622  63.340  1.00  0.00    -0.003 A 
HETATM   12  C   UNL     1       5.726  32.755  63.275  1.00  0.00     0.050 A 
HETATM   13  C   UNL     1       5.011  33.402  64.288  1.00  0.00     0.069 A 
HETATM   14  C   UNL     1       5.701  33.942  65.374  1.00  0.00     0.037 A 
HETATM   15  C   UNL     1       7.091  33.830  65.446  1.00  0.00     0.004 A 
HETATM   16  C   UNL     1       7.798  33.172  64.437  1.00  0.00     0.014 A 
BRANCH  13  17
HETATM   17  O   UNL     1       3.657  33.437  64.101  1.00  0.00    -0.356 OA
HETATM   18  C   UNL     1       3.194  33.782  62.802  1.00  0.00     0.210 C 
ENDBRANCH  13  17
ENDBRANCH   9  11
ENDBRANCH   1   5
BRANCH   2  19
HETATM   19  C   UNL     1       9.363  29.731  57.028  1.00  0.00     0.217 C 
BRANCH  19  20
HETATM   20  C   UNL     1       8.513  28.685  56.453  1.00  0.00    -0.085 C 
HETATM   21  C   UNL     1       7.817  27.842  55.953  1.00  0.00    -0.078 C 
BRANCH  21  22
HETATM   22  C   UNL     1       6.969  26.824  55.318  1.00  0.00     0.269 C 
BRANCH  22  23
HETATM   23  O   UNL     1       7.678  26.238  54.230  1.00  0.00    -0.339 OA
BRANCH  23  24
HETATM   24  C   UNL     1       7.727  24.869  54.187  1.00  0.00     0.072 A 
HETATM   25  C   UNL     1       7.674  24.012  55.290  1.00  0.00     0.076 A 
HETATM   26  C   UNL     1       7.742  22.654  55.052  1.00  0.00     0.107 A 
HETATM   27  C   UNL     1       7.856  22.138  53.783  1.00  0.00     0.105 A 
HETATM   28  O   UNL     1       7.707  21.682  56.004  1.00  0.00    -0.323 OA
HETATM   29  O   UNL     1       7.906  20.780  53.775  1.00  0.00    -0.323 OA
HETATM   30  C   UNL     1       7.910  22.954  52.675  1.00  0.00     0.042 A 
HETATM   31  C   UNL     1       7.812  20.497  55.186  1.00  0.00     0.352 A 
HETATM   32  C   UNL     1       7.846  24.335  52.887  1.00  0.00     0.040 A 
ENDBRANCH  23  24
ENDBRANCH  22  23
ENDBRANCH  21  22
ENDBRANCH  19  20
ENDBRANCH   2  19
TORSDOF 8
ENDMDL
MODEL 2
REMARK VINA RESULT:      -9.6      1.197      1.995
REMARK  8 active torsions:
REMARK  status: ('A' for Active; 'I' for Inactive)
REMARK    1  A    between atoms: O_2  and  C_3 
REMARK    2  A    between atoms: C_5  and  C_6 
REMARK    3  A    between atoms: C_10  and  C_11 
REMARK       I    between atoms: C_11  and  N_12 
REMARK    4  A    between atoms: N_12  and  C_13 
REMARK    5  A    between atoms: C_13  and  C_14 
REMARK    6  A    between atoms: C_15  and  C_16 
REMARK    7  A    between atoms: C_16  and  O_17 
REMARK    8  A    between atoms: O_17  and  C_18 
ROOT
HETATM    1  C   UNL     1       9.489  31.182  59.022  1.00  0.00     0.270 C 
HETATM    2  N   UNL     1       9.085  29.997  58.467  1.00  0.00    -0.345 N 
HETATM    3  O   UNL     1      10.334  31.902  58.500  1.00  0.00    -0.266 OA
HETATM    4  H   UNL     1       8.415  29.415  58.947  1.00  0.00     0.163 HD
ENDROOT
BRANCH   1   5
HETATM    5  C   UNL     1       8.842  31.528  60.259  1.00  0.00     0.120 A 
HETATM    6  N   UNL     1       8.793  30.659  61.313  1.00  0.00    -0.272 N 
HETATM    7  N   UNL     1       8.186  31.151  62.404  1.00  0.00    -0.174 NA
HETATM    8  H   UNL     1       9.174  29.718  61.344  1.00  0.00     0.189 HD
HETATM    9  C   UNL     1       7.797  32.384  62.049  1.00  0.00     0.089 A 
HETATM   10  C   UNL     1       8.186  32.657  60.708  1.00  0.00     0.071 A 
BRANCH   9  11
HETATM   11  C   UNL     1       7.093  33.273  62.976  1.00  0.00    -0.003 A 
HETATM   12  C   UNL     1       7.310  33.175  64.358  1.00  0.00     0.050 A 
HETATM   13  C   UNL     1       6.676  34.041  65.254  1.00  0.00     0.069 A 
HETATM   14  C   UNL     1       5.795  35.007  64.766  1.00  0.00     0.037 A 
HETATM   15  C   UNL     1       5.558  35.107  63.394  1.00  0.00     0.004 A 
HETATM   16  C   UNL     1       6.204  34.248  62.502  1.00  0.00     0.014 A 
BRANCH  13  17
HETATM   17  O   UNL     1       6.999  33.843  66.569  1.00  0.00    -0.356 OA
HETATM   18  C   UNL     1       6.131  34.414  67.539  1.00  0.00     0.210 C 
ENDBRANCH  13  17
ENDBRANCH   9  11
ENDBRANCH   1   5
BRANCH   2  19
HETATM   19  C   UNL     1       9.644  29.516  57.230  1.00  0.00     0.217 C 
BRANCH  19  20
HETATM   20  C   UNL     1       8.754  28.503  56.658  1.00  0.00    -0.085 C 
HETATM   21  C   UNL     1       7.999  27.693  56.190  1.00  0.00    -0.078 C 
BRANCH  21  22
HETATM   22  C   UNL     1       7.056  26.721  55.619  1.00  0.00     0.269 C 
BRANCH  22  23
HETATM   23  O   UNL     1       7.639  26.132  54.460  1.00  0.00    -0.339 OA
BRANCH  23  24
HETATM   24  C   UNL     1       7.683  24.763  54.415  1.00  0.00     0.072 A 
HETATM   25  C   UNL     1       7.908  23.989  53.273  1.00  0.00     0.076 A 
HETATM   26  C   UNL     1       7.913  22.615  53.419  1.00  0.00     0.107 A 
HETATM   27  C   UNL     1       7.710  22.009  54.636  1.00  0.00     0.105 A 
HETATM   28  O   UNL     1       8.112  21.715  52.419  1.00  0.00    -0.323 OA
HETATM   29  O   UNL     1       7.756  20.653  54.556  1.00  0.00    -0.323 OA
HETATM   30  C   UNL     1       7.487  22.742  55.780  1.00  0.00     0.042 A 
HETATM   31  C   UNL     1       8.011  20.473  53.147  1.00  0.00     0.352 A 
HETATM   32  C   UNL     1       7.474  24.136  55.660  1.00  0.00     0.040 A 
ENDBRANCH  23  24
ENDBRANCH  22  23
ENDBRANCH  21  22
ENDBRANCH  19  20
ENDBRANCH   2  19
TORSDOF 8
ENDMDL
MODEL 3
REMARK VINA RESULT:      -9.4      1.848      2.394
REMARK  8 active torsions:
REMARK  status: ('A' for Active; 'I' for Inactive)
REMARK    1  A    between atoms: O_2  and  C_3 
REMARK    2  A    between atoms: C_5  and  C_6 
REMARK    3  A    between atoms: C_10  and  C_11 
REMARK       I    between atoms: C_11  and  N_12 
REMARK    4  A    between atoms: N_12  and  C_13 
REMARK    5  A    between atoms: C_13  and  C_14 
REMARK    6  A    between atoms: C_15  and  C_16 
REMARK    7  A    between atoms: C_16  and  O_17 
REMARK    8  A    between atoms: O_17  and  C_18 
ROOT
HETATM    1  C   UNL     1       8.870  30.248  58.251  1.00  0.00     0.270 C 
HETATM    2  N   UNL     1       8.064  29.639  57.325  1.00  0.00    -0.345 N 
HETATM    3  O   UNL     1      10.086  30.086  58.277  1.00  0.00    -0.266 OA
HETATM    4  H   UNL     1       7.065  29.768  57.361  1.00  0.00     0.163 HD
ENDROOT
BRANCH   1   5
HETATM    5  C   UNL     1       8.187  31.100  59.187  1.00  0.00     0.120 A 
HETATM    6  N   UNL     1       6.981  31.672  58.893  1.00  0.00    -0.272 N 
HETATM    7  N   UNL     1       6.463  32.407  59.888  1.00  0.00    -0.174 NA
HETATM    8  H   UNL     1       6.460  31.581  58.026  1.00  0.00     0.189 HD
HETATM    9  C   UNL     1       7.373  32.337  60.871  1.00  0.00     0.089 A 
HETATM   10  C   UNL     1       8.472  31.529  60.468  1.00  0.00     0.071 A 
BRANCH   9  11
HETATM   11  C   UNL     1       7.180  33.009  62.158  1.00  0.00    -0.003 A 
HETATM   12  C   UNL     1       6.279  34.078  62.273  1.00  0.00     0.050 A 
HETATM   13  C   UNL     1       6.053  34.706  63.502  1.00  0.00     0.069 A 
HETATM   14  C   UNL     1       6.753  34.275  64.629  1.00  0.00     0.037 A 
HETATM   15  C   UNL     1       7.664  33.222  64.527  1.00  0.00     0.004 A 
HETATM   16  C   UNL     1       7.876  32.590  63.300  1.00  0.00     0.014 A 
BRANCH  13  17
HETATM   17  O   UNL     1       5.132  35.717  63.468  1.00  0.00    -0.356 OA
HETATM   18  C   UNL     1       5.623  37.042  63.636  1.00  0.00     0.210 C 
ENDBRANCH  13  17
ENDBRANCH   9  11
ENDBRANCH   1   5
BRANCH   2  19
HETATM   19  C   UNL     1       8.604  28.755  56.324  1.00  0.00     0.217 C 
BRANCH  19  20
HETATM   20  C   UNL     1       7.924  27.460  56.407  1.00  0.00    -0.085 C 
HETATM   21  C   UNL     1       7.376  26.395  56.504  1.00  0.00    -0.078 C 
BRANCH  21  22
HETATM   22  C   UNL     1       6.714  25.092  56.650  1.00  0.00     0.269 C 
BRANCH  22  23
HETATM   23  O   UNL     1       7.665  24.132  57.103  1.00  0.00    -0.339 OA
BRANCH  23  24
HETATM   24  C   UNL     1       7.919  23.070  56.275  1.00  0.00     0.072 A 
HETATM   25  C   UNL     1       7.735  23.051  54.889  1.00  0.00     0.076 A 
HETATM   26  C   UNL     1       8.041  21.883  54.218  1.00  0.00     0.107 A 
HETATM   27  C   UNL     1       8.513  20.768  54.867  1.00  0.00     0.105 A 
HETATM   28  O   UNL     1       7.920  21.689  52.877  1.00  0.00    -0.323 OA
HETATM   29  O   UNL     1       8.750  19.733  54.019  1.00  0.00    -0.323 OA
HETATM   30  C   UNL     1       8.706  20.754  56.231  1.00  0.00     0.042 A 
HETATM   31  C   UNL     1       8.372  20.323  52.759  1.00  0.00     0.352 A 
HETATM   32  C   UNL     1       8.402  21.923  56.937  1.00  0.00     0.040 A 
ENDBRANCH  23  24
ENDBRANCH  22  23
ENDBRANCH  21  22
ENDBRANCH  19  20
ENDBRANCH   2  19
TORSDOF 8
ENDMDL
MODEL 4
REMARK VINA RESULT:      -9.4      2.714     11.959
REMARK  8 active torsions:
REMARK  status: ('A' for Active; 'I' for Inactive)
REMARK    1  A    between atoms: O_2  and  C_3 
REMARK    2  A    between atoms: C_5  and  C_6 
REMARK    3  A    between atoms: C_10  and  C_11 
REMARK       I    between atoms: C_11  and  N_12 
REMARK    4  A    between atoms: N_12  and  C_13 
REMARK    5  A    between atoms: C_13  and  C_14 
REMARK    6  A    between atoms: C_15  and  C_16 
REMARK    7  A    between atoms: C_16  and  O_17 
REMARK    8  A    between atoms: O_17  and  C_18 
ROOT
HETATM    1  C   UNL     1       5.045  28.791  56.008  1.00  0.00     0.270 C 
HETATM    2  N   UNL     1       4.407  29.075  57.188  1.00  0.00    -0.345 N 
HETATM    3  O   UNL     1       5.254  29.642  55.150  1.00  0.00    -0.266 OA
HETATM    4  H   UNL     1       4.220  28.339  57.851  1.00  0.00     0.163 HD
ENDROOT
BRANCH   1   5
HETATM    5  C   UNL     1       5.460  27.424  55.854  1.00  0.00     0.120 A 
HETATM    6  N   UNL     1       4.937  26.421  56.621  1.00  0.00    -0.272 N 
HETATM    7  N   UNL     1       5.405  25.199  56.324  1.00  0.00    -0.174 NA
HETATM    8  H   UNL     1       4.243  26.516  57.356  1.00  0.00     0.189 HD
HETATM    9  C   UNL     1       6.291  25.405  55.338  1.00  0.00     0.089 A 
HETATM   10  C   UNL     1       6.357  26.789  55.017  1.00  0.00     0.071 A 
BRANCH   9  11
HETATM   11  C   UNL     1       7.030  24.305  54.716  1.00  0.00    -0.003 A 
HETATM   12  C   UNL     1       7.750  23.396  55.505  1.00  0.00     0.050 A 
HETATM   13  C   UNL     1       8.431  22.318  54.930  1.00  0.00     0.069 A 
HETATM   14  C   UNL     1       8.409  22.155  53.545  1.00  0.00     0.037 A 
HETATM   15  C   UNL     1       7.708  23.059  52.745  1.00  0.00     0.004 A 
HETATM   16  C   UNL     1       7.021  24.127  53.325  1.00  0.00     0.014 A 
BRANCH  13  17
HETATM   17  O   UNL     1       9.070  21.502  55.824  1.00  0.00    -0.356 OA
HETATM   18  C   UNL     1       8.251  20.741  56.702  1.00  0.00     0.210 C 
ENDBRANCH  13  17
ENDBRANCH   9  11
ENDBRANCH   1   5
BRANCH   2  19
HETATM   19  C   UNL     1       3.930  30.400  57.485  1.00  0.00     0.217 C 
BRANCH  19  20
HETATM   20  C   UNL     1       4.937  31.109  58.279  1.00  0.00    -0.085 C 
HETATM   21  C   UNL     1       5.785  31.679  58.912  1.00  0.00    -0.078 C 
BRANCH  21  22
HETATM   22  C   UNL     1       6.841  32.366  59.669  1.00  0.00     0.269 C 
BRANCH  22  23
HETATM   23  O   UNL     1       7.170  31.590  60.819  1.00  0.00    -0.339 OA
BRANCH  23  24
HETATM   24  C   UNL     1       6.855  32.126  62.040  1.00  0.00     0.072 A 
HETATM   25  C   UNL     1       5.564  32.346  62.529  1.00  0.00     0.076 A 
HETATM   26  C   UNL     1       5.440  32.903  63.787  1.00  0.00     0.107 A 
HETATM   27  C   UNL     1       6.533  33.236  64.550  1.00  0.00     0.105 A 
HETATM   28  O   UNL     1       4.266  33.186  64.413  1.00  0.00    -0.323 OA
HETATM   29  O   UNL     1       6.186  33.768  65.751  1.00  0.00    -0.323 OA
HETATM   30  C   UNL     1       7.818  33.032  64.099  1.00  0.00     0.042 A 
HETATM   31  C   UNL     1       4.747  33.734  65.658  1.00  0.00     0.352 A 
HETATM   32  C   UNL     1       7.973  32.471  62.827  1.00  0.00     0.040 A 
ENDBRANCH  23  24
ENDBRANCH  22  23
ENDBRANCH  21  22
ENDBRANCH  19  20
ENDBRANCH   2  19
TORSDOF 8
ENDMDL
MODEL 5
REMARK VINA RESULT:      -9.4      1.966     11.981
REMARK  8 active torsions:
REMARK  status: ('A' for Active; 'I' for Inactive)
REMARK    1  A    between atoms: O_2  and  C_3 
REMARK    2  A    between atoms: C_5  and  C_6 
REMARK    3  A    between atoms: C_10  and  C_11 
REMARK       I    between atoms: C_11  and  N_12 
REMARK    4  A    between atoms: N_12  and  C_13 
REMARK    5  A    between atoms: C_13  and  C_14 
REMARK    6  A    between atoms: C_15  and  C_16 
REMARK    7  A    between atoms: C_16  and  O_17 
REMARK    8  A    between atoms: O_17  and  C_18 
ROOT
HETATM    1  C   UNL     1       7.827  29.127  57.351  1.00  0.00     0.270 C 
HETATM    2  N   UNL     1       9.175  29.306  57.519  1.00  0.00    -0.345 N 
HETATM    3  O   UNL     1       7.007  29.998  57.622  1.00  0.00    -0.266 OA
HETATM    4  H   UNL     1       9.814  28.551  57.322  1.00  0.00     0.163 HD
ENDROOT
BRANCH   1   5
HETATM    5  C   UNL     1       7.443  27.845  56.825  1.00  0.00     0.120 A 
HETATM    6  N   UNL     1       6.157  27.390  56.906  1.00  0.00    -0.272 N 
HETATM    7  N   UNL     1       5.960  26.192  56.334  1.00  0.00    -0.174 NA
HETATM    8  H   UNL     1       5.368  27.867  57.332  1.00  0.00     0.189 HD
HETATM    9  C   UNL     1       7.169  25.831  55.878  1.00  0.00     0.089 A 
HETATM   10  C   UNL     1       8.127  26.841  56.170  1.00  0.00     0.071 A 
BRANCH   9  11
HETATM   11  C   UNL     1       7.386  24.568  55.168  1.00  0.00    -0.003 A 
HETATM   12  C   UNL     1       7.474  23.362  55.878  1.00  0.00     0.050 A 
HETATM   13  C   UNL     1       7.643  22.142  55.214  1.00  0.00     0.069 A 
HETATM   14  C   UNL     1       7.746  22.129  53.823  1.00  0.00     0.037 A 
HETATM   15  C   UNL     1       7.674  23.324  53.104  1.00  0.00     0.004 A 
HETATM   16  C   UNL     1       7.492  24.537  53.772  1.00  0.00     0.014 A 
BRANCH  13  17
HETATM   17  O   UNL     1       7.691  21.046  56.032  1.00  0.00    -0.356 OA
HETATM   18  C   UNL     1       8.925  20.342  56.094  1.00  0.00     0.210 C 
ENDBRANCH  13  17
ENDBRANCH   9  11
ENDBRANCH   1   5
BRANCH   2  19
HETATM   19  C   UNL     1       9.712  30.536  58.040  1.00  0.00     0.217 C 
BRANCH  19  20
HETATM   20  C   UNL     1       9.273  30.706  59.428  1.00  0.00    -0.085 C 
HETATM   21  C   UNL     1       8.942  30.853  60.574  1.00  0.00    -0.078 C 
BRANCH  21  22
HETATM   22  C   UNL     1       8.563  31.041  61.981  1.00  0.00     0.269 C 
BRANCH  22  23
HETATM   23  O   UNL     1       7.162  31.286  62.058  1.00  0.00    -0.339 OA
BRANCH  23  24
HETATM   24  C   UNL     1       6.729  32.099  63.073  1.00  0.00     0.072 A 
HETATM   25  C   UNL     1       5.395  32.331  63.423  1.00  0.00     0.076 A 
HETATM   26  C   UNL     1       5.149  33.190  64.476  1.00  0.00     0.107 A 
HETATM   27  C   UNL     1       6.163  33.805  65.172  1.00  0.00     0.105 A 
HETATM   28  O   UNL     1       3.919  33.530  64.947  1.00  0.00    -0.323 OA
HETATM   29  O   UNL     1       5.700  34.607  66.167  1.00  0.00    -0.323 OA
HETATM   30  C   UNL     1       7.486  33.597  64.853  1.00  0.00     0.042 A 
HETATM   31  C   UNL     1       4.276  34.428  66.019  1.00  0.00     0.352 A 
HETATM   32  C   UNL     1       7.765  32.733  63.789  1.00  0.00     0.040 A 
ENDBRANCH  23  24
ENDBRANCH  22  23
ENDBRANCH  21  22
ENDBRANCH  19  20
ENDBRANCH   2  19
TORSDOF 8
ENDMDL
MODEL 6
REMARK VINA RESULT:      -8.9      3.063     11.950
REMARK  8 active torsions:
REMARK  status: ('A' for Active; 'I' for Inactive)
REMARK    1  A    between atoms: O_2  and  C_3 
REMARK    2  A    between atoms: C_5  and  C_6 
REMARK    3  A    between atoms: C_10  and  C_11 
REMARK       I    between atoms: C_11  and  N_12 
REMARK    4  A    between atoms: N_12  and  C_13 
REMARK    5  A    between atoms: C_13  and  C_14 
REMARK    6  A    between atoms: C_15  and  C_16 
REMARK    7  A    between atoms: C_16  and  O_17 
REMARK    8  A    between atoms: O_17  and  C_18 
ROOT
HETATM    1  C   UNL     1       5.083  26.992  54.141  1.00  0.00     0.270 C 
HETATM    2  N   UNL     1       5.160  27.497  55.413  1.00  0.00    -0.345 N 
HETATM    3  O   UNL     1       4.324  27.450  53.293  1.00  0.00    -0.266 OA
HETATM    4  H   UNL     1       5.769  27.067  56.092  1.00  0.00     0.163 HD
ENDROOT
BRANCH   1   5
HETATM    5  C   UNL     1       5.965  25.889  53.869  1.00  0.00     0.120 A 
HETATM    6  N   UNL     1       6.992  25.992  52.973  1.00  0.00    -0.272 N 
HETATM    7  N   UNL     1       7.742  24.885  52.865  1.00  0.00    -0.174 NA
HETATM    8  H   UNL     1       7.234  26.807  52.417  1.00  0.00     0.189 HD
HETATM    9  C   UNL     1       7.173  24.007  53.704  1.00  0.00     0.089 A 
HETATM   10  C   UNL     1       6.053  24.598  54.351  1.00  0.00     0.071 A 
BRANCH   9  11
HETATM   11  C   UNL     1       7.704  22.655  53.891  1.00  0.00    -0.003 A 
HETATM   12  C   UNL     1       7.886  22.134  55.180  1.00  0.00     0.050 A 
HETATM   13  C   UNL     1       8.357  20.832  55.376  1.00  0.00     0.069 A 
HETATM   14  C   UNL     1       8.668  20.043  54.268  1.00  0.00     0.037 A 
HETATM   15  C   UNL     1       8.505  20.552  52.979  1.00  0.00     0.004 A 
HETATM   16  C   UNL     1       8.024  21.850  52.789  1.00  0.00     0.014 A 
BRANCH  13  17
HETATM   17  O   UNL     1       8.464  20.452  56.686  1.00  0.00    -0.356 OA
HETATM   18  C   UNL     1       8.329  21.474  57.666  1.00  0.00     0.210 C 
ENDBRANCH  13  17
ENDBRANCH   9  11
ENDBRANCH   1   5
BRANCH   2  19
HETATM   19  C   UNL     1       4.336  28.600  55.834  1.00  0.00     0.217 C 
BRANCH  19  20
HETATM   20  C   UNL     1       5.151  29.546  56.601  1.00  0.00    -0.085 C 
HETATM   21  C   UNL     1       5.799  30.345  57.223  1.00  0.00    -0.078 C 
BRANCH  21  22
HETATM   22  C   UNL     1       6.572  31.341  57.977  1.00  0.00     0.269 C 
BRANCH  22  23
HETATM   23  O   UNL     1       7.402  30.669  58.922  1.00  0.00    -0.339 OA
BRANCH  23  24
HETATM   24  C   UNL     1       7.533  31.250  60.156  1.00  0.00     0.072 A 
HETATM   25  C   UNL     1       6.575  32.044  60.794  1.00  0.00     0.076 A 
HETATM   26  C   UNL     1       6.887  32.550  62.040  1.00  0.00     0.107 A 
HETATM   27  C   UNL     1       8.090  32.295  62.653  1.00  0.00     0.105 A 
HETATM   28  O   UNL     1       6.077  33.338  62.797  1.00  0.00    -0.323 OA
HETATM   29  O   UNL     1       8.189  32.888  63.872  1.00  0.00    -0.323 OA
HETATM   30  C   UNL     1       9.055  31.517  62.053  1.00  0.00     0.042 A 
HETATM   31  C   UNL     1       6.910  33.548  63.957  1.00  0.00     0.352 A 
HETATM   32  C   UNL     1       8.767  30.992  60.789  1.00  0.00     0.040 A 
ENDBRANCH  23  24
ENDBRANCH  22  23
ENDBRANCH  21  22
ENDBRANCH  19  20
ENDBRANCH   2  19
TORSDOF 8
ENDMDL
MODEL 7
REMARK VINA RESULT:      -8.7      1.950      2.514
REMARK  8 active torsions:
REMARK  status: ('A' for Active; 'I' for Inactive)
REMARK    1  A    between atoms: O_2  and  C_3 
REMARK    2  A    between atoms: C_5  and  C_6 
REMARK    3  A    between atoms: C_10  and  C_11 
REMARK       I    between atoms: C_11  and  N_12 
REMARK    4  A    between atoms: N_12  and  C_13 
REMARK    5  A    between atoms: C_13  and  C_14 
REMARK    6  A    between atoms: C_15  and  C_16 
REMARK    7  A    between atoms: C_16  and  O_17 
REMARK    8  A    between atoms: O_17  and  C_18 
ROOT
HETATM    1  C   UNL     1       8.502  30.688  60.133  1.00  0.00     0.270 C 
HETATM    2  N   UNL     1       8.311  30.647  58.777  1.00  0.00    -0.345 N 
HETATM    3  O   UNL     1       9.432  30.109  60.687  1.00  0.00    -0.266 OA
HETATM    4  H   UNL     1       7.512  31.104  58.365  1.00  0.00     0.163 HD
ENDROOT
BRANCH   1   5
HETATM    5  C   UNL     1       7.539  31.467  60.862  1.00  0.00     0.120 A 
HETATM    6  N   UNL     1       6.967  31.010  62.016  1.00  0.00    -0.272 N 
HETATM    7  N   UNL     1       6.117  31.875  62.590  1.00  0.00    -0.174 NA
HETATM    8  H   UNL     1       7.135  30.115  62.465  1.00  0.00     0.189 HD
HETATM    9  C   UNL     1       6.108  32.937  61.770  1.00  0.00     0.089 A 
HETATM   10  C   UNL     1       6.984  32.717  60.671  1.00  0.00     0.071 A 
BRANCH   9  11
HETATM   11  C   UNL     1       5.299  34.125  62.047  1.00  0.00    -0.003 A 
HETATM   12  C   UNL     1       5.814  35.169  62.830  1.00  0.00     0.050 A 
HETATM   13  C   UNL     1       5.070  36.328  63.074  1.00  0.00     0.069 A 
HETATM   14  C   UNL     1       3.784  36.439  62.544  1.00  0.00     0.037 A 
HETATM   15  C   UNL     1       3.252  35.402  61.775  1.00  0.00     0.004 A 
HETATM   16  C   UNL     1       4.005  34.253  61.525  1.00  0.00     0.014 A 
BRANCH  13  17
HETATM   17  O   UNL     1       5.707  37.269  63.835  1.00  0.00    -0.356 OA
HETATM   18  C   UNL     1       6.053  38.490  63.193  1.00  0.00     0.210 C 
ENDBRANCH  13  17
ENDBRANCH   9  11
ENDBRANCH   1   5
BRANCH   2  19
HETATM   19  C   UNL     1       9.193  29.904  57.915  1.00  0.00     0.217 C 
BRANCH  19  20
HETATM   20  C   UNL     1       8.546  28.649  57.527  1.00  0.00    -0.085 C 
HETATM   21  C   UNL     1       7.993  27.635  57.193  1.00  0.00    -0.078 C 
BRANCH  21  22
HETATM   22  C   UNL     1       7.301  26.411  56.768  1.00  0.00     0.269 C 
BRANCH  22  23
HETATM   23  O   UNL     1       7.328  26.328  55.346  1.00  0.00    -0.339 OA
BRANCH  23  24
HETATM   24  C   UNL     1       7.484  25.081  54.799  1.00  0.00     0.072 A 
HETATM   25  C   UNL     1       7.453  23.871  55.499  1.00  0.00     0.076 A 
HETATM   26  C   UNL     1       7.635  22.707  54.778  1.00  0.00     0.107 A 
HETATM   27  C   UNL     1       7.838  22.714  53.418  1.00  0.00     0.105 A 
HETATM   28  O   UNL     1       7.638  21.450  55.295  1.00  0.00    -0.323 OA
HETATM   29  O   UNL     1       7.992  21.464  52.909  1.00  0.00    -0.323 OA
HETATM   30  C   UNL     1       7.872  23.888  52.699  1.00  0.00     0.042 A 
HETATM   31  C   UNL     1       7.865  20.666  54.104  1.00  0.00     0.352 A 
HETATM   32  C   UNL     1       7.693  25.082  53.405  1.00  0.00     0.040 A 
ENDBRANCH  23  24
ENDBRANCH  22  23
ENDBRANCH  21  22
ENDBRANCH  19  20
ENDBRANCH   2  19
TORSDOF 8
ENDMDL
MODEL 8
REMARK VINA RESULT:      -8.6      2.290     12.026
REMARK  8 active torsions:
REMARK  status: ('A' for Active; 'I' for Inactive)
REMARK    1  A    between atoms: O_2  and  C_3 
REMARK    2  A    between atoms: C_5  and  C_6 
REMARK    3  A    between atoms: C_10  and  C_11 
REMARK       I    between atoms: C_11  and  N_12 
REMARK    4  A    between atoms: N_12  and  C_13 
REMARK    5  A    between atoms: C_13  and  C_14 
REMARK    6  A    between atoms: C_15  and  C_16 
REMARK    7  A    between atoms: C_16  and  O_17 
REMARK    8  A    between atoms: O_17  and  C_18 
ROOT
HETATM    1  C   UNL     1       7.610  29.170  58.088  1.00  0.00     0.270 C 
HETATM    2  N   UNL     1       6.668  30.164  58.090  1.00  0.00    -0.345 N 
HETATM    3  O   UNL     1       8.675  29.267  58.690  1.00  0.00    -0.266 OA
HETATM    4  H   UNL     1       5.822  30.061  57.551  1.00  0.00     0.163 HD
ENDROOT
BRANCH   1   5
HETATM    5  C   UNL     1       7.257  27.997  57.335  1.00  0.00     0.120 A 
HETATM    6  N   UNL     1       5.954  27.640  57.127  1.00  0.00    -0.272 N 
HETATM    7  N   UNL     1       5.797  26.541  56.373  1.00  0.00    -0.174 NA
HETATM    8  H   UNL     1       5.129  28.123  57.470  1.00  0.00     0.189 HD
HETATM    9  C   UNL     1       7.046  26.142  56.091  1.00  0.00     0.089 A 
HETATM   10  C   UNL     1       7.991  27.028  56.680  1.00  0.00     0.071 A 
BRANCH   9  11
HETATM   11  C   UNL     1       7.317  24.962  55.267  1.00  0.00    -0.003 A 
HETATM   12  C   UNL     1       7.332  23.683  55.842  1.00  0.00     0.050 A 
HETATM   13  C   UNL     1       7.552  22.542  55.063  1.00  0.00     0.069 A 
HETATM   14  C   UNL     1       7.780  22.681  53.694  1.00  0.00     0.037 A 
HETATM   15  C   UNL     1       7.782  23.949  53.111  1.00  0.00     0.004 A 
HETATM   16  C   UNL     1       7.550  25.084  53.891  1.00  0.00     0.014 A 
BRANCH  13  17
HETATM   17  O   UNL     1       7.517  21.361  55.754  1.00  0.00    -0.356 OA
HETATM   18  C   UNL     1       8.761  20.849  56.217  1.00  0.00     0.210 C 
ENDBRANCH  13  17
ENDBRANCH   9  11
ENDBRANCH   1   5
BRANCH   2  19
HETATM   19  C   UNL     1       6.880  31.400  58.798  1.00  0.00     0.217 C 
BRANCH  19  20
HETATM   20  C   UNL     1       5.585  31.958  59.196  1.00  0.00    -0.085 C 
HETATM   21  C   UNL     1       4.531  32.412  59.552  1.00  0.00    -0.078 C 
BRANCH  21  22
HETATM   22  C   UNL     1       3.250  32.965  60.013  1.00  0.00     0.269 C 
BRANCH  22  23
HETATM   23  O   UNL     1       3.467  34.273  60.535  1.00  0.00    -0.339 OA
BRANCH  23  24
HETATM   24  C   UNL     1       4.072  34.360  61.761  1.00  0.00     0.072 A 
HETATM   25  C   UNL     1       3.720  33.630  62.901  1.00  0.00     0.076 A 
HETATM   26  C   UNL     1       4.444  33.855  64.056  1.00  0.00     0.107 A 
HETATM   27  C   UNL     1       5.479  34.758  64.106  1.00  0.00     0.105 A 
HETATM   28  O   UNL     1       4.237  33.238  65.250  1.00  0.00    -0.323 OA
HETATM   29  O   UNL     1       6.053  34.823  65.336  1.00  0.00    -0.323 OA
HETATM   30  C   UNL     1       5.851  35.492  63.002  1.00  0.00     0.042 A 
HETATM   31  C   UNL     1       5.261  33.857  66.057  1.00  0.00     0.352 A 
HETATM   32  C   UNL     1       5.134  35.286  61.819  1.00  0.00     0.040 A 
ENDBRANCH  23  24
ENDBRANCH  22  23
ENDBRANCH  21  22
ENDBRANCH  19  20
ENDBRANCH   2  19
TORSDOF 8
ENDMDL
MODEL 9
REMARK VINA RESULT:      -8.5      2.113     12.293
REMARK  8 active torsions:
REMARK  status: ('A' for Active; 'I' for Inactive)
REMARK    1  A    between atoms: O_2  and  C_3 
REMARK    2  A    between atoms: C_5  and  C_6 
REMARK    3  A    between atoms: C_10  and  C_11 
REMARK       I    between atoms: C_11  and  N_12 
REMARK    4  A    between atoms: N_12  and  C_13 
REMARK    5  A    between atoms: C_13  and  C_14 
REMARK    6  A    between atoms: C_15  and  C_16 
REMARK    7  A    between atoms: C_16  and  O_17 
REMARK    8  A    between atoms: O_17  and  C_18 
ROOT
HETATM    1  C   UNL     1       8.432  29.800  58.457  1.00  0.00     0.270 C 
HETATM    2  N   UNL     1       7.919  30.101  59.691  1.00  0.00    -0.345 N 
HETATM    3  O   UNL     1       9.327  30.456  57.935  1.00  0.00    -0.266 OA
HETATM    4  H   UNL     1       7.157  29.560  60.068  1.00  0.00     0.163 HD
ENDROOT
BRANCH   1   5
HETATM    5  C   UNL     1       7.850  28.649  57.820  1.00  0.00     0.120 A 
HETATM    6  N   UNL     1       6.497  28.473  57.748  1.00  0.00    -0.272 N 
HETATM    7  N   UNL     1       6.119  27.368  57.088  1.00  0.00    -0.174 NA
HETATM    8  H   UNL     1       5.783  29.090  58.124  1.00  0.00     0.189 HD
HETATM    9  C   UNL     1       7.269  26.777  56.731  1.00  0.00     0.089 A 
HETATM   10  C   UNL     1       8.378  27.549  57.175  1.00  0.00     0.071 A 
BRANCH   9  11
HETATM   11  C   UNL     1       7.296  25.525  55.971  1.00  0.00    -0.003 A 
HETATM   12  C   UNL     1       6.727  25.459  54.691  1.00  0.00     0.050 A 
HETATM   13  C   UNL     1       6.777  24.282  53.936  1.00  0.00     0.069 A 
HETATM   14  C   UNL     1       7.386  23.148  54.475  1.00  0.00     0.037 A 
HETATM   15  C   UNL     1       7.944  23.195  55.754  1.00  0.00     0.004 A 
HETATM   16  C   UNL     1       7.902  24.377  56.498  1.00  0.00     0.014 A 
BRANCH  13  17
HETATM   17  O   UNL     1       6.201  24.370  52.698  1.00  0.00    -0.356 OA
HETATM   18  C   UNL     1       4.863  24.849  52.643  1.00  0.00     0.210 C 
ENDBRANCH  13  17
ENDBRANCH   9  11
ENDBRANCH   1   5
BRANCH   2  19
HETATM   19  C   UNL     1       8.399  31.227  60.450  1.00  0.00     0.217 C 
BRANCH  19  20
HETATM   20  C   UNL     1       7.279  32.124  60.745  1.00  0.00    -0.085 C 
HETATM   21  C   UNL     1       6.372  32.881  60.966  1.00  0.00    -0.078 C 
BRANCH  21  22
HETATM   22  C   UNL     1       5.273  33.823  61.217  1.00  0.00     0.269 C 
BRANCH  22  23
HETATM   23  O   UNL     1       4.471  33.330  62.288  1.00  0.00    -0.339 OA
BRANCH  23  24
HETATM   24  C   UNL     1       4.539  34.007  63.477  1.00  0.00     0.072 A 
HETATM   25  C   UNL     1       4.937  33.468  64.704  1.00  0.00     0.076 A 
HETATM   26  C   UNL     1       4.939  34.305  65.803  1.00  0.00     0.107 A 
HETATM   27  C   UNL     1       4.569  35.626  65.717  1.00  0.00     0.105 A 
HETATM   28  O   UNL     1       5.292  33.948  67.067  1.00  0.00    -0.323 OA
HETATM   29  O   UNL     1       4.644  36.266  66.913  1.00  0.00    -0.323 OA
HETATM   30  C   UNL     1       4.174  36.188  64.524  1.00  0.00     0.042 A 
HETATM   31  C   UNL     1       5.102  35.197  67.765  1.00  0.00     0.352 A 
HETATM   32  C   UNL     1       4.160  35.363  63.395  1.00  0.00     0.040 A 
ENDBRANCH  23  24
ENDBRANCH  22  23
ENDBRANCH  21  22
ENDBRANCH  19  20
ENDBRANCH   2  19
TORSDOF 8
ENDMDL
MODEL 10
REMARK VINA RESULT:      -8.5      7.536     10.988
REMARK  8 active torsions:
REMARK  status: ('A' for Active; 'I' for Inactive)
REMARK    1  A    between atoms: O_2  and  C_3 
REMARK    2  A    between atoms: C_5  and  C_6 
REMARK    3  A    between atoms: C_10  and  C_11 
REMARK       I    between atoms: C_11  and  N_12 
REMARK    4  A    between atoms: N_12  and  C_13 
REMARK    5  A    between atoms: C_13  and  C_14 
REMARK    6  A    between atoms: C_15  and  C_16 
REMARK    7  A    between atoms: C_16  and  O_17 
REMARK    8  A    between atoms: O_17  and  C_18 
ROOT
HETATM    1  C   UNL     1       4.718  28.588  53.956  1.00  0.00     0.270 C 
HETATM    2  N   UNL     1       3.655  28.988  53.189  1.00  0.00    -0.345 N 
HETATM    3  O   UNL     1       5.328  29.358  54.691  1.00  0.00    -0.266 OA
HETATM    4  H   UNL     1       3.204  28.334  52.569  1.00  0.00     0.163 HD
ENDROOT
BRANCH   1   5
HETATM    5  C   UNL     1       5.061  27.197  53.844  1.00  0.00     0.120 A 
HETATM    6  N   UNL     1       4.211  26.289  53.277  1.00  0.00    -0.272 N 
HETATM    7  N   UNL     1       4.699  25.040  53.217  1.00  0.00    -0.174 NA
HETATM    8  H   UNL     1       3.286  26.474  52.901  1.00  0.00     0.189 HD
HETATM    9  C   UNL     1       5.909  25.121  53.788  1.00  0.00     0.089 A 
HETATM   10  C   UNL     1       6.172  26.458  54.199  1.00  0.00     0.071 A 
BRANCH   9  11
HETATM   11  C   UNL     1       6.788  23.956  53.915  1.00  0.00    -0.003 A 
HETATM   12  C   UNL     1       7.114  23.447  55.180  1.00  0.00     0.050 A 
HETATM   13  C   UNL     1       7.921  22.313  55.319  1.00  0.00     0.069 A 
HETATM   14  C   UNL     1       8.426  21.689  54.178  1.00  0.00     0.037 A 
HETATM   15  C   UNL     1       8.121  22.193  52.912  1.00  0.00     0.004 A 
HETATM   16  C   UNL     1       7.305  23.319  52.779  1.00  0.00     0.014 A 
BRANCH  13  17
HETATM   17  O   UNL     1       8.137  21.917  56.610  1.00  0.00    -0.356 OA
HETATM   18  C   UNL     1       8.697  20.624  56.803  1.00  0.00     0.210 C 
ENDBRANCH  13  17
ENDBRANCH   9  11
ENDBRANCH   1   5
BRANCH   2  19
HETATM   19  C   UNL     1       3.196  30.353  53.194  1.00  0.00     0.217 C 
BRANCH  19  20
HETATM   20  C   UNL     1       3.031  30.812  51.812  1.00  0.00    -0.085 C 
HETATM   21  C   UNL     1       2.879  31.213  50.689  1.00  0.00    -0.078 C 
BRANCH  21  22
HETATM   22  C   UNL     1       2.679  31.724  49.326  1.00  0.00     0.269 C 
BRANCH  22  23
HETATM   23  O   UNL     1       3.745  31.271  48.497  1.00  0.00    -0.339 OA
BRANCH  23  24
HETATM   24  C   UNL     1       3.745  29.944  48.155  1.00  0.00     0.072 A 
HETATM   25  C   UNL     1       2.637  29.209  47.725  1.00  0.00     0.076 A 
HETATM   26  C   UNL     1       2.827  27.873  47.429  1.00  0.00     0.107 A 
HETATM   27  C   UNL     1       4.055  27.267  47.543  1.00  0.00     0.105 A 
HETATM   28  O   UNL     1       1.863  27.014  47.002  1.00  0.00    -0.323 OA
HETATM   29  O   UNL     1       4.020  25.952  47.202  1.00  0.00    -0.323 OA
HETATM   30  C   UNL     1       5.167  27.962  47.963  1.00  0.00     0.042 A 
HETATM   31  C   UNL     1       2.627  25.798  46.860  1.00  0.00     0.352 A 
HETATM   32  C   UNL     1       5.003  29.316  48.272  1.00  0.00     0.040 A 
ENDBRANCH  23  24
ENDBRANCH  22  23
ENDBRANCH  21  22
ENDBRANCH  19  20
ENDBRANCH   2  19
TORSDOF 8
ENDMDL
