MODEL 1
REMARK VINA RESULT:     -10.7      0.000      0.000
REMARK  9 active torsions:
REMARK  status: ('A' for Active; 'I' for Inactive)
REMARK    1  A    between atoms: C_2  and  O_3 
REMARK    2  A    between atoms: O_3  and  C_4 
REMARK    3  A    between atoms: C_7  and  C_8 
REMARK       I    between atoms: C_8  and  N_9 
REMARK    4  A    between atoms: N_9  and  C_10 
REMARK    5  A    between atoms: C_10  and  N_11 
REMARK    6  A    between atoms: N_11  and  C_12 
REMARK    7  A    between atoms: C_15  and  N_16 
REMARK    8  A    between atoms: N_19  and  C_21 
REMARK    9  A    between atoms: C_21  and  C_22 
ROOT
HETATM    1  C   UNL     1       7.692  29.007  58.165  1.00  0.00     0.034 C 
HETATM    2  C   UNL     1       6.530  29.572  57.648  1.00  0.00     0.032 C 
HETATM    3  C   UNL     1       5.852  28.963  56.587  1.00  0.00     0.031 C 
HETATM    4  C   UNL     1       6.286  27.747  56.044  1.00  0.00     0.030 C 
HETATM    5  C   UNL     1       7.538  27.282  56.486  1.00  0.00     0.031 C 
HETATM    6  C   UNL     1       8.244  27.907  57.525  1.00  0.00     0.032 C 
ENDROOT
BRANCH   1   7
HETATM    7  N   UNL     1       8.330  29.536  59.303  1.00  0.00    -0.333 N 
HETATM    8  H   UNL     1       8.605  28.878  60.026  1.00  0.00     0.168 HD
BRANCH   7   9
HETATM    9  C   UNL     1       8.680  30.835  59.523  1.00  0.00     0.179 C 
HETATM   10  S   UNL     1       9.855  31.559  58.588  1.00  0.00    -0.040 SA
BRANCH   9  11
HETATM   11  N   UNL     1       8.090  31.549  60.533  1.00  0.00    -0.299 N 
HETATM   12  C   UNL     1       8.153  31.240  61.884  1.00  0.00     0.257 C 
HETATM   13  O   UNL     1       8.836  30.372  62.416  1.00  0.00    -0.267 OA
HETATM   14  H   UNL     1       7.925  32.523  60.313  1.00  0.00     0.171 HD
BRANCH  12  15
HETATM   15  C   UNL     1       7.341  32.094  62.768  1.00  0.00     0.032 A 
HETATM   16  C   UNL     1       5.948  32.043  62.705  1.00  0.00     0.020 A 
HETATM   17  C   UNL     1       5.197  32.693  63.687  1.00  0.00     0.038 A 
HETATM   18  C   UNL     1       5.827  33.395  64.723  1.00  0.00     0.069 A 
HETATM   19  C   UNL     1       7.218  33.493  64.738  1.00  0.00     0.038 A 
HETATM   20  C   UNL     1       7.978  32.825  63.773  1.00  0.00     0.020 A 
BRANCH  18  21
HETATM   21  O   UNL     1       4.972  33.896  65.663  1.00  0.00    -0.347 OA
BRANCH  21  22
HETATM   22  C   UNL     1       4.003  34.883  65.280  1.00  0.00     0.120 C 
HETATM   23  C   UNL     1       4.688  36.121  64.701  1.00  0.00     0.040 C 
HETATM   24  C   UNL     1       3.250  35.270  66.552  1.00  0.00     0.040 C 
ENDBRANCH  21  22
ENDBRANCH  18  21
ENDBRANCH  12  15
ENDBRANCH   9  11
ENDBRANCH   7   9
ENDBRANCH   1   7
BRANCH   4  25
HETATM   25  N   UNL     1       5.537  27.008  55.111  1.00  0.00    -0.378 N 
HETATM   26  C   UNL     1       5.313  25.564  55.337  1.00  0.00     0.150 C 
HETATM   27  C   UNL     1       6.539  24.718  54.916  1.00  0.00     0.255 C 
HETATM   28  N   UNL     1       6.992  25.044  53.489  1.00  0.00    -0.064 N 
HETATM   29  H   UNL     1       6.252  24.711  52.861  1.00  0.00     0.280 HD
HETATM   30  C   UNL     1       7.142  26.554  53.268  1.00  0.00     0.255 C 
HETATM   31  C   UNL     1       5.856  27.298  53.691  1.00  0.00     0.150 C 
BRANCH  28  32
HETATM   32  C   UNL     1       8.266  24.321  53.110  1.00  0.00     0.273 C 
BRANCH  32  33
HETATM   33  C   UNL     1       8.336  22.923  53.660  1.00  0.00    -0.033 A 
HETATM   34  C   UNL     1       7.810  21.844  52.933  1.00  0.00     0.009 A 
HETATM   35  C   UNL     1       7.846  20.552  53.462  1.00  0.00     0.001 A 
HETATM   36  C   UNL     1       8.403  20.326  54.719  1.00  0.00     0.000 A 
HETATM   37  C   UNL     1       8.932  21.388  55.448  1.00  0.00     0.001 A 
HETATM   38  C   UNL     1       8.903  22.681  54.922  1.00  0.00     0.009 A 
ENDBRANCH  32  33
ENDBRANCH  28  32
ENDBRANCH   4  25
TORSDOF 9
ENDMDL
MODEL 2
REMARK VINA RESULT:     -10.5      1.477      1.937
REMARK  9 active torsions:
REMARK  status: ('A' for Active; 'I' for Inactive)
REMARK    1  A    between atoms: C_2  and  O_3 
REMARK    2  A    between atoms: O_3  and  C_4 
REMARK    3  A    between atoms: C_7  and  C_8 
REMARK       I    between atoms: C_8  and  N_9 
REMARK    4  A    between atoms: N_9  and  C_10 
REMARK    5  A    between atoms: C_10  and  N_11 
REMARK    6  A    between atoms: N_11  and  C_12 
REMARK    7  A    between atoms: C_15  and  N_16 
REMARK    8  A    between atoms: N_19  and  C_21 
REMARK    9  A    between atoms: C_21  and  C_22 
ROOT
HETATM    1  C   UNL     1       6.761  30.281  57.745  1.00  0.00     0.034 C 
HETATM    2  C   UNL     1       5.655  30.252  56.901  1.00  0.00     0.032 C 
HETATM    3  C   UNL     1       5.175  29.040  56.395  1.00  0.00     0.031 C 
HETATM    4  C   UNL     1       5.752  27.817  56.757  1.00  0.00     0.030 C 
HETATM    5  C   UNL     1       6.953  27.889  57.488  1.00  0.00     0.031 C 
HETATM    6  C   UNL     1       7.464  29.105  57.969  1.00  0.00     0.032 C 
ENDROOT
BRANCH   1   7
HETATM    7  N   UNL     1       7.197  31.471  58.357  1.00  0.00    -0.333 N 
HETATM    8  H   UNL     1       6.708  32.325  58.107  1.00  0.00     0.168 HD
BRANCH   7   9
HETATM    9  C   UNL     1       8.170  31.602  59.303  1.00  0.00     0.179 C 
HETATM   10  S   UNL     1       9.777  31.456  58.883  1.00  0.00    -0.040 SA
BRANCH   9  11
HETATM   11  N   UNL     1       7.835  31.825  60.613  1.00  0.00    -0.299 N 
HETATM   12  C   UNL     1       6.635  32.358  61.061  1.00  0.00     0.257 C 
HETATM   13  O   UNL     1       5.635  32.599  60.394  1.00  0.00    -0.267 OA
HETATM   14  H   UNL     1       8.328  31.237  61.275  1.00  0.00     0.171 HD
BRANCH  12  15
HETATM   15  C   UNL     1       6.554  32.609  62.511  1.00  0.00     0.032 A 
HETATM   16  C   UNL     1       7.710  32.905  63.236  1.00  0.00     0.020 A 
HETATM   17  C   UNL     1       7.591  33.347  64.555  1.00  0.00     0.038 A 
HETATM   18  C   UNL     1       6.332  33.489  65.154  1.00  0.00     0.069 A 
HETATM   19  C   UNL     1       5.190  33.128  64.439  1.00  0.00     0.038 A 
HETATM   20  C   UNL     1       5.297  32.708  63.110  1.00  0.00     0.020 A 
BRANCH  18  21
HETATM   21  O   UNL     1       6.365  34.022  66.411  1.00  0.00    -0.347 OA
BRANCH  21  22
HETATM   22  C   UNL     1       5.134  34.359  67.065  1.00  0.00     0.120 C 
HETATM   23  C   UNL     1       4.726  35.798  66.750  1.00  0.00     0.040 C 
HETATM   24  C   UNL     1       5.388  34.223  68.566  1.00  0.00     0.040 C 
ENDBRANCH  21  22
ENDBRANCH  18  21
ENDBRANCH  12  15
ENDBRANCH   9  11
ENDBRANCH   7   9
ENDBRANCH   1   7
BRANCH   4  25
HETATM   25  N   UNL     1       5.191  26.571  56.427  1.00  0.00    -0.378 N 
HETATM   26  C   UNL     1       5.570  25.372  57.204  1.00  0.00     0.150 C 
HETATM   27  C   UNL     1       6.933  24.797  56.749  1.00  0.00     0.255 C 
HETATM   28  N   UNL     1       6.980  24.576  55.234  1.00  0.00    -0.064 N 
HETATM   29  H   UNL     1       6.325  23.813  55.027  1.00  0.00     0.280 HD
HETATM   30  C   UNL     1       6.509  25.813  54.461  1.00  0.00     0.255 C 
HETATM   31  C   UNL     1       5.130  26.285  54.972  1.00  0.00     0.150 C 
BRANCH  28  32
HETATM   32  C   UNL     1       8.348  24.137  54.758  1.00  0.00     0.273 C 
BRANCH  32  33
HETATM   33  C   UNL     1       8.453  22.651  54.554  1.00  0.00    -0.033 A 
HETATM   34  C   UNL     1       8.826  21.811  55.615  1.00  0.00     0.009 A 
HETATM   35  C   UNL     1       8.957  20.435  55.413  1.00  0.00     0.001 A 
HETATM   36  C   UNL     1       8.722  19.888  54.154  1.00  0.00     0.000 A 
HETATM   37  C   UNL     1       8.348  20.711  53.094  1.00  0.00     0.001 A 
HETATM   38  C   UNL     1       8.209  22.086  53.292  1.00  0.00     0.009 A 
ENDBRANCH  32  33
ENDBRANCH  28  32
ENDBRANCH   4  25
TORSDOF 9
ENDMDL
MODEL 3
REMARK VINA RESULT:     -10.1      1.430      2.291
REMARK  9 active torsions:
REMARK  status: ('A' for Active; 'I' for Inactive)
REMARK    1  A    between atoms: C_2  and  O_3 
REMARK    2  A    between atoms: O_3  and  C_4 
REMARK    3  A    between atoms: C_7  and  C_8 
REMARK       I    between atoms: C_8  and  N_9 
REMARK    4  A    between atoms: N_9  and  C_10 
REMARK    5  A    between atoms: C_10  and  N_11 
REMARK    6  A    between atoms: N_11  and  C_12 
REMARK    7  A    between atoms: C_15  and  N_16 
REMARK    8  A    between atoms: N_19  and  C_21 
REMARK    9  A    between atoms: C_21  and  C_22 
ROOT
HETATM    1  C   UNL     1       7.321  28.936  57.818  1.00  0.00     0.034 C 
HETATM    2  C   UNL     1       7.854  28.094  56.847  1.00  0.00     0.032 C 
HETATM    3  C   UNL     1       7.248  27.980  55.591  1.00  0.00     0.031 C 
HETATM    4  C   UNL     1       6.123  28.741  55.250  1.00  0.00     0.030 C 
HETATM    5  C   UNL     1       5.524  29.466  56.297  1.00  0.00     0.031 C 
HETATM    6  C   UNL     1       6.104  29.557  57.572  1.00  0.00     0.032 C 
ENDROOT
BRANCH   1   7
HETATM    7  N   UNL     1       7.971  29.156  59.047  1.00  0.00    -0.333 N 
HETATM    8  H   UNL     1       8.183  28.339  59.611  1.00  0.00     0.168 HD
BRANCH   7   9
HETATM    9  C   UNL     1       8.407  30.348  59.547  1.00  0.00     0.179 C 
HETATM   10  S   UNL     1       9.560  31.230  58.728  1.00  0.00    -0.040 SA
BRANCH   9  11
HETATM   11  N   UNL     1       7.924  30.815  60.740  1.00  0.00    -0.299 N 
HETATM   12  C   UNL     1       7.093  31.915  60.901  1.00  0.00     0.257 C 
HETATM   13  O   UNL     1       6.553  32.572  60.019  1.00  0.00    -0.267 OA
HETATM   14  H   UNL     1       7.870  30.116  61.471  1.00  0.00     0.171 HD
BRANCH  12  15
HETATM   15  C   UNL     1       6.800  32.290  62.295  1.00  0.00     0.032 A 
HETATM   16  C   UNL     1       7.836  32.664  63.153  1.00  0.00     0.020 A 
HETATM   17  C   UNL     1       7.523  33.218  64.397  1.00  0.00     0.038 A 
HETATM   18  C   UNL     1       6.190  33.393  64.789  1.00  0.00     0.069 A 
HETATM   19  C   UNL     1       5.166  32.956  63.950  1.00  0.00     0.038 A 
HETATM   20  C   UNL     1       5.468  32.423  62.693  1.00  0.00     0.020 A 
BRANCH  18  21
HETATM   21  O   UNL     1       6.037  34.034  65.986  1.00  0.00    -0.347 OA
BRANCH  21  22
HETATM   22  C   UNL     1       4.725  34.177  66.546  1.00  0.00     0.120 C 
HETATM   23  C   UNL     1       4.149  35.559  66.237  1.00  0.00     0.040 C 
HETATM   24  C   UNL     1       4.877  34.019  68.058  1.00  0.00     0.040 C 
ENDBRANCH  21  22
ENDBRANCH  18  21
ENDBRANCH  12  15
ENDBRANCH   9  11
ENDBRANCH   7   9
ENDBRANCH   1   7
BRANCH   4  25
HETATM   25  N   UNL     1       5.598  28.800  53.948  1.00  0.00    -0.378 N 
HETATM   26  C   UNL     1       4.226  28.310  53.692  1.00  0.00     0.150 C 
HETATM   27  C   UNL     1       4.178  26.769  53.565  1.00  0.00     0.255 C 
HETATM   28  N   UNL     1       5.204  26.250  52.552  1.00  0.00    -0.064 N 
HETATM   29  H   UNL     1       4.894  26.569  51.627  1.00  0.00     0.280 HD
HETATM   30  C   UNL     1       6.599  26.836  52.800  1.00  0.00     0.255 C 
HETATM   31  C   UNL     1       6.539  28.377  52.881  1.00  0.00     0.150 C 
BRANCH  28  32
HETATM   32  C   UNL     1       5.260  24.739  52.512  1.00  0.00     0.273 C 
BRANCH  32  33
HETATM   33  C   UNL     1       6.359  24.166  53.363  1.00  0.00    -0.033 A 
HETATM   34  C   UNL     1       6.394  24.413  54.744  1.00  0.00     0.009 A 
HETATM   35  C   UNL     1       7.435  23.908  55.526  1.00  0.00     0.001 A 
HETATM   36  C   UNL     1       8.450  23.157  54.937  1.00  0.00     0.000 A 
HETATM   37  C   UNL     1       8.425  22.902  53.569  1.00  0.00     0.001 A 
HETATM   38  C   UNL     1       7.383  23.399  52.784  1.00  0.00     0.009 A 
ENDBRANCH  32  33
ENDBRANCH  28  32
ENDBRANCH   4  25
TORSDOF 9
ENDMDL
MODEL 4
REMARK VINA RESULT:      -9.6      2.590      3.171
REMARK  9 active torsions:
REMARK  status: ('A' for Active; 'I' for Inactive)
REMARK    1  A    between atoms: C_2  and  O_3 
REMARK    2  A    between atoms: O_3  and  C_4 
REMARK    3  A    between atoms: C_7  and  C_8 
REMARK       I    between atoms: C_8  and  N_9 
REMARK    4  A    between atoms: N_9  and  C_10 
REMARK    5  A    between atoms: C_10  and  N_11 
REMARK    6  A    between atoms: N_11  and  C_12 
REMARK    7  A    between atoms: C_15  and  N_16 
REMARK    8  A    between atoms: N_19  and  C_21 
REMARK    9  A    between atoms: C_21  and  C_22 
ROOT
HETATM    1  C   UNL     1       5.516  30.662  56.513  1.00  0.00     0.034 C 
HETATM    2  C   UNL     1       4.533  29.717  56.234  1.00  0.00     0.032 C 
HETATM    3  C   UNL     1       4.739  28.365  56.525  1.00  0.00     0.031 C 
HETATM    4  C   UNL     1       5.911  27.922  57.150  1.00  0.00     0.030 C 
HETATM    5  C   UNL     1       6.940  28.873  57.283  1.00  0.00     0.031 C 
HETATM    6  C   UNL     1       6.756  30.226  56.959  1.00  0.00     0.032 C 
ENDROOT
BRANCH   1   7
HETATM    7  N   UNL     1       5.293  32.040  56.336  1.00  0.00    -0.333 N 
HETATM    8  H   UNL     1       5.736  32.481  55.536  1.00  0.00     0.168 HD
BRANCH   7   9
HETATM    9  C   UNL     1       4.492  32.849  57.087  1.00  0.00     0.179 C 
HETATM   10  S   UNL     1       3.297  33.757  56.363  1.00  0.00    -0.040 SA
BRANCH   9  11
HETATM   11  N   UNL     1       4.683  32.945  58.441  1.00  0.00    -0.299 N 
HETATM   12  C   UNL     1       3.943  32.284  59.410  1.00  0.00     0.257 C 
HETATM   13  O   UNL     1       3.091  31.420  59.233  1.00  0.00    -0.267 OA
HETATM   14  H   UNL     1       5.623  33.208  58.711  1.00  0.00     0.171 HD
BRANCH  12  15
HETATM   15  C   UNL     1       4.264  32.638  60.804  1.00  0.00     0.032 A 
HETATM   16  C   UNL     1       3.290  33.212  61.623  1.00  0.00     0.020 A 
HETATM   17  C   UNL     1       3.542  33.343  62.990  1.00  0.00     0.038 A 
HETATM   18  C   UNL     1       4.756  32.912  63.541  1.00  0.00     0.069 A 
HETATM   19  C   UNL     1       5.745  32.400  62.701  1.00  0.00     0.038 A 
HETATM   20  C   UNL     1       5.493  32.242  61.335  1.00  0.00     0.020 A 
BRANCH  18  21
HETATM   21  O   UNL     1       4.823  33.013  64.901  1.00  0.00    -0.347 OA
BRANCH  21  22
HETATM   22  C   UNL     1       5.563  34.090  65.493  1.00  0.00     0.120 C 
HETATM   23  C   UNL     1       7.048  33.740  65.589  1.00  0.00     0.040 C 
HETATM   24  C   UNL     1       4.998  34.286  66.899  1.00  0.00     0.040 C 
ENDBRANCH  21  22
ENDBRANCH  18  21
ENDBRANCH  12  15
ENDBRANCH   9  11
ENDBRANCH   7   9
ENDBRANCH   1   7
BRANCH   4  25
HETATM   25  N   UNL     1       6.081  26.612  57.630  1.00  0.00    -0.378 N 
HETATM   26  C   UNL     1       7.443  26.049  57.742  1.00  0.00     0.150 C 
HETATM   27  C   UNL     1       7.972  25.542  56.379  1.00  0.00     0.255 C 
HETATM   28  N   UNL     1       6.979  24.592  55.702  1.00  0.00    -0.064 N 
HETATM   29  H   UNL     1       6.950  23.739  56.271  1.00  0.00     0.280 HD
HETATM   30  C   UNL     1       5.561  25.176  55.669  1.00  0.00     0.255 C 
HETATM   31  C   UNL     1       5.122  25.622  57.081  1.00  0.00     0.150 C 
BRANCH  28  32
HETATM   32  C   UNL     1       7.422  24.191  54.312  1.00  0.00     0.273 C 
BRANCH  32  33
HETATM   33  C   UNL     1       7.816  22.743  54.213  1.00  0.00    -0.033 A 
HETATM   34  C   UNL     1       8.023  22.144  52.960  1.00  0.00     0.009 A 
HETATM   35  C   UNL     1       8.355  20.791  52.871  1.00  0.00     0.001 A 
HETATM   36  C   UNL     1       8.478  20.023  54.027  1.00  0.00     0.000 A 
HETATM   37  C   UNL     1       8.278  20.607  55.276  1.00  0.00     0.001 A 
HETATM   38  C   UNL     1       7.953  21.961  55.371  1.00  0.00     0.009 A 
ENDBRANCH  32  33
ENDBRANCH  28  32
ENDBRANCH   4  25
TORSDOF 9
ENDMDL
MODEL 5
REMARK VINA RESULT:      -9.5      2.768      3.879
REMARK  9 active torsions:
REMARK  status: ('A' for Active; 'I' for Inactive)
REMARK    1  A    between atoms: C_2  and  O_3 
REMARK    2  A    between atoms: O_3  and  C_4 
REMARK    3  A    between atoms: C_7  and  C_8 
REMARK       I    between atoms: C_8  and  N_9 
REMARK    4  A    between atoms: N_9  and  C_10 
REMARK    5  A    between atoms: C_10  and  N_11 
REMARK    6  A    between atoms: N_11  and  C_12 
REMARK    7  A    between atoms: C_15  and  N_16 
REMARK    8  A    between atoms: N_19  and  C_21 
REMARK    9  A    between atoms: C_21  and  C_22 
ROOT
HETATM    1  C   UNL     1       4.590  31.602  59.372  1.00  0.00     0.034 C 
HETATM    2  C   UNL     1       5.973  31.613  59.220  1.00  0.00     0.032 C 
HETATM    3  C   UNL     1       6.575  31.006  58.113  1.00  0.00     0.031 C 
HETATM    4  C   UNL     1       5.811  30.415  57.099  1.00  0.00     0.030 C 
HETATM    5  C   UNL     1       4.432  30.289  57.353  1.00  0.00     0.031 C 
HETATM    6  C   UNL     1       3.824  30.863  58.480  1.00  0.00     0.032 C 
ENDROOT
BRANCH   1   7
HETATM    7  N   UNL     1       3.952  32.300  60.414  1.00  0.00    -0.333 N 
HETATM    8  H   UNL     1       3.323  31.770  61.009  1.00  0.00     0.168 HD
BRANCH   7   9
HETATM    9  C   UNL     1       4.130  33.608  60.759  1.00  0.00     0.179 C 
HETATM   10  S   UNL     1       3.882  34.815  59.636  1.00  0.00    -0.040 SA
BRANCH   9  11
HETATM   11  N   UNL     1       4.543  33.939  62.023  1.00  0.00    -0.299 N 
HETATM   12  C   UNL     1       4.710  33.053  63.077  1.00  0.00     0.257 C 
HETATM   13  O   UNL     1       4.644  31.830  63.036  1.00  0.00    -0.267 OA
HETATM   14  H   UNL     1       5.096  34.787  62.071  1.00  0.00     0.171 HD
BRANCH  12  15
HETATM   15  C   UNL     1       5.054  33.665  64.372  1.00  0.00     0.032 A 
HETATM   16  C   UNL     1       4.055  34.229  65.167  1.00  0.00     0.020 A 
HETATM   17  C   UNL     1       4.361  34.611  66.475  1.00  0.00     0.038 A 
HETATM   18  C   UNL     1       5.652  34.439  66.990  1.00  0.00     0.069 A 
HETATM   19  C   UNL     1       6.656  33.934  66.164  1.00  0.00     0.038 A 
HETATM   20  C   UNL     1       6.355  33.526  64.861  1.00  0.00     0.020 A 
BRANCH  18  21
HETATM   21  O   UNL     1       5.779  34.765  68.310  1.00  0.00    -0.347 OA
BRANCH  21  22
HETATM   22  C   UNL     1       7.008  34.479  68.992  1.00  0.00     0.120 C 
HETATM   23  C   UNL     1       6.787  33.449  70.100  1.00  0.00     0.040 C 
HETATM   24  C   UNL     1       7.479  35.794  69.611  1.00  0.00     0.040 C 
ENDBRANCH  21  22
ENDBRANCH  18  21
ENDBRANCH  12  15
ENDBRANCH   9  11
ENDBRANCH   7   9
ENDBRANCH   1   7
BRANCH   4  25
HETATM   25  N   UNL     1       6.358  29.964  55.885  1.00  0.00    -0.378 N 
HETATM   26  C   UNL     1       5.516  29.186  54.951  1.00  0.00     0.150 C 
HETATM   27  C   UNL     1       5.408  27.700  55.372  1.00  0.00     0.255 C 
HETATM   28  N   UNL     1       6.787  27.075  55.608  1.00  0.00    -0.064 N 
HETATM   29  H   UNL     1       7.249  27.024  54.693  1.00  0.00     0.280 HD
HETATM   30  C   UNL     1       7.660  27.944  56.520  1.00  0.00     0.255 C 
HETATM   31  C   UNL     1       7.724  29.395  55.995  1.00  0.00     0.150 C 
BRANCH  28  32
HETATM   32  C   UNL     1       6.694  25.663  56.145  1.00  0.00     0.273 C 
BRANCH  32  33
HETATM   33  C   UNL     1       7.148  24.625  55.157  1.00  0.00    -0.033 A 
HETATM   34  C   UNL     1       7.438  24.982  53.830  1.00  0.00     0.009 A 
HETATM   35  C   UNL     1       7.826  24.009  52.906  1.00  0.00     0.001 A 
HETATM   36  C   UNL     1       7.924  22.675  53.295  1.00  0.00     0.000 A 
HETATM   37  C   UNL     1       7.644  22.309  54.609  1.00  0.00     0.001 A 
HETATM   38  C   UNL     1       7.261  23.279  55.539  1.00  0.00     0.009 A 
ENDBRANCH  32  33
ENDBRANCH  28  32
ENDBRANCH   4  25
TORSDOF 9
ENDMDL
MODEL 6
REMARK VINA RESULT:      -9.5      2.676      3.456
REMARK  9 active torsions:
REMARK  status: ('A' for Active; 'I' for Inactive)
REMARK    1  A    between atoms: C_2  and  O_3 
REMARK    2  A    between atoms: O_3  and  C_4 
REMARK    3  A    between atoms: C_7  and  C_8 
REMARK       I    between atoms: C_8  and  N_9 
REMARK    4  A    between atoms: N_9  and  C_10 
REMARK    5  A    between atoms: C_10  and  N_11 
REMARK    6  A    between atoms: N_11  and  C_12 
REMARK    7  A    between atoms: C_15  and  N_16 
REMARK    8  A    between atoms: N_19  and  C_21 
REMARK    9  A    between atoms: C_21  and  C_22 
ROOT
HETATM    1  C   UNL     1       4.375  30.753  56.696  1.00  0.00     0.034 C 
HETATM    2  C   UNL     1       5.725  30.433  56.802  1.00  0.00     0.032 C 
HETATM    3  C   UNL     1       6.312  29.517  55.922  1.00  0.00     0.031 C 
HETATM    4  C   UNL     1       5.582  28.933  54.880  1.00  0.00     0.030 C 
HETATM    5  C   UNL     1       4.193  29.161  54.892  1.00  0.00     0.031 C 
HETATM    6  C   UNL     1       3.589  30.050  55.795  1.00  0.00     0.032 C 
ENDROOT
BRANCH   1   7
HETATM    7  N   UNL     1       3.785  31.752  57.493  1.00  0.00    -0.333 N 
HETATM    8  H   UNL     1       2.927  31.510  57.978  1.00  0.00     0.168 HD
BRANCH   7   9
HETATM    9  C   UNL     1       4.271  33.002  57.741  1.00  0.00     0.179 C 
HETATM   10  S   UNL     1       4.695  34.004  56.477  1.00  0.00    -0.040 SA
BRANCH   9  11
HETATM   11  N   UNL     1       4.444  33.434  59.029  1.00  0.00    -0.299 N 
HETATM   12  C   UNL     1       3.497  33.360  60.040  1.00  0.00     0.257 C 
HETATM   13  O   UNL     1       2.410  32.796  60.000  1.00  0.00    -0.267 OA
HETATM   14  H   UNL     1       5.410  33.458  59.334  1.00  0.00     0.171 HD
BRANCH  12  15
HETATM   15  C   UNL     1       3.879  33.996  61.314  1.00  0.00     0.032 A 
HETATM   16  C   UNL     1       3.237  33.630  62.499  1.00  0.00     0.020 A 
HETATM   17  C   UNL     1       3.750  34.080  63.717  1.00  0.00     0.038 A 
HETATM   18  C   UNL     1       4.891  34.893  63.759  1.00  0.00     0.069 A 
HETATM   19  C   UNL     1       5.484  35.303  62.566  1.00  0.00     0.038 A 
HETATM   20  C   UNL     1       4.992  34.838  61.342  1.00  0.00     0.020 A 
BRANCH  18  21
HETATM   21  O   UNL     1       5.334  35.174  65.020  1.00  0.00    -0.347 OA
BRANCH  21  22
HETATM   22  C   UNL     1       5.681  34.097  65.901  1.00  0.00     0.120 C 
HETATM   23  C   UNL     1       5.698  34.568  67.356  1.00  0.00     0.040 C 
HETATM   24  C   UNL     1       7.084  33.642  65.501  1.00  0.00     0.040 C 
ENDBRANCH  21  22
ENDBRANCH  18  21
ENDBRANCH  12  15
ENDBRANCH   9  11
ENDBRANCH   7   9
ENDBRANCH   1   7
BRANCH   4  25
HETATM   25  N   UNL     1       6.170  28.160  53.865  1.00  0.00    -0.378 N 
HETATM   26  C   UNL     1       5.402  27.055  53.252  1.00  0.00     0.150 C 
HETATM   27  C   UNL     1       5.419  25.782  54.133  1.00  0.00     0.255 C 
HETATM   28  N   UNL     1       6.845  25.383  54.526  1.00  0.00    -0.064 N 
HETATM   29  H   UNL     1       7.314  25.076  53.666  1.00  0.00     0.280 HD
HETATM   30  C   UNL     1       7.637  26.569  55.087  1.00  0.00     0.255 C 
HETATM   31  C   UNL     1       7.580  27.771  54.120  1.00  0.00     0.150 C 
BRANCH  28  32
HETATM   32  C   UNL     1       6.871  24.218  55.492  1.00  0.00     0.273 C 
BRANCH  32  33
HETATM   33  C   UNL     1       7.340  22.937  54.860  1.00  0.00    -0.033 A 
HETATM   34  C   UNL     1       7.597  21.805  55.649  1.00  0.00     0.009 A 
HETATM   35  C   UNL     1       8.065  20.627  55.063  1.00  0.00     0.001 A 
HETATM   36  C   UNL     1       8.284  20.570  53.688  1.00  0.00     0.000 A 
HETATM   37  C   UNL     1       8.029  21.685  52.893  1.00  0.00     0.001 A 
HETATM   38  C   UNL     1       7.555  22.863  53.474  1.00  0.00     0.009 A 
ENDBRANCH  32  33
ENDBRANCH  28  32
ENDBRANCH   4  25
TORSDOF 9
ENDMDL
MODEL 7
REMARK VINA RESULT:      -9.5      3.321     10.946
REMARK  9 active torsions:
REMARK  status: ('A' for Active; 'I' for Inactive)
REMARK    1  A    between atoms: C_2  and  O_3 
REMARK    2  A    between atoms: O_3  and  C_4 
REMARK    3  A    between atoms: C_7  and  C_8 
REMARK       I    between atoms: C_8  and  N_9 
REMARK    4  A    between atoms: N_9  and  C_10 
REMARK    5  A    between atoms: C_10  and  N_11 
REMARK    6  A    between atoms: N_11  and  C_12 
REMARK    7  A    between atoms: C_15  and  N_16 
REMARK    8  A    between atoms: N_19  and  C_21 
REMARK    9  A    between atoms: C_21  and  C_22 
ROOT
HETATM    1  C   UNL     1       5.064  31.325  56.990  1.00  0.00     0.034 C 
HETATM    2  C   UNL     1       5.255  32.681  57.239  1.00  0.00     0.032 C 
HETATM    3  C   UNL     1       4.643  33.298  58.335  1.00  0.00     0.031 C 
HETATM    4  C   UNL     1       3.864  32.570  59.243  1.00  0.00     0.030 C 
HETATM    5  C   UNL     1       3.570  31.242  58.883  1.00  0.00     0.031 C 
HETATM    6  C   UNL     1       4.150  30.624  57.765  1.00  0.00     0.032 C 
ENDROOT
BRANCH   1   7
HETATM    7  N   UNL     1       5.755  30.655  55.963  1.00  0.00    -0.333 N 
HETATM    8  H   UNL     1       6.710  30.948  55.781  1.00  0.00     0.168 HD
BRANCH   7   9
HETATM    9  C   UNL     1       5.307  29.605  55.218  1.00  0.00     0.179 C 
HETATM   10  S   UNL     1       3.969  29.780  54.238  1.00  0.00    -0.040 SA
BRANCH   9  11
HETATM   11  N   UNL     1       5.933  28.388  55.290  1.00  0.00    -0.299 N 
HETATM   12  C   UNL     1       6.676  27.925  56.365  1.00  0.00     0.257 C 
HETATM   13  O   UNL     1       6.797  28.451  57.466  1.00  0.00    -0.267 OA
HETATM   14  H   UNL     1       5.525  27.674  54.699  1.00  0.00     0.171 HD
BRANCH  12  15
HETATM   15  C   UNL     1       7.348  26.630  56.161  1.00  0.00     0.032 A 
HETATM   16  C   UNL     1       8.128  26.076  57.178  1.00  0.00     0.020 A 
HETATM   17  C   UNL     1       8.580  24.761  57.050  1.00  0.00     0.038 A 
HETATM   18  C   UNL     1       8.264  24.001  55.917  1.00  0.00     0.069 A 
HETATM   19  C   UNL     1       7.538  24.587  54.880  1.00  0.00     0.038 A 
HETATM   20  C   UNL     1       7.061  25.894  55.009  1.00  0.00     0.020 A 
BRANCH  18  21
HETATM   21  O   UNL     1       8.689  22.704  55.975  1.00  0.00    -0.347 OA
BRANCH  21  22
HETATM   22  C   UNL     1       7.979  21.696  55.242  1.00  0.00     0.120 C 
HETATM   23  C   UNL     1       7.799  20.435  56.086  1.00  0.00     0.040 C 
HETATM   24  C   UNL     1       8.830  21.368  54.016  1.00  0.00     0.040 C 
ENDBRANCH  21  22
ENDBRANCH  18  21
ENDBRANCH  12  15
ENDBRANCH   9  11
ENDBRANCH   7   9
ENDBRANCH   1   7
BRANCH   4  25
HETATM   25  N   UNL     1       3.389  33.105  60.453  1.00  0.00    -0.378 N 
HETATM   26  C   UNL     1       3.744  34.491  60.827  1.00  0.00     0.150 C 
HETATM   27  C   UNL     1       5.167  34.580  61.428  1.00  0.00     0.255 C 
HETATM   28  N   UNL     1       5.365  33.577  62.569  1.00  0.00    -0.064 N 
HETATM   29  H   UNL     1       4.766  33.886  63.343  1.00  0.00     0.280 HD
HETATM   30  C   UNL     1       4.918  32.165  62.173  1.00  0.00     0.255 C 
HETATM   31  C   UNL     1       3.478  32.185  61.614  1.00  0.00     0.150 C 
BRANCH  28  32
HETATM   32  C   UNL     1       6.789  33.561  63.081  1.00  0.00     0.273 C 
BRANCH  32  33
HETATM   33  C   UNL     1       7.677  32.610  62.326  1.00  0.00    -0.033 A 
HETATM   34  C   UNL     1       8.118  31.419  62.923  1.00  0.00     0.009 A 
HETATM   35  C   UNL     1       8.970  30.555  62.232  1.00  0.00     0.001 A 
HETATM   36  C   UNL     1       9.392  30.873  60.943  1.00  0.00     0.000 A 
HETATM   37  C   UNL     1       8.958  32.050  60.337  1.00  0.00     0.001 A 
HETATM   38  C   UNL     1       8.102  32.914  61.022  1.00  0.00     0.009 A 
ENDBRANCH  32  33
ENDBRANCH  28  32
ENDBRANCH   4  25
TORSDOF 9
ENDMDL
MODEL 8
REMARK VINA RESULT:      -9.4      3.530     12.233
REMARK  9 active torsions:
REMARK  status: ('A' for Active; 'I' for Inactive)
REMARK    1  A    between atoms: C_2  and  O_3 
REMARK    2  A    between atoms: O_3  and  C_4 
REMARK    3  A    between atoms: C_7  and  C_8 
REMARK       I    between atoms: C_8  and  N_9 
REMARK    4  A    between atoms: N_9  and  C_10 
REMARK    5  A    between atoms: C_10  and  N_11 
REMARK    6  A    between atoms: N_11  and  C_12 
REMARK    7  A    between atoms: C_15  and  N_16 
REMARK    8  A    between atoms: N_19  and  C_21 
REMARK    9  A    between atoms: C_21  and  C_22 
ROOT
HETATM    1  C   UNL     1       8.013  29.689  56.769  1.00  0.00     0.034 C 
HETATM    2  C   UNL     1       7.124  29.981  57.799  1.00  0.00     0.032 C 
HETATM    3  C   UNL     1       7.592  30.403  59.048  1.00  0.00     0.031 C 
HETATM    4  C   UNL     1       8.958  30.594  59.290  1.00  0.00     0.030 C 
HETATM    5  C   UNL     1       9.835  30.150  58.283  1.00  0.00     0.031 C 
HETATM    6  C   UNL     1       9.375  29.690  57.039  1.00  0.00     0.032 C 
ENDROOT
BRANCH   1   7
HETATM    7  N   UNL     1       7.568  29.372  55.472  1.00  0.00    -0.333 N 
HETATM    8  H   UNL     1       8.097  29.755  54.695  1.00  0.00     0.168 HD
BRANCH   7   9
HETATM    9  C   UNL     1       6.533  28.551  55.135  1.00  0.00     0.179 C 
HETATM   10  S   UNL     1       4.982  29.154  55.027  1.00  0.00    -0.040 SA
BRANCH   9  11
HETATM   11  N   UNL     1       6.753  27.217  54.911  1.00  0.00    -0.299 N 
HETATM   12  C   UNL     1       6.764  26.597  53.670  1.00  0.00     0.257 C 
HETATM   13  O   UNL     1       6.707  27.135  52.571  1.00  0.00    -0.267 OA
HETATM   14  H   UNL     1       7.290  26.756  55.636  1.00  0.00     0.171 HD
BRANCH  12  15
HETATM   15  C   UNL     1       6.909  25.131  53.695  1.00  0.00     0.032 A 
HETATM   16  C   UNL     1       7.535  24.470  52.636  1.00  0.00     0.020 A 
HETATM   17  C   UNL     1       7.854  23.117  52.771  1.00  0.00     0.038 A 
HETATM   18  C   UNL     1       7.548  22.422  53.948  1.00  0.00     0.069 A 
HETATM   19  C   UNL     1       6.866  23.077  54.973  1.00  0.00     0.038 A 
HETATM   20  C   UNL     1       6.564  24.437  54.857  1.00  0.00     0.020 A 
BRANCH  18  21
HETATM   21  O   UNL     1       8.006  21.135  53.975  1.00  0.00    -0.347 OA
BRANCH  21  22
HETATM   22  C   UNL     1       8.951  20.744  54.980  1.00  0.00     0.120 C 
HETATM   23  C   UNL     1       8.235  20.256  56.239  1.00  0.00     0.040 C 
HETATM   24  C   UNL     1       9.770  21.990  55.316  1.00  0.00     0.040 C 
ENDBRANCH  21  22
ENDBRANCH  18  21
ENDBRANCH  12  15
ENDBRANCH   9  11
ENDBRANCH   7   9
ENDBRANCH   1   7
BRANCH   4  25
HETATM   25  N   UNL     1       9.457  31.193  60.460  1.00  0.00    -0.378 N 
HETATM   26  C   UNL     1       9.311  30.495  61.755  1.00  0.00     0.150 C 
HETATM   27  C   UNL     1       7.895  30.676  62.352  1.00  0.00     0.255 C 
HETATM   28  N   UNL     1       7.488  32.152  62.411  1.00  0.00    -0.064 N 
HETATM   29  H   UNL     1       8.093  32.598  63.109  1.00  0.00     0.280 HD
HETATM   30  C   UNL     1       7.722  32.864  61.073  1.00  0.00     0.255 C 
HETATM   31  C   UNL     1       9.170  32.644  60.584  1.00  0.00     0.150 C 
BRANCH  28  32
HETATM   32  C   UNL     1       6.058  32.337  62.870  1.00  0.00     0.273 C 
BRANCH  32  33
HETATM   33  C   UNL     1       5.951  33.020  64.206  1.00  0.00    -0.033 A 
HETATM   34  C   UNL     1       4.697  33.382  64.723  1.00  0.00     0.009 A 
HETATM   35  C   UNL     1       4.604  34.047  65.947  1.00  0.00     0.001 A 
HETATM   36  C   UNL     1       5.758  34.360  66.663  1.00  0.00     0.000 A 
HETATM   37  C   UNL     1       7.007  34.002  66.162  1.00  0.00     0.001 A 
HETATM   38  C   UNL     1       7.106  33.331  64.942  1.00  0.00     0.009 A 
ENDBRANCH  32  33
ENDBRANCH  28  32
ENDBRANCH   4  25
TORSDOF 9
ENDMDL
MODEL 9
REMARK VINA RESULT:      -9.3      2.701      4.404
REMARK  9 active torsions:
REMARK  status: ('A' for Active; 'I' for Inactive)
REMARK    1  A    between atoms: C_2  and  O_3 
REMARK    2  A    between atoms: O_3  and  C_4 
REMARK    3  A    between atoms: C_7  and  C_8 
REMARK       I    between atoms: C_8  and  N_9 
REMARK    4  A    between atoms: N_9  and  C_10 
REMARK    5  A    between atoms: C_10  and  N_11 
REMARK    6  A    between atoms: N_11  and  C_12 
REMARK    7  A    between atoms: C_15  and  N_16 
REMARK    8  A    between atoms: N_19  and  C_21 
REMARK    9  A    between atoms: C_21  and  C_22 
ROOT
HETATM    1  C   UNL     1       7.178  27.328  57.582  1.00  0.00     0.034 C 
HETATM    2  C   UNL     1       8.082  26.329  57.231  1.00  0.00     0.032 C 
HETATM    3  C   UNL     1       7.788  25.429  56.202  1.00  0.00     0.031 C 
HETATM    4  C   UNL     1       6.605  25.529  55.459  1.00  0.00     0.030 C 
HETATM    5  C   UNL     1       5.651  26.449  55.933  1.00  0.00     0.031 C 
HETATM    6  C   UNL     1       5.923  27.333  56.988  1.00  0.00     0.032 C 
ENDROOT
BRANCH   1   7
HETATM    7  N   UNL     1       7.494  28.315  58.534  1.00  0.00    -0.333 N 
HETATM    8  H   UNL     1       7.462  28.041  59.511  1.00  0.00     0.168 HD
BRANCH   7   9
HETATM    9  C   UNL     1       7.902  29.593  58.291  1.00  0.00     0.179 C 
HETATM   10  S   UNL     1       8.719  29.962  56.885  1.00  0.00    -0.040 SA
BRANCH   9  11
HETATM   11  N   UNL     1       7.671  30.579  59.214  1.00  0.00    -0.299 N 
HETATM   12  C   UNL     1       8.324  30.717  60.429  1.00  0.00     0.257 C 
HETATM   13  O   UNL     1       9.288  30.076  60.832  1.00  0.00    -0.267 OA
HETATM   14  H   UNL     1       7.284  31.431  58.825  1.00  0.00     0.171 HD
BRANCH  12  15
HETATM   15  C   UNL     1       7.820  31.793  61.301  1.00  0.00     0.032 A 
HETATM   16  C   UNL     1       6.679  32.511  60.940  1.00  0.00     0.020 A 
HETATM   17  C   UNL     1       6.095  33.375  61.870  1.00  0.00     0.038 A 
HETATM   18  C   UNL     1       6.644  33.529  63.149  1.00  0.00     0.069 A 
HETATM   19  C   UNL     1       7.821  32.854  63.475  1.00  0.00     0.038 A 
HETATM   20  C   UNL     1       8.399  31.969  62.560  1.00  0.00     0.020 A 
BRANCH  18  21
HETATM   21  O   UNL     1       5.914  34.328  63.981  1.00  0.00    -0.347 OA
BRANCH  21  22
HETATM   22  C   UNL     1       4.669  33.847  64.507  1.00  0.00     0.120 C 
HETATM   23  C   UNL     1       3.521  34.784  64.131  1.00  0.00     0.040 C 
HETATM   24  C   UNL     1       4.820  33.819  66.027  1.00  0.00     0.040 C 
ENDBRANCH  21  22
ENDBRANCH  18  21
ENDBRANCH  12  15
ENDBRANCH   9  11
ENDBRANCH   7   9
ENDBRANCH   1   7
BRANCH   4  25
HETATM   25  N   UNL     1       6.355  24.772  54.302  1.00  0.00    -0.378 N 
HETATM   26  C   UNL     1       7.343  24.774  53.202  1.00  0.00     0.150 C 
HETATM   27  C   UNL     1       7.217  26.037  52.316  1.00  0.00     0.255 C 
HETATM   28  N   UNL     1       5.778  26.253  51.837  1.00  0.00    -0.064 N 
HETATM   29  H   UNL     1       5.565  25.490  51.185  1.00  0.00     0.280 HD
HETATM   30  C   UNL     1       4.772  26.170  52.991  1.00  0.00     0.255 C 
HETATM   31  C   UNL     1       4.965  24.862  53.790  1.00  0.00     0.150 C 
BRANCH  28  32
HETATM   32  C   UNL     1       5.613  27.552  51.079  1.00  0.00     0.273 C 
BRANCH  32  33
HETATM   33  C   UNL     1       4.944  27.375  49.744  1.00  0.00    -0.033 A 
HETATM   34  C   UNL     1       4.871  28.443  48.835  1.00  0.00     0.009 A 
HETATM   35  C   UNL     1       4.219  28.285  47.611  1.00  0.00     0.001 A 
HETATM   36  C   UNL     1       3.631  27.065  47.284  1.00  0.00     0.000 A 
HETATM   37  C   UNL     1       3.700  25.996  48.175  1.00  0.00     0.001 A 
HETATM   38  C   UNL     1       4.356  26.147  49.398  1.00  0.00     0.009 A 
ENDBRANCH  32  33
ENDBRANCH  28  32
ENDBRANCH   4  25
TORSDOF 9
ENDMDL
MODEL 10
REMARK VINA RESULT:      -9.3      3.323      5.071
REMARK  9 active torsions:
REMARK  status: ('A' for Active; 'I' for Inactive)
REMARK    1  A    between atoms: C_2  and  O_3 
REMARK    2  A    between atoms: O_3  and  C_4 
REMARK    3  A    between atoms: C_7  and  C_8 
REMARK       I    between atoms: C_8  and  N_9 
REMARK    4  A    between atoms: N_9  and  C_10 
REMARK    5  A    between atoms: C_10  and  N_11 
REMARK    6  A    between atoms: N_11  and  C_12 
REMARK    7  A    between atoms: C_15  and  N_16 
REMARK    8  A    between atoms: N_19  and  C_21 
REMARK    9  A    between atoms: C_21  and  C_22 
ROOT
HETATM    1  C   UNL     1       4.025  29.988  53.272  1.00  0.00     0.034 C 
HETATM    2  C   UNL     1       4.636  29.804  52.035  1.00  0.00     0.032 C 
HETATM    3  C   UNL     1       5.050  28.532  51.627  1.00  0.00     0.031 C 
HETATM    4  C   UNL     1       4.819  27.399  52.417  1.00  0.00     0.030 C 
HETATM    5  C   UNL     1       4.337  27.637  53.718  1.00  0.00     0.031 C 
HETATM    6  C   UNL     1       3.954  28.916  54.150  1.00  0.00     0.032 C 
ENDROOT
BRANCH   1   7
HETATM    7  N   UNL     1       3.498  31.234  53.660  1.00  0.00    -0.333 N 
HETATM    8  H   UNL     1       2.510  31.393  53.489  1.00  0.00     0.168 HD
BRANCH   7   9
HETATM    9  C   UNL     1       4.155  32.242  54.302  1.00  0.00     0.179 C 
HETATM   10  S   UNL     1       4.213  33.768  53.633  1.00  0.00    -0.040 SA
BRANCH   9  11
HETATM   11  N   UNL     1       4.800  32.002  55.487  1.00  0.00    -0.299 N 
HETATM   12  C   UNL     1       4.237  32.116  56.750  1.00  0.00     0.257 C 
HETATM   13  O   UNL     1       3.060  32.320  57.022  1.00  0.00    -0.267 OA
HETATM   14  H   UNL     1       5.586  31.368  55.413  1.00  0.00     0.171 HD
BRANCH  12  15
HETATM   15  C   UNL     1       5.164  31.916  57.878  1.00  0.00     0.032 A 
HETATM   16  C   UNL     1       6.299  31.119  57.719  1.00  0.00     0.020 A 
HETATM   17  C   UNL     1       7.271  31.112  58.721  1.00  0.00     0.038 A 
HETATM   18  C   UNL     1       7.115  31.887  59.878  1.00  0.00     0.069 A 
HETATM   19  C   UNL     1       5.947  32.629  60.052  1.00  0.00     0.038 A 
HETATM   20  C   UNL     1       4.979  32.661  59.044  1.00  0.00     0.020 A 
BRANCH  18  21
HETATM   21  O   UNL     1       8.188  31.857  60.723  1.00  0.00    -0.347 OA
BRANCH  21  22
HETATM   22  C   UNL     1       8.046  31.261  62.020  1.00  0.00     0.120 C 
HETATM   23  C   UNL     1       8.120  32.322  63.117  1.00  0.00     0.040 C 
HETATM   24  C   UNL     1       9.212  30.286  62.180  1.00  0.00     0.040 C 
ENDBRANCH  21  22
ENDBRANCH  18  21
ENDBRANCH  12  15
ENDBRANCH   9  11
ENDBRANCH   7   9
ENDBRANCH   1   7
BRANCH   4  25
HETATM   25  N   UNL     1       5.045  26.086  51.968  1.00  0.00    -0.378 N 
HETATM   26  C   UNL     1       4.570  24.946  52.781  1.00  0.00     0.150 C 
HETATM   27  C   UNL     1       5.531  24.634  53.953  1.00  0.00     0.255 C 
HETATM   28  N   UNL     1       6.978  24.475  53.475  1.00  0.00    -0.064 N 
HETATM   29  H   UNL     1       7.011  23.617  52.913  1.00  0.00     0.280 HD
HETATM   30  C   UNL     1       7.413  25.636  52.574  1.00  0.00     0.255 C 
HETATM   31  C   UNL     1       6.404  25.842  51.423  1.00  0.00     0.150 C 
BRANCH  28  32
HETATM   32  C   UNL     1       7.948  24.299  54.624  1.00  0.00     0.273 C 
BRANCH  32  33
HETATM   33  C   UNL     1       8.045  22.876  55.101  1.00  0.00    -0.033 A 
HETATM   34  C   UNL     1       8.346  22.593  56.443  1.00  0.00     0.009 A 
HETATM   35  C   UNL     1       8.469  21.272  56.875  1.00  0.00     0.001 A 
HETATM   36  C   UNL     1       8.297  20.222  55.975  1.00  0.00     0.000 A 
HETATM   37  C   UNL     1       7.994  20.490  54.642  1.00  0.00     0.001 A 
HETATM   38  C   UNL     1       7.864  21.810  54.206  1.00  0.00     0.009 A 
ENDBRANCH  32  33
ENDBRANCH  28  32
ENDBRANCH   4  25
TORSDOF 9
ENDMDL
