MODEL 1
REMARK VINA RESULT:      -8.3      0.000      0.000
REMARK  2 active torsions:
REMARK  status: ('A' for Active; 'I' for Inactive)
REMARK    1  A    between atoms: S_2  and  N_3 
REMARK    2  A    between atoms: C_10  and  N_11 
ROOT
HETATM    1  N   UNL     1       5.382  26.922  52.615  1.00  0.00    -0.311 N 
HETATM    2  C   UNL     1       6.851  27.054  52.477  1.00  0.00     0.138 C 
HETATM    3  C   UNL     1       7.566  26.697  53.779  1.00  0.00     0.059 C 
HETATM    4  C   UNL     1       7.128  25.334  54.363  1.00  0.00     0.073 C 
HETATM    5  O   UNL     1       7.688  24.330  53.496  1.00  0.00    -0.339 OA
HETATM    6  C   UNL     1       7.774  23.055  53.983  1.00  0.00     0.078 A 
HETATM    7  C   UNL     1       7.663  22.728  55.340  1.00  0.00     0.005 A 
HETATM    8  C   UNL     1       7.457  23.816  56.354  1.00  0.00     0.222 C 
HETATM    9  C   UNL     1       7.745  25.193  55.764  1.00  0.00     0.076 C 
HETATM   10  C   UNL     1       7.991  22.064  53.027  1.00  0.00     0.037 A 
HETATM   11  C   UNL     1       8.058  20.727  53.407  1.00  0.00     0.003 A 
HETATM   12  C   UNL     1       7.900  20.379  54.746  1.00  0.00     0.001 A 
HETATM   13  C   UNL     1       7.698  21.371  55.709  1.00  0.00     0.012 A 
HETATM   14  C   UNL     1       5.587  25.222  54.378  1.00  0.00     0.059 C 
HETATM   15  C   UNL     1       4.988  25.555  53.015  1.00  0.00     0.138 C 
ENDROOT
BRANCH   8  16
HETATM   16  N   UNL     1       8.335  23.658  57.551  1.00  0.00    -0.071 N 
HETATM   17  H   UNL     1       7.841  23.908  58.414  1.00  0.00     0.275 HD
HETATM   18  H   UNL     1       8.642  22.681  57.645  1.00  0.00     0.275 HD
HETATM   19  H   UNL     1       9.171  24.252  57.493  1.00  0.00     0.275 HD
ENDBRANCH   8  16
BRANCH   1  20
HETATM   20  S   UNL     1       4.508  28.202  53.312  1.00  0.00     0.224 S 
HETATM   21  C   UNL     1       4.840  29.543  52.186  1.00  0.00     0.186 C 
HETATM   22  O   UNL     1       5.112  28.489  54.595  1.00  0.00    -0.206 OA
HETATM   23  O   UNL     1       3.102  27.876  53.217  1.00  0.00    -0.206 OA
ENDBRANCH   1  20
TORSDOF 2
ENDMDL
MODEL 2
REMARK VINA RESULT:      -8.0      1.279      1.305
REMARK  2 active torsions:
REMARK  status: ('A' for Active; 'I' for Inactive)
REMARK    1  A    between atoms: S_2  and  N_3 
REMARK    2  A    between atoms: C_10  and  N_11 
ROOT
HETATM    1  N   UNL     1       5.481  27.589  53.965  1.00  0.00    -0.311 N 
HETATM    2  C   UNL     1       6.949  27.730  53.832  1.00  0.00     0.138 C 
HETATM    3  C   UNL     1       7.681  27.012  54.965  1.00  0.00     0.059 C 
HETATM    4  C   UNL     1       7.224  25.548  55.158  1.00  0.00     0.073 C 
HETATM    5  O   UNL     1       7.743  24.816  54.032  1.00  0.00    -0.339 OA
HETATM    6  C   UNL     1       7.809  23.455  54.143  1.00  0.00     0.078 A 
HETATM    7  C   UNL     1       7.718  22.764  55.358  1.00  0.00     0.005 A 
HETATM    8  C   UNL     1       7.558  23.530  56.639  1.00  0.00     0.222 C 
HETATM    9  C   UNL     1       7.866  25.012  56.448  1.00  0.00     0.076 C 
HETATM   10  C   UNL     1       7.985  22.766  52.943  1.00  0.00     0.037 A 
HETATM   11  C   UNL     1       8.028  21.375  52.935  1.00  0.00     0.003 A 
HETATM   12  C   UNL     1       7.890  20.671  54.127  1.00  0.00     0.001 A 
HETATM   13  C   UNL     1       7.729  21.358  55.333  1.00  0.00     0.012 A 
HETATM   14  C   UNL     1       5.682  25.462  55.180  1.00  0.00     0.059 C 
HETATM   15  C   UNL     1       5.063  26.171  53.980  1.00  0.00     0.138 C 
ENDROOT
BRANCH   8  16
HETATM   16  N   UNL     1       8.456  23.030  57.722  1.00  0.00    -0.071 N 
HETATM   17  H   UNL     1       7.933  22.840  58.584  1.00  0.00     0.275 HD
HETATM   18  H   UNL     1       8.909  22.152  57.436  1.00  0.00     0.275 HD
HETATM   19  H   UNL     1       9.191  23.710  57.952  1.00  0.00     0.275 HD
ENDBRANCH   8  16
BRANCH   1  20
HETATM   20  S   UNL     1       4.650  28.639  55.013  1.00  0.00     0.224 S 
HETATM   21  C   UNL     1       5.902  29.843  55.410  1.00  0.00     0.186 C 
HETATM   22  O   UNL     1       4.312  27.884  56.201  1.00  0.00    -0.206 OA
HETATM   23  O   UNL     1       3.620  29.301  54.244  1.00  0.00    -0.206 OA
ENDBRANCH   1  20
TORSDOF 2
ENDMDL
MODEL 3
REMARK VINA RESULT:      -7.5      3.285      6.231
REMARK  2 active torsions:
REMARK  status: ('A' for Active; 'I' for Inactive)
REMARK    1  A    between atoms: S_2  and  N_3 
REMARK    2  A    between atoms: C_10  and  N_11 
ROOT
HETATM    1  N   UNL     1       8.886  22.684  54.538  1.00  0.00    -0.311 N 
HETATM    2  C   UNL     1       8.162  23.334  53.422  1.00  0.00     0.138 C 
HETATM    3  C   UNL     1       6.833  23.924  53.890  1.00  0.00     0.059 C 
HETATM    4  C   UNL     1       6.970  24.828  55.136  1.00  0.00     0.073 C 
HETATM    5  O   UNL     1       7.623  26.030  54.689  1.00  0.00    -0.339 OA
HETATM    6  C   UNL     1       7.529  27.134  55.490  1.00  0.00     0.078 A 
HETATM    7  C   UNL     1       6.597  27.270  56.526  1.00  0.00     0.005 A 
HETATM    8  C   UNL     1       5.612  26.168  56.791  1.00  0.00     0.222 C 
HETATM    9  C   UNL     1       5.557  25.176  55.633  1.00  0.00     0.076 C 
HETATM   10  C   UNL     1       8.437  28.155  55.209  1.00  0.00     0.037 A 
HETATM   11  C   UNL     1       8.455  29.308  55.987  1.00  0.00     0.003 A 
HETATM   12  C   UNL     1       7.568  29.439  57.052  1.00  0.00     0.001 A 
HETATM   13  C   UNL     1       6.647  28.425  57.326  1.00  0.00     0.012 A 
HETATM   14  C   UNL     1       7.826  24.131  56.218  1.00  0.00     0.059 C 
HETATM   15  C   UNL     1       9.147  23.625  55.647  1.00  0.00     0.138 C 
ENDROOT
BRANCH   8  16
HETATM   16  N   UNL     1       4.224  26.678  56.999  1.00  0.00    -0.071 N 
HETATM   17  H   UNL     1       3.994  27.422  56.332  1.00  0.00     0.275 HD
HETATM   18  H   UNL     1       3.540  25.922  56.865  1.00  0.00     0.275 HD
HETATM   19  H   UNL     1       4.096  27.063  57.943  1.00  0.00     0.275 HD
ENDBRANCH   8  16
BRANCH   1  20
HETATM   20  S   UNL     1       8.465  21.095  54.970  1.00  0.00     0.224 S 
HETATM   21  C   UNL     1       8.303  20.303  53.383  1.00  0.00     0.186 C 
HETATM   22  O   UNL     1       7.171  21.152  55.616  1.00  0.00    -0.206 OA
HETATM   23  O   UNL     1       9.600  20.510  55.649  1.00  0.00    -0.206 OA
ENDBRANCH   1  20
TORSDOF 2
ENDMDL
MODEL 4
REMARK VINA RESULT:      -7.3      2.306      3.445
REMARK  2 active torsions:
REMARK  status: ('A' for Active; 'I' for Inactive)
REMARK    1  A    between atoms: S_2  and  N_3 
REMARK    2  A    between atoms: C_10  and  N_11 
ROOT
HETATM    1  N   UNL     1       5.242  28.435  52.600  1.00  0.00    -0.311 N 
HETATM    2  C   UNL     1       4.204  27.555  53.184  1.00  0.00     0.138 C 
HETATM    3  C   UNL     1       4.569  26.080  53.020  1.00  0.00     0.059 C 
HETATM    4  C   UNL     1       5.997  25.746  53.508  1.00  0.00     0.073 C 
HETATM    5  O   UNL     1       5.958  25.826  54.945  1.00  0.00    -0.339 OA
HETATM    6  C   UNL     1       6.968  25.219  55.637  1.00  0.00     0.078 A 
HETATM    7  C   UNL     1       7.837  24.271  55.082  1.00  0.00     0.005 A 
HETATM    8  C   UNL     1       7.668  23.858  53.648  1.00  0.00     0.222 C 
HETATM    9  C   UNL     1       6.319  24.301  53.092  1.00  0.00     0.076 C 
HETATM   10  C   UNL     1       7.089  25.599  56.974  1.00  0.00     0.037 A 
HETATM   11  C   UNL     1       8.107  25.070  57.762  1.00  0.00     0.003 A 
HETATM   12  C   UNL     1       9.009  24.165  57.212  1.00  0.00     0.001 A 
HETATM   13  C   UNL     1       8.882  23.770  55.878  1.00  0.00     0.012 A 
HETATM   14  C   UNL     1       7.013  26.766  52.948  1.00  0.00     0.059 C 
HETATM   15  C   UNL     1       6.568  28.201  53.210  1.00  0.00     0.138 C 
ENDROOT
BRANCH   8  16
HETATM   16  N   UNL     1       7.756  22.379  53.464  1.00  0.00    -0.071 N 
HETATM   17  H   UNL     1       8.093  21.914  54.315  1.00  0.00     0.275 HD
HETATM   18  H   UNL     1       6.829  21.988  53.247  1.00  0.00     0.275 HD
HETATM   19  H   UNL     1       8.397  22.126  52.702  1.00  0.00     0.275 HD
ENDBRANCH   8  16
BRANCH   1  20
HETATM   20  S   UNL     1       5.215  28.733  50.927  1.00  0.00     0.224 S 
HETATM   21  C   UNL     1       3.512  29.180  50.652  1.00  0.00     0.186 C 
HETATM   22  O   UNL     1       5.500  27.481  50.261  1.00  0.00    -0.206 OA
HETATM   23  O   UNL     1       6.030  29.901  50.677  1.00  0.00    -0.206 OA
ENDBRANCH   1  20
TORSDOF 2
ENDMDL
MODEL 5
REMARK VINA RESULT:      -7.2      5.043      7.217
REMARK  2 active torsions:
REMARK  status: ('A' for Active; 'I' for Inactive)
REMARK    1  A    between atoms: S_2  and  N_3 
REMARK    2  A    between atoms: C_10  and  N_11 
ROOT
HETATM    1  N   UNL     1       5.731  27.600  55.945  1.00  0.00    -0.311 N 
HETATM    2  C   UNL     1       6.374  26.748  56.972  1.00  0.00     0.138 C 
HETATM    3  C   UNL     1       7.888  26.953  56.996  1.00  0.00     0.059 C 
HETATM    4  C   UNL     1       8.303  28.439  57.089  1.00  0.00     0.073 C 
HETATM    5  O   UNL     1       7.981  28.861  58.427  1.00  0.00    -0.339 OA
HETATM    6  C   UNL     1       8.580  29.999  58.890  1.00  0.00     0.078 A 
HETATM    7  C   UNL     1       9.702  30.590  58.295  1.00  0.00     0.005 A 
HETATM    8  C   UNL     1      10.324  29.952  57.086  1.00  0.00     0.222 C 
HETATM    9  C   UNL     1       9.824  28.525  56.884  1.00  0.00     0.076 C 
HETATM   10  C   UNL     1       8.000  30.559  60.029  1.00  0.00     0.037 A 
HETATM   11  C   UNL     1       8.506  31.740  60.563  1.00  0.00     0.003 A 
HETATM   12  C   UNL     1       9.590  32.366  59.955  1.00  0.00     0.001 A 
HETATM   13  C   UNL     1      10.183  31.800  58.823  1.00  0.00     0.012 A 
HETATM   14  C   UNL     1       7.516  29.286  56.063  1.00  0.00     0.059 C 
HETATM   15  C   UNL     1       6.015  29.034  56.163  1.00  0.00     0.138 C 
ENDROOT
BRANCH   8  16
HETATM   16  N   UNL     1      11.813  29.888  57.176  1.00  0.00    -0.071 N 
HETATM   17  H   UNL     1      12.247  30.752  56.833  1.00  0.00     0.275 HD
HETATM   18  H   UNL     1      12.110  29.762  58.152  1.00  0.00     0.275 HD
HETATM   19  H   UNL     1      12.196  29.112  56.622  1.00  0.00     0.275 HD
ENDBRANCH   8  16
BRANCH   1  20
HETATM   20  S   UNL     1       5.713  27.064  54.332  1.00  0.00     0.224 S 
HETATM   21  C   UNL     1       5.544  25.300  54.523  1.00  0.00     0.186 C 
HETATM   22  O   UNL     1       7.009  27.365  53.762  1.00  0.00    -0.206 OA
HETATM   23  O   UNL     1       4.505  27.565  53.716  1.00  0.00    -0.206 OA
ENDBRANCH   1  20
TORSDOF 2
ENDMDL
MODEL 6
REMARK VINA RESULT:      -7.1      4.315      5.472
REMARK  2 active torsions:
REMARK  status: ('A' for Active; 'I' for Inactive)
REMARK    1  A    between atoms: S_2  and  N_3 
REMARK    2  A    between atoms: C_10  and  N_11 
ROOT
HETATM    1  N   UNL     1       8.210  30.756  57.522  1.00  0.00    -0.311 N 
HETATM    2  C   UNL     1       9.370  30.163  56.818  1.00  0.00     0.138 C 
HETATM    3  C   UNL     1       9.485  28.665  57.100  1.00  0.00     0.059 C 
HETATM    4  C   UNL     1       8.167  27.895  56.859  1.00  0.00     0.073 C 
HETATM    5  O   UNL     1       7.979  27.859  55.433  1.00  0.00    -0.339 OA
HETATM    6  C   UNL     1       7.108  26.930  54.936  1.00  0.00     0.078 A 
HETATM    7  C   UNL     1       6.645  25.825  55.661  1.00  0.00     0.005 A 
HETATM    8  C   UNL     1       7.127  25.603  57.066  1.00  0.00     0.222 C 
HETATM    9  C   UNL     1       8.349  26.460  57.382  1.00  0.00     0.076 C 
HETATM   10  C   UNL     1       6.694  27.142  53.621  1.00  0.00     0.037 A 
HETATM   11  C   UNL     1       5.779  26.278  53.027  1.00  0.00     0.003 A 
HETATM   12  C   UNL     1       5.271  25.204  53.751  1.00  0.00     0.001 A 
HETATM   13  C   UNL     1       5.695  24.979  55.063  1.00  0.00     0.012 A 
HETATM   14  C   UNL     1       6.983  28.626  57.531  1.00  0.00     0.059 C 
HETATM   15  C   UNL     1       6.941  30.100  57.142  1.00  0.00     0.138 C 
ENDROOT
BRANCH   8  16
HETATM   16  N   UNL     1       7.508  24.182  57.323  1.00  0.00    -0.071 N 
HETATM   17  H   UNL     1       8.247  23.871  56.683  1.00  0.00     0.275 HD
HETATM   18  H   UNL     1       7.865  24.074  58.281  1.00  0.00     0.275 HD
HETATM   19  H   UNL     1       6.711  23.545  57.204  1.00  0.00     0.275 HD
ENDBRANCH   8  16
BRANCH   1  20
HETATM   20  S   UNL     1       8.382  31.193  59.156  1.00  0.00     0.224 S 
HETATM   21  C   UNL     1       6.748  31.775  59.564  1.00  0.00     0.186 C 
HETATM   22  O   UNL     1       9.316  32.297  59.212  1.00  0.00    -0.206 OA
HETATM   23  O   UNL     1       8.627  29.984  59.910  1.00  0.00    -0.206 OA
ENDBRANCH   1  20
TORSDOF 2
ENDMDL
MODEL 7
REMARK VINA RESULT:      -7.1      2.986      6.363
REMARK  2 active torsions:
REMARK  status: ('A' for Active; 'I' for Inactive)
REMARK    1  A    between atoms: S_2  and  N_3 
REMARK    2  A    between atoms: C_10  and  N_11 
ROOT
HETATM    1  N   UNL     1       9.013  22.235  54.928  1.00  0.00    -0.311 N 
HETATM    2  C   UNL     1       9.270  22.814  53.590  1.00  0.00     0.138 C 
HETATM    3  C   UNL     1       7.985  23.345  52.957  1.00  0.00     0.059 C 
HETATM    4  C   UNL     1       7.190  24.289  53.887  1.00  0.00     0.073 C 
HETATM    5  O   UNL     1       7.946  25.511  53.959  1.00  0.00    -0.339 OA
HETATM    6  C   UNL     1       7.296  26.630  54.399  1.00  0.00     0.078 A 
HETATM    7  C   UNL     1       5.902  26.745  54.474  1.00  0.00     0.005 A 
HETATM    8  C   UNL     1       5.036  25.600  54.034  1.00  0.00     0.222 C 
HETATM    9  C   UNL     1       5.829  24.574  53.230  1.00  0.00     0.076 C 
HETATM   10  C   UNL     1       8.119  27.690  54.778  1.00  0.00     0.037 A 
HETATM   11  C   UNL     1       7.564  28.864  55.278  1.00  0.00     0.003 A 
HETATM   12  C   UNL     1       6.182  28.976  55.405  1.00  0.00     0.001 A 
HETATM   13  C   UNL     1       5.354  27.922  55.012  1.00  0.00     0.012 A 
HETATM   14  C   UNL     1       7.051  23.669  55.296  1.00  0.00     0.059 C 
HETATM   15  C   UNL     1       8.400  23.219  55.845  1.00  0.00     0.138 C 
ENDROOT
BRANCH   8  16
HETATM   16  N   UNL     1       3.893  26.041  53.180  1.00  0.00    -0.071 N 
HETATM   17  H   UNL     1       4.185  26.179  52.206  1.00  0.00     0.275 HD
HETATM   18  H   UNL     1       3.150  25.330  53.181  1.00  0.00     0.275 HD
HETATM   19  H   UNL     1       3.490  26.927  53.509  1.00  0.00     0.275 HD
ENDBRANCH   8  16
BRANCH   1  20
HETATM   20  S   UNL     1       8.439  20.638  55.030  1.00  0.00     0.224 S 
HETATM   21  C   UNL     1       9.482  19.944  56.297  1.00  0.00     0.186 C 
HETATM   22  O   UNL     1       8.722  19.995  53.765  1.00  0.00    -0.206 OA
HETATM   23  O   UNL     1       7.087  20.690  55.542  1.00  0.00    -0.206 OA
ENDBRANCH   1  20
TORSDOF 2
ENDMDL
MODEL 8
REMARK VINA RESULT:      -6.7      2.914      3.411
REMARK  2 active torsions:
REMARK  status: ('A' for Active; 'I' for Inactive)
REMARK    1  A    between atoms: S_2  and  N_3 
REMARK    2  A    between atoms: C_10  and  N_11 
ROOT
HETATM    1  N   UNL     1       4.814  29.745  55.733  1.00  0.00    -0.311 N 
HETATM    2  C   UNL     1       6.261  29.973  55.514  1.00  0.00     0.138 C 
HETATM    3  C   UNL     1       7.108  29.031  56.369  1.00  0.00     0.059 C 
HETATM    4  C   UNL     1       6.697  27.548  56.234  1.00  0.00     0.073 C 
HETATM    5  O   UNL     1       7.123  27.133  54.923  1.00  0.00    -0.339 OA
HETATM    6  C   UNL     1       7.224  25.789  54.689  1.00  0.00     0.078 A 
HETATM    7  C   UNL     1       7.259  24.821  55.700  1.00  0.00     0.005 A 
HETATM    8  C   UNL     1       7.203  25.245  57.139  1.00  0.00     0.222 C 
HETATM    9  C   UNL     1       7.465  26.740  57.293  1.00  0.00     0.076 C 
HETATM   10  C   UNL     1       7.300  25.421  53.346  1.00  0.00     0.037 A 
HETATM   11  C   UNL     1       7.368  24.076  52.993  1.00  0.00     0.003 A 
HETATM   12  C   UNL     1       7.353  23.099  53.982  1.00  0.00     0.001 A 
HETATM   13  C   UNL     1       7.293  23.465  55.330  1.00  0.00     0.012 A 
HETATM   14  C   UNL     1       5.165  27.396  56.366  1.00  0.00     0.059 C 
HETATM   15  C   UNL     1       4.426  28.351  55.434  1.00  0.00     0.138 C 
ENDROOT
BRANCH   8  16
HETATM   16  N   UNL     1       8.207  24.533  57.985  1.00  0.00    -0.071 N 
HETATM   17  H   UNL     1       7.810  23.685  58.404  1.00  0.00     0.275 HD
HETATM   18  H   UNL     1       9.016  24.247  57.419  1.00  0.00     0.275 HD
HETATM   19  H   UNL     1       8.546  25.124  58.754  1.00  0.00     0.275 HD
ENDBRANCH   8  16
BRANCH   1  20
HETATM   20  S   UNL     1       4.065  30.474  57.074  1.00  0.00     0.224 S 
HETATM   21  C   UNL     1       4.572  32.174  56.911  1.00  0.00     0.186 C 
HETATM   22  O   UNL     1       4.661  29.904  58.264  1.00  0.00    -0.206 OA
HETATM   23  O   UNL     1       2.636  30.411  56.866  1.00  0.00    -0.206 OA
ENDBRANCH   1  20
TORSDOF 2
ENDMDL
MODEL 9
REMARK VINA RESULT:      -6.7      2.878      3.898
REMARK  2 active torsions:
REMARK  status: ('A' for Active; 'I' for Inactive)
REMARK    1  A    between atoms: S_2  and  N_3 
REMARK    2  A    between atoms: C_10  and  N_11 
ROOT
HETATM    1  N   UNL     1       4.560  27.832  49.085  1.00  0.00    -0.311 N 
HETATM    2  C   UNL     1       5.663  28.626  49.674  1.00  0.00     0.138 C 
HETATM    3  C   UNL     1       5.555  28.682  51.197  1.00  0.00     0.059 C 
HETATM    4  C   UNL     1       5.388  27.292  51.850  1.00  0.00     0.073 C 
HETATM    5  O   UNL     1       6.662  26.634  51.723  1.00  0.00    -0.339 OA
HETATM    6  C   UNL     1       6.901  25.561  52.536  1.00  0.00     0.078 A 
HETATM    7  C   UNL     1       6.148  25.263  53.679  1.00  0.00     0.005 A 
HETATM    8  C   UNL     1       5.016  26.164  54.079  1.00  0.00     0.222 C 
HETATM    9  C   UNL     1       5.072  27.498  53.341  1.00  0.00     0.076 C 
HETATM   10  C   UNL     1       7.974  24.754  52.159  1.00  0.00     0.037 A 
HETATM   11  C   UNL     1       8.283  23.613  52.894  1.00  0.00     0.003 A 
HETATM   12  C   UNL     1       7.515  23.275  54.003  1.00  0.00     0.001 A 
HETATM   13  C   UNL     1       6.449  24.091  54.393  1.00  0.00     0.012 A 
HETATM   14  C   UNL     1       4.296  26.478  51.119  1.00  0.00     0.059 C 
HETATM   15  C   UNL     1       4.533  26.452  49.612  1.00  0.00     0.138 C 
ENDROOT
BRANCH   8  16
HETATM   16  N   UNL     1       5.016  26.469  55.541  1.00  0.00    -0.071 N 
HETATM   17  H   UNL     1       4.310  27.176  55.776  1.00  0.00     0.275 HD
HETATM   18  H   UNL     1       4.798  25.624  56.084  1.00  0.00     0.275 HD
HETATM   19  H   UNL     1       5.926  26.827  55.856  1.00  0.00     0.275 HD
ENDBRANCH   8  16
BRANCH   1  20
HETATM   20  S   UNL     1       3.055  28.582  48.835  1.00  0.00     0.224 S 
HETATM   21  C   UNL     1       3.284  29.367  47.252  1.00  0.00     0.186 C 
HETATM   22  O   UNL     1       2.902  29.594  49.858  1.00  0.00    -0.206 OA
HETATM   23  O   UNL     1       2.066  27.539  48.679  1.00  0.00    -0.206 OA
ENDBRANCH   1  20
TORSDOF 2
ENDMDL
MODEL 10
REMARK VINA RESULT:      -6.6      4.194      6.431
REMARK  2 active torsions:
REMARK  status: ('A' for Active; 'I' for Inactive)
REMARK    1  A    between atoms: S_2  and  N_3 
REMARK    2  A    between atoms: C_10  and  N_11 
ROOT
HETATM    1  N   UNL     1       7.550  25.660  54.386  1.00  0.00    -0.311 N 
HETATM    2  C   UNL     1       7.440  26.876  53.548  1.00  0.00     0.138 C 
HETATM    3  C   UNL     1       6.637  27.967  54.255  1.00  0.00     0.059 C 
HETATM    4  C   UNL     1       7.131  28.258  55.690  1.00  0.00     0.073 C 
HETATM    5  O   UNL     1       8.392  28.939  55.549  1.00  0.00    -0.339 OA
HETATM    6  C   UNL     1       8.856  29.636  56.629  1.00  0.00     0.078 A 
HETATM    7  C   UNL     1       8.063  29.997  57.726  1.00  0.00     0.005 A 
HETATM    8  C   UNL     1       6.606  29.631  57.743  1.00  0.00     0.222 C 
HETATM    9  C   UNL     1       6.120  29.201  56.363  1.00  0.00     0.076 C 
HETATM   10  C   UNL     1      10.205  29.987  56.579  1.00  0.00     0.037 A 
HETATM   11  C   UNL     1      10.791  30.665  57.644  1.00  0.00     0.003 A 
HETATM   12  C   UNL     1      10.029  30.988  58.763  1.00  0.00     0.001 A 
HETATM   13  C   UNL     1       8.674  30.651  58.810  1.00  0.00     0.012 A 
HETATM   14  C   UNL     1       7.327  26.940  56.472  1.00  0.00     0.059 C 
HETATM   15  C   UNL     1       8.181  25.946  55.692  1.00  0.00     0.138 C 
ENDROOT
BRANCH   8  16
HETATM   16  N   UNL     1       5.737  30.763  58.183  1.00  0.00    -0.071 N 
HETATM   17  H   UNL     1       4.885  30.424  58.642  1.00  0.00     0.275 HD
HETATM   18  H   UNL     1       6.235  31.358  58.858  1.00  0.00     0.275 HD
HETATM   19  H   UNL     1       5.447  31.351  57.392  1.00  0.00     0.275 HD
ENDBRANCH   8  16
BRANCH   1  20
HETATM   20  S   UNL     1       6.263  24.550  54.389  1.00  0.00     0.224 S 
HETATM   21  C   UNL     1       5.636  24.694  52.728  1.00  0.00     0.186 C 
HETATM   22  O   UNL     1       5.272  25.040  55.324  1.00  0.00    -0.206 OA
HETATM   23  O   UNL     1       6.826  23.226  54.542  1.00  0.00    -0.206 OA
ENDBRANCH   1  20
TORSDOF 2
ENDMDL
