MODEL 1
REMARK VINA RESULT:     -10.2      0.000      0.000
REMARK  7 active torsions:
REMARK  status: ('A' for Active; 'I' for Inactive)
REMARK       I    between atoms: C_2  and  N_3 
REMARK    1  A    between atoms: N_3  and  C_4 
REMARK    2  A    between atoms: C_7  and  N_8 
REMARK       I    between atoms: N_8  and  C_9 
REMARK    3  A    between atoms: C_9  and  C_10 
REMARK       I    between atoms: C_10  and  N_11 
REMARK    4  A    between atoms: N_11  and  C_12 
REMARK    5  A    between atoms: C_12  and  C_13 
REMARK    6  A    between atoms: C_13  and  O_14 
REMARK    7  A    between atoms: C_13  and  C_15 
ROOT
HETATM    1  C   UNL     1       9.603  30.007  57.564  1.00  0.00     0.309 C 
HETATM    2  N   UNL     1       8.677  28.994  57.669  1.00  0.00    -0.350 N 
HETATM    3  O   UNL     1      10.508  30.070  56.744  1.00  0.00    -0.262 OA
HETATM    4  H   UNL     1       8.004  29.060  58.430  1.00  0.00     0.163 HD
ENDROOT
BRANCH   1   5
HETATM    5  C   UNL     1       9.448  31.110  58.633  1.00  0.00     0.313 C 
HETATM    6  N   UNL     1       8.543  30.755  59.609  1.00  0.00    -0.319 N 
HETATM    7  H   UNL     1       8.155  29.821  59.502  1.00  0.00     0.169 HD
HETATM    8  O   UNL     1      10.095  32.138  58.504  1.00  0.00    -0.262 OA
BRANCH   6   9
HETATM    9  C   UNL     1       8.068  31.544  60.669  1.00  0.00     0.035 A 
HETATM   10  C   UNL     1       6.947  32.367  60.581  1.00  0.00     0.032 A 
HETATM   11  C   UNL     1       6.500  33.086  61.700  1.00  0.00     0.032 A 
HETATM   12  C   UNL     1       7.172  32.999  62.918  1.00  0.00     0.034 A 
HETATM   13  C   UNL     1       8.312  32.193  62.997  1.00  0.00     0.032 A 
HETATM   14  C   UNL     1       8.753  31.468  61.885  1.00  0.00     0.032 A 
BRANCH  12  15
HETATM   15  N   UNL     1       6.771  33.668  64.093  1.00  0.00    -0.328 N 
HETATM   16  C   UNL     1       5.608  33.475  64.816  1.00  0.00     0.218 C 
HETATM   17  C   UNL     1       5.542  34.351  66.043  1.00  0.00     0.117 C 
HETATM   18  O   UNL     1       4.711  32.675  64.574  1.00  0.00    -0.274 OA
HETATM   19  H   UNL     1       7.428  34.344  64.463  1.00  0.00     0.169 HD
ENDBRANCH  12  15
ENDBRANCH   6   9
ENDBRANCH   1   5
BRANCH   2  20
HETATM   20  C   UNL     1       8.747  27.791  56.853  1.00  0.00     0.159 C 
BRANCH  20  21
HETATM   21  C   UNL     1       7.622  26.794  57.197  1.00  0.00     0.171 C 
BRANCH  21  22
HETATM   22  O   UNL     1       6.360  27.383  56.845  1.00  0.00    -0.389 OA
HETATM   23  H   UNL     1       6.060  27.861  57.635  1.00  0.00     0.210 HD
ENDBRANCH  21  22
BRANCH  21  24
HETATM   24  C   UNL     1       7.813  25.481  56.500  1.00  0.00     0.000 A 
HETATM   25  C   UNL     1       7.742  25.251  55.087  1.00  0.00     0.001 A 
HETATM   26  C   UNL     1       7.992  23.893  54.863  1.00  0.00     0.044 A 
HETATM   27  C   UNL     1       7.490  26.087  53.978  1.00  0.00     0.014 A 
HETATM   28  C   UNL     1       8.008  23.347  53.567  1.00  0.00     0.030 A 
HETATM   29  N   UNL     1       8.198  23.317  56.097  1.00  0.00    -0.360 N 
HETATM   30  C   UNL     1       7.759  24.199  52.487  1.00  0.00     0.002 A 
HETATM   31  C   UNL     1       7.503  25.550  52.686  1.00  0.00     0.001 A 
HETATM   32  C   UNL     1       8.500  21.928  56.362  1.00  0.00     0.155 C 
HETATM   33  C   UNL     1       8.089  24.260  57.085  1.00  0.00     0.101 A 
ENDBRANCH  21  24
ENDBRANCH  20  21
ENDBRANCH   2  20
TORSDOF 7
ENDMDL
MODEL 2
REMARK VINA RESULT:     -10.0      1.031      1.888
REMARK  7 active torsions:
REMARK  status: ('A' for Active; 'I' for Inactive)
REMARK       I    between atoms: C_2  and  N_3 
REMARK    1  A    between atoms: N_3  and  C_4 
REMARK    2  A    between atoms: C_7  and  N_8 
REMARK       I    between atoms: N_8  and  C_9 
REMARK    3  A    between atoms: C_9  and  C_10 
REMARK       I    between atoms: C_10  and  N_11 
REMARK    4  A    between atoms: N_11  and  C_12 
REMARK    5  A    between atoms: C_12  and  C_13 
REMARK    6  A    between atoms: C_13  and  O_14 
REMARK    7  A    between atoms: C_13  and  C_15 
ROOT
HETATM    1  C   UNL     1       9.611  30.004  57.611  1.00  0.00     0.309 C 
HETATM    2  N   UNL     1       8.688  28.991  57.726  1.00  0.00    -0.350 N 
HETATM    3  O   UNL     1      10.516  30.061  56.789  1.00  0.00    -0.262 OA
HETATM    4  H   UNL     1       8.015  29.062  58.486  1.00  0.00     0.163 HD
ENDROOT
BRANCH   1   5
HETATM    5  C   UNL     1       9.455  31.117  58.669  1.00  0.00     0.313 C 
HETATM    6  N   UNL     1       8.545  30.773  59.644  1.00  0.00    -0.319 N 
HETATM    7  H   UNL     1       8.153  29.840  59.543  1.00  0.00     0.169 HD
HETATM    8  O   UNL     1      10.108  32.141  58.535  1.00  0.00    -0.262 OA
BRANCH   6   9
HETATM    9  C   UNL     1       8.067  31.574  60.694  1.00  0.00     0.035 A 
HETATM   10  C   UNL     1       6.942  32.390  60.598  1.00  0.00     0.032 A 
HETATM   11  C   UNL     1       6.493  33.121  61.708  1.00  0.00     0.032 A 
HETATM   12  C   UNL     1       7.167  33.053  62.926  1.00  0.00     0.034 A 
HETATM   13  C   UNL     1       8.312  32.253  63.014  1.00  0.00     0.032 A 
HETATM   14  C   UNL     1       8.755  31.517  61.910  1.00  0.00     0.032 A 
BRANCH  12  15
HETATM   15  N   UNL     1       6.765  33.735  64.094  1.00  0.00    -0.328 N 
HETATM   16  C   UNL     1       5.605  33.543  64.822  1.00  0.00     0.218 C 
HETATM   17  C   UNL     1       5.537  34.435  66.037  1.00  0.00     0.117 C 
HETATM   18  O   UNL     1       4.714  32.734  64.593  1.00  0.00    -0.274 OA
HETATM   19  H   UNL     1       7.419  34.419  64.453  1.00  0.00     0.169 HD
ENDBRANCH  12  15
ENDBRANCH   6   9
ENDBRANCH   1   5
BRANCH   2  20
HETATM   20  C   UNL     1       8.758  27.780  56.921  1.00  0.00     0.159 C 
BRANCH  20  21
HETATM   21  C   UNL     1       7.489  26.916  57.064  1.00  0.00     0.171 C 
BRANCH  21  22
HETATM   22  O   UNL     1       6.410  27.753  57.509  1.00  0.00    -0.389 OA
HETATM   23  H   UNL     1       6.304  28.436  56.826  1.00  0.00     0.210 HD
ENDBRANCH  21  22
BRANCH  21  24
HETATM   24  C   UNL     1       7.138  26.230  55.778  1.00  0.00     0.000 A 
HETATM   25  C   UNL     1       7.632  24.961  55.331  1.00  0.00     0.001 A 
HETATM   26  C   UNL     1       7.044  24.688  54.090  1.00  0.00     0.044 A 
HETATM   27  C   UNL     1       8.527  24.018  55.879  1.00  0.00     0.014 A 
HETATM   28  C   UNL     1       7.316  23.501  53.387  1.00  0.00     0.030 A 
HETATM   29  N   UNL     1       6.230  25.759  53.792  1.00  0.00    -0.360 N 
HETATM   30  C   UNL     1       8.203  22.583  53.956  1.00  0.00     0.002 A 
HETATM   31  C   UNL     1       8.802  22.835  55.185  1.00  0.00     0.001 A 
HETATM   32  C   UNL     1       5.412  25.918  52.610  1.00  0.00     0.155 C 
HETATM   33  C   UNL     1       6.282  26.689  54.796  1.00  0.00     0.101 A 
ENDBRANCH  21  24
ENDBRANCH  20  21
ENDBRANCH   2  20
TORSDOF 7
ENDMDL
MODEL 3
REMARK VINA RESULT:      -9.4      1.774      2.542
REMARK  7 active torsions:
REMARK  status: ('A' for Active; 'I' for Inactive)
REMARK       I    between atoms: C_2  and  N_3 
REMARK    1  A    between atoms: N_3  and  C_4 
REMARK    2  A    between atoms: C_7  and  N_8 
REMARK       I    between atoms: N_8  and  C_9 
REMARK    3  A    between atoms: C_9  and  C_10 
REMARK       I    between atoms: C_10  and  N_11 
REMARK    4  A    between atoms: N_11  and  C_12 
REMARK    5  A    between atoms: C_12  and  C_13 
REMARK    6  A    between atoms: C_13  and  O_14 
REMARK    7  A    between atoms: C_13  and  C_15 
ROOT
HETATM    1  C   UNL     1       7.810  30.452  58.395  1.00  0.00     0.309 C 
HETATM    2  N   UNL     1       6.785  29.792  57.758  1.00  0.00    -0.350 N 
HETATM    3  O   UNL     1       9.005  30.247  58.235  1.00  0.00    -0.262 OA
HETATM    4  H   UNL     1       5.835  30.045  58.025  1.00  0.00     0.163 HD
ENDROOT
BRANCH   1   5
HETATM    5  C   UNL     1       7.336  31.505  59.419  1.00  0.00     0.313 C 
HETATM    6  N   UNL     1       7.619  31.126  60.713  1.00  0.00    -0.319 N 
HETATM    7  H   UNL     1       8.125  30.247  60.792  1.00  0.00     0.169 HD
HETATM    8  O   UNL     1       6.774  32.507  59.004  1.00  0.00    -0.262 OA
BRANCH   6   9
HETATM    9  C   UNL     1       7.240  31.773  61.900  1.00  0.00     0.035 A 
HETATM   10  C   UNL     1       5.920  31.899  62.328  1.00  0.00     0.032 A 
HETATM   11  C   UNL     1       5.622  32.511  63.554  1.00  0.00     0.032 A 
HETATM   12  C   UNL     1       6.638  33.014  64.366  1.00  0.00     0.034 A 
HETATM   13  C   UNL     1       7.960  32.910  63.923  1.00  0.00     0.032 A 
HETATM   14  C   UNL     1       8.260  32.291  62.704  1.00  0.00     0.032 A 
BRANCH  12  15
HETATM   15  N   UNL     1       6.423  33.619  65.622  1.00  0.00    -0.328 N 
HETATM   16  C   UNL     1       5.210  33.927  66.210  1.00  0.00     0.218 C 
HETATM   17  C   UNL     1       5.375  34.536  67.581  1.00  0.00     0.117 C 
HETATM   18  O   UNL     1       4.093  33.721  65.752  1.00  0.00    -0.274 OA
HETATM   19  H   UNL     1       7.254  33.819  66.163  1.00  0.00     0.169 HD
ENDBRANCH  12  15
ENDBRANCH   6   9
ENDBRANCH   1   5
BRANCH   2  20
HETATM   20  C   UNL     1       7.021  28.663  56.871  1.00  0.00     0.159 C 
BRANCH  20  21
HETATM   21  C   UNL     1       6.057  27.493  57.157  1.00  0.00     0.171 C 
BRANCH  21  22
HETATM   22  O   UNL     1       4.731  28.018  57.320  1.00  0.00    -0.389 OA
HETATM   23  H   UNL     1       4.824  28.809  57.875  1.00  0.00     0.210 HD
ENDBRANCH  21  22
BRANCH  21  24
HETATM   24  C   UNL     1       6.095  26.465  56.066  1.00  0.00     0.000 A 
HETATM   25  C   UNL     1       6.842  25.242  56.077  1.00  0.00     0.001 A 
HETATM   26  C   UNL     1       6.585  24.575  54.873  1.00  0.00     0.044 A 
HETATM   27  C   UNL     1       7.713  24.643  57.012  1.00  0.00     0.014 A 
HETATM   28  C   UNL     1       7.163  23.326  54.581  1.00  0.00     0.030 A 
HETATM   29  N   UNL     1       5.720  25.371  54.154  1.00  0.00    -0.360 N 
HETATM   30  C   UNL     1       8.018  22.755  55.527  1.00  0.00     0.002 A 
HETATM   31  C   UNL     1       8.292  23.402  56.727  1.00  0.00     0.001 A 
HETATM   32  C   UNL     1       5.169  25.086  52.848  1.00  0.00     0.155 C 
HETATM   33  C   UNL     1       5.423  26.507  54.859  1.00  0.00     0.101 A 
ENDBRANCH  21  24
ENDBRANCH  20  21
ENDBRANCH   2  20
TORSDOF 7
ENDMDL
MODEL 4
REMARK VINA RESULT:      -9.4      7.512     12.244
REMARK  7 active torsions:
REMARK  status: ('A' for Active; 'I' for Inactive)
REMARK       I    between atoms: C_2  and  N_3 
REMARK    1  A    between atoms: N_3  and  C_4 
REMARK    2  A    between atoms: C_7  and  N_8 
REMARK       I    between atoms: N_8  and  C_9 
REMARK    3  A    between atoms: C_9  and  C_10 
REMARK       I    between atoms: C_10  and  N_11 
REMARK    4  A    between atoms: N_11  and  C_12 
REMARK    5  A    between atoms: C_12  and  C_13 
REMARK    6  A    between atoms: C_13  and  O_14 
REMARK    7  A    between atoms: C_13  and  C_15 
ROOT
HETATM    1  C   UNL     1       5.048  26.813  50.959  1.00  0.00     0.309 C 
HETATM    2  N   UNL     1       5.251  25.518  51.376  1.00  0.00    -0.350 N 
HETATM    3  O   UNL     1       5.279  27.822  51.611  1.00  0.00    -0.262 OA
HETATM    4  H   UNL     1       4.973  24.777  50.736  1.00  0.00     0.163 HD
ENDROOT
BRANCH   1   5
HETATM    5  C   UNL     1       4.435  26.928  49.547  1.00  0.00     0.313 C 
HETATM    6  N   UNL     1       3.296  27.703  49.544  1.00  0.00    -0.319 N 
HETATM    7  H   UNL     1       3.061  28.107  50.446  1.00  0.00     0.169 HD
HETATM    8  O   UNL     1       4.983  26.339  48.627  1.00  0.00    -0.262 OA
BRANCH   6   9
HETATM    9  C   UNL     1       2.418  27.934  48.473  1.00  0.00     0.035 A 
HETATM   10  C   UNL     1       1.476  27.009  48.028  1.00  0.00     0.032 A 
HETATM   11  C   UNL     1       0.595  27.333  46.985  1.00  0.00     0.032 A 
HETATM   12  C   UNL     1       0.648  28.582  46.368  1.00  0.00     0.034 A 
HETATM   13  C   UNL     1       1.612  29.500  46.799  1.00  0.00     0.032 A 
HETATM   14  C   UNL     1       2.485  29.182  47.845  1.00  0.00     0.032 A 
BRANCH  12  15
HETATM   15  N   UNL     1      -0.219  28.992  45.334  1.00  0.00    -0.328 N 
HETATM   16  C   UNL     1      -0.888  28.189  44.429  1.00  0.00     0.218 C 
HETATM   17  C   UNL     1      -1.758  28.985  43.488  1.00  0.00     0.117 C 
HETATM   18  O   UNL     1      -0.859  26.965  44.365  1.00  0.00    -0.274 OA
HETATM   19  H   UNL     1      -0.392  29.987  45.272  1.00  0.00     0.169 HD
ENDBRANCH  12  15
ENDBRANCH   6   9
ENDBRANCH   1   5
BRANCH   2  20
HETATM   20  C   UNL     1       5.677  25.195  52.729  1.00  0.00     0.159 C 
BRANCH  20  21
HETATM   21  C   UNL     1       7.213  25.115  52.848  1.00  0.00     0.171 C 
BRANCH  21  22
HETATM   22  O   UNL     1       7.733  26.445  52.998  1.00  0.00    -0.389 OA
HETATM   23  H   UNL     1       7.153  26.887  53.639  1.00  0.00     0.210 HD
ENDBRANCH  21  22
BRANCH  21  24
HETATM   24  C   UNL     1       7.635  24.243  53.992  1.00  0.00     0.000 A 
HETATM   25  C   UNL     1       7.903  22.836  53.935  1.00  0.00     0.001 A 
HETATM   26  C   UNL     1       8.278  22.421  55.217  1.00  0.00     0.044 A 
HETATM   27  C   UNL     1       7.861  21.880  52.897  1.00  0.00     0.014 A 
HETATM   28  C   UNL     1       8.621  21.085  55.492  1.00  0.00     0.030 A 
HETATM   29  N   UNL     1       8.230  23.535  56.026  1.00  0.00    -0.360 N 
HETATM   30  C   UNL     1       8.575  20.161  54.444  1.00  0.00     0.002 A 
HETATM   31  C   UNL     1       8.200  20.550  53.163  1.00  0.00     0.001 A 
HETATM   32  C   UNL     1       8.545  23.592  57.436  1.00  0.00     0.155 C 
HETATM   33  C   UNL     1       7.843  24.631  55.301  1.00  0.00     0.101 A 
ENDBRANCH  21  24
ENDBRANCH  20  21
ENDBRANCH   2  20
TORSDOF 7
ENDMDL
MODEL 5
REMARK VINA RESULT:      -8.8      2.385      3.180
REMARK  7 active torsions:
REMARK  status: ('A' for Active; 'I' for Inactive)
REMARK       I    between atoms: C_2  and  N_3 
REMARK    1  A    between atoms: N_3  and  C_4 
REMARK    2  A    between atoms: C_7  and  N_8 
REMARK       I    between atoms: N_8  and  C_9 
REMARK    3  A    between atoms: C_9  and  C_10 
REMARK       I    between atoms: C_10  and  N_11 
REMARK    4  A    between atoms: N_11  and  C_12 
REMARK    5  A    between atoms: C_12  and  C_13 
REMARK    6  A    between atoms: C_13  and  O_14 
REMARK    7  A    between atoms: C_13  and  C_15 
ROOT
HETATM    1  C   UNL     1       9.022  30.510  58.965  1.00  0.00     0.309 C 
HETATM    2  N   UNL     1       7.839  29.837  58.766  1.00  0.00    -0.350 N 
HETATM    3  O   UNL     1      10.064  30.328  58.350  1.00  0.00    -0.262 OA
HETATM    4  H   UNL     1       7.064  30.071  59.383  1.00  0.00     0.163 HD
ENDROOT
BRANCH   1   5
HETATM    5  C   UNL     1       8.968  31.547  60.106  1.00  0.00     0.313 C 
HETATM    6  N   UNL     1       7.849  31.385  60.894  1.00  0.00    -0.319 N 
HETATM    7  H   UNL     1       7.263  30.596  60.633  1.00  0.00     0.169 HD
HETATM    8  O   UNL     1       9.866  32.373  60.184  1.00  0.00    -0.262 OA
BRANCH   6   9
HETATM    9  C   UNL     1       7.413  32.206  61.946  1.00  0.00     0.035 A 
HETATM   10  C   UNL     1       7.992  32.216  63.214  1.00  0.00     0.032 A 
HETATM   11  C   UNL     1       7.536  33.104  64.200  1.00  0.00     0.032 A 
HETATM   12  C   UNL     1       6.492  33.988  63.935  1.00  0.00     0.034 A 
HETATM   13  C   UNL     1       5.896  33.960  62.670  1.00  0.00     0.032 A 
HETATM   14  C   UNL     1       6.355  33.081  61.683  1.00  0.00     0.032 A 
BRANCH  12  15
HETATM   15  N   UNL     1       5.995  34.928  64.862  1.00  0.00    -0.328 N 
HETATM   16  C   UNL     1       4.940  34.766  65.741  1.00  0.00     0.218 C 
HETATM   17  C   UNL     1       4.723  35.982  66.608  1.00  0.00     0.117 C 
HETATM   18  O   UNL     1       4.244  33.768  65.884  1.00  0.00    -0.274 OA
HETATM   19  H   UNL     1       6.492  35.809  64.907  1.00  0.00     0.169 HD
ENDBRANCH  12  15
ENDBRANCH   6   9
ENDBRANCH   1   5
BRANCH   2  20
HETATM   20  C   UNL     1       7.728  28.718  57.841  1.00  0.00     0.159 C 
BRANCH  20  21
HETATM   21  C   UNL     1       7.568  29.189  56.381  1.00  0.00     0.171 C 
BRANCH  21  22
HETATM   22  O   UNL     1       8.872  29.408  55.823  1.00  0.00    -0.389 OA
HETATM   23  H   UNL     1       9.493  28.936  56.402  1.00  0.00     0.210 HD
ENDBRANCH  21  22
BRANCH  21  24
HETATM   24  C   UNL     1       6.794  28.200  55.562  1.00  0.00     0.000 A 
HETATM   25  C   UNL     1       5.646  28.481  54.751  1.00  0.00     0.001 A 
HETATM   26  C   UNL     1       5.244  27.282  54.151  1.00  0.00     0.044 A 
HETATM   27  C   UNL     1       4.917  29.657  54.474  1.00  0.00     0.014 A 
HETATM   28  C   UNL     1       4.144  27.225  53.277  1.00  0.00     0.030 A 
HETATM   29  N   UNL     1       6.112  26.307  54.591  1.00  0.00    -0.360 N 
HETATM   30  C   UNL     1       3.443  28.406  53.017  1.00  0.00     0.002 A 
HETATM   31  C   UNL     1       3.821  29.607  53.606  1.00  0.00     0.001 A 
HETATM   32  C   UNL     1       6.092  24.907  54.228  1.00  0.00     0.155 C 
HETATM   33  C   UNL     1       7.042  26.846  55.439  1.00  0.00     0.101 A 
ENDBRANCH  21  24
ENDBRANCH  20  21
ENDBRANCH   2  20
TORSDOF 7
ENDMDL
MODEL 6
REMARK VINA RESULT:      -8.6      2.277     10.782
REMARK  7 active torsions:
REMARK  status: ('A' for Active; 'I' for Inactive)
REMARK       I    between atoms: C_2  and  N_3 
REMARK    1  A    between atoms: N_3  and  C_4 
REMARK    2  A    between atoms: C_7  and  N_8 
REMARK       I    between atoms: N_8  and  C_9 
REMARK    3  A    between atoms: C_9  and  C_10 
REMARK       I    between atoms: C_10  and  N_11 
REMARK    4  A    between atoms: N_11  and  C_12 
REMARK    5  A    between atoms: C_12  and  C_13 
REMARK    6  A    between atoms: C_13  and  O_14 
REMARK    7  A    between atoms: C_13  and  C_15 
ROOT
HETATM    1  C   UNL     1       7.212  29.856  58.273  1.00  0.00     0.309 C 
HETATM    2  N   UNL     1       6.189  30.758  58.456  1.00  0.00    -0.350 N 
HETATM    3  O   UNL     1       8.313  29.901  58.804  1.00  0.00    -0.262 OA
HETATM    4  H   UNL     1       5.340  30.612  57.913  1.00  0.00     0.163 HD
ENDROOT
BRANCH   1   5
HETATM    5  C   UNL     1       6.884  28.735  57.264  1.00  0.00     0.313 C 
HETATM    6  N   UNL     1       7.303  27.502  57.713  1.00  0.00    -0.319 N 
HETATM    7  H   UNL     1       7.719  27.512  58.642  1.00  0.00     0.169 HD
HETATM    8  O   UNL     1       6.330  29.038  56.217  1.00  0.00    -0.262 OA
BRANCH   6   9
HETATM    9  C   UNL     1       7.276  26.281  57.021  1.00  0.00     0.035 A 
HETATM   10  C   UNL     1       6.324  25.956  56.057  1.00  0.00     0.032 A 
HETATM   11  C   UNL     1       6.393  24.736  55.368  1.00  0.00     0.032 A 
HETATM   12  C   UNL     1       7.410  23.821  55.639  1.00  0.00     0.034 A 
HETATM   13  C   UNL     1       8.349  24.137  56.625  1.00  0.00     0.032 A 
HETATM   14  C   UNL     1       8.287  25.358  57.306  1.00  0.00     0.032 A 
BRANCH  12  15
HETATM   15  N   UNL     1       7.563  22.587  54.972  1.00  0.00    -0.328 N 
HETATM   16  C   UNL     1       7.932  22.383  53.655  1.00  0.00     0.218 C 
HETATM   17  C   UNL     1       8.028  20.919  53.306  1.00  0.00     0.117 C 
HETATM   18  O   UNL     1       8.204  23.240  52.822  1.00  0.00    -0.274 OA
HETATM   19  H   UNL     1       7.417  21.759  55.535  1.00  0.00     0.169 HD
ENDBRANCH  12  15
ENDBRANCH   6   9
ENDBRANCH   1   5
BRANCH   2  20
HETATM   20  C   UNL     1       6.353  31.967  59.249  1.00  0.00     0.159 C 
BRANCH  20  21
HETATM   21  C   UNL     1       4.997  32.574  59.664  1.00  0.00     0.171 C 
BRANCH  21  22
HETATM   22  O   UNL     1       3.982  31.568  59.531  1.00  0.00    -0.389 OA
HETATM   23  H   UNL     1       3.925  31.131  60.396  1.00  0.00     0.210 HD
ENDBRANCH  21  22
BRANCH  21  24
HETATM   24  C   UNL     1       5.037  33.113  61.062  1.00  0.00     0.000 A 
HETATM   25  C   UNL     1       6.110  32.966  62.000  1.00  0.00     0.001 A 
HETATM   26  C   UNL     1       5.742  33.629  63.177  1.00  0.00     0.044 A 
HETATM   27  C   UNL     1       7.367  32.326  61.946  1.00  0.00     0.014 A 
HETATM   28  C   UNL     1       6.594  33.680  64.294  1.00  0.00     0.030 A 
HETATM   29  N   UNL     1       4.486  34.152  62.962  1.00  0.00    -0.360 N 
HETATM   30  C   UNL     1       7.835  33.042  64.211  1.00  0.00     0.002 A 
HETATM   31  C   UNL     1       8.219  32.373  63.054  1.00  0.00     0.001 A 
HETATM   32  C   UNL     1       3.703  34.928  63.899  1.00  0.00     0.155 C 
HETATM   33  C   UNL     1       4.053  33.846  61.699  1.00  0.00     0.101 A 
ENDBRANCH  21  24
ENDBRANCH  20  21
ENDBRANCH   2  20
TORSDOF 7
ENDMDL
MODEL 7
REMARK VINA RESULT:      -8.6      7.587     12.107
REMARK  7 active torsions:
REMARK  status: ('A' for Active; 'I' for Inactive)
REMARK       I    between atoms: C_2  and  N_3 
REMARK    1  A    between atoms: N_3  and  C_4 
REMARK    2  A    between atoms: C_7  and  N_8 
REMARK       I    between atoms: N_8  and  C_9 
REMARK    3  A    between atoms: C_9  and  C_10 
REMARK       I    between atoms: C_10  and  N_11 
REMARK    4  A    between atoms: N_11  and  C_12 
REMARK    5  A    between atoms: C_12  and  C_13 
REMARK    6  A    between atoms: C_13  and  O_14 
REMARK    7  A    between atoms: C_13  and  C_15 
ROOT
HETATM    1  C   UNL     1       4.864  26.993  51.077  1.00  0.00     0.309 C 
HETATM    2  N   UNL     1       5.624  25.847  51.032  1.00  0.00    -0.350 N 
HETATM    3  O   UNL     1       4.559  27.613  52.086  1.00  0.00    -0.262 OA
HETATM    4  H   UNL     1       5.763  25.419  50.119  1.00  0.00     0.163 HD
ENDROOT
BRANCH   1   5
HETATM    5  C   UNL     1       4.354  27.460  49.697  1.00  0.00     0.313 C 
HETATM    6  N   UNL     1       3.006  27.743  49.718  1.00  0.00    -0.319 N 
HETATM    7  H   UNL     1       2.570  27.643  50.631  1.00  0.00     0.169 HD
HETATM    8  O   UNL     1       5.150  27.513  48.771  1.00  0.00    -0.262 OA
BRANCH   6   9
HETATM    9  C   UNL     1       2.182  28.082  48.632  1.00  0.00     0.035 A 
HETATM   10  C   UNL     1       1.901  29.393  48.252  1.00  0.00     0.032 A 
HETATM   11  C   UNL     1       1.112  29.655  47.122  1.00  0.00     0.032 A 
HETATM   12  C   UNL     1       0.587  28.611  46.361  1.00  0.00     0.034 A 
HETATM   13  C   UNL     1       0.850  27.297  46.759  1.00  0.00     0.032 A 
HETATM   14  C   UNL     1       1.644  27.034  47.881  1.00  0.00     0.032 A 
BRANCH  12  15
HETATM   15  N   UNL     1      -0.191  28.792  45.199  1.00  0.00    -0.328 N 
HETATM   16  C   UNL     1      -1.529  29.131  45.127  1.00  0.00     0.218 C 
HETATM   17  C   UNL     1      -2.011  29.271  43.704  1.00  0.00     0.117 C 
HETATM   18  O   UNL     1      -2.288  29.349  46.065  1.00  0.00    -0.274 OA
HETATM   19  H   UNL     1       0.299  28.691  44.319  1.00  0.00     0.169 HD
ENDBRANCH  12  15
ENDBRANCH   6   9
ENDBRANCH   1   5
BRANCH   2  20
HETATM   20  C   UNL     1       6.071  25.164  52.237  1.00  0.00     0.159 C 
BRANCH  20  21
HETATM   21  C   UNL     1       7.502  24.608  52.089  1.00  0.00     0.171 C 
BRANCH  21  22
HETATM   22  O   UNL     1       8.431  25.700  52.171  1.00  0.00    -0.389 OA
HETATM   23  H   UNL     1       7.989  26.457  51.752  1.00  0.00     0.210 HD
ENDBRANCH  21  22
BRANCH  21  24
HETATM   24  C   UNL     1       7.803  23.570  53.128  1.00  0.00     0.000 A 
HETATM   25  C   UNL     1       7.959  23.796  54.534  1.00  0.00     0.001 A 
HETATM   26  C   UNL     1       8.219  22.560  55.138  1.00  0.00     0.044 A 
HETATM   27  C   UNL     1       7.896  24.948  55.347  1.00  0.00     0.014 A 
HETATM   28  C   UNL     1       8.409  22.441  56.527  1.00  0.00     0.030 A 
HETATM   29  N   UNL     1       8.230  21.620  54.132  1.00  0.00    -0.360 N 
HETATM   30  C   UNL     1       8.336  23.598  57.307  1.00  0.00     0.002 A 
HETATM   31  C   UNL     1       8.085  24.836  56.728  1.00  0.00     0.001 A 
HETATM   32  C   UNL     1       8.452  20.198  54.281  1.00  0.00     0.155 C 
HETATM   33  C   UNL     1       7.985  22.216  52.923  1.00  0.00     0.101 A 
ENDBRANCH  21  24
ENDBRANCH  20  21
ENDBRANCH   2  20
TORSDOF 7
ENDMDL
MODEL 8
REMARK VINA RESULT:      -8.5      2.400      3.162
REMARK  7 active torsions:
REMARK  status: ('A' for Active; 'I' for Inactive)
REMARK       I    between atoms: C_2  and  N_3 
REMARK    1  A    between atoms: N_3  and  C_4 
REMARK    2  A    between atoms: C_7  and  N_8 
REMARK       I    between atoms: N_8  and  C_9 
REMARK    3  A    between atoms: C_9  and  C_10 
REMARK       I    between atoms: C_10  and  N_11 
REMARK    4  A    between atoms: N_11  and  C_12 
REMARK    5  A    between atoms: C_12  and  C_13 
REMARK    6  A    between atoms: C_13  and  O_14 
REMARK    7  A    between atoms: C_13  and  C_15 
ROOT
HETATM    1  C   UNL     1       8.188  30.303  58.456  1.00  0.00     0.309 C 
HETATM    2  N   UNL     1       6.928  29.852  58.140  1.00  0.00    -0.350 N 
HETATM    3  O   UNL     1       9.242  29.840  58.041  1.00  0.00    -0.262 OA
HETATM    4  H   UNL     1       6.143  30.313  58.596  1.00  0.00     0.163 HD
ENDROOT
BRANCH   1   5
HETATM    5  C   UNL     1       8.200  31.476  59.459  1.00  0.00     0.313 C 
HETATM    6  N   UNL     1       7.405  31.222  60.555  1.00  0.00    -0.319 N 
HETATM    7  H   UNL     1       6.973  30.301  60.556  1.00  0.00     0.169 HD
HETATM    8  O   UNL     1       8.865  32.465  59.188  1.00  0.00    -0.262 OA
BRANCH   6   9
HETATM    9  C   UNL     1       7.087  32.096  61.607  1.00  0.00     0.035 A 
HETATM   10  C   UNL     1       6.015  32.987  61.579  1.00  0.00     0.032 A 
HETATM   11  C   UNL     1       5.727  33.792  62.691  1.00  0.00     0.032 A 
HETATM   12  C   UNL     1       6.509  33.723  63.842  1.00  0.00     0.034 A 
HETATM   13  C   UNL     1       7.599  32.848  63.859  1.00  0.00     0.032 A 
HETATM   14  C   UNL     1       7.883  32.037  62.754  1.00  0.00     0.032 A 
BRANCH  12  15
HETATM   15  N   UNL     1       6.269  34.479  65.009  1.00  0.00    -0.328 N 
HETATM   16  C   UNL     1       5.259  34.295  65.936  1.00  0.00     0.218 C 
HETATM   17  C   UNL     1       5.343  35.278  67.078  1.00  0.00     0.117 C 
HETATM   18  O   UNL     1       4.389  33.433  65.921  1.00  0.00    -0.274 OA
HETATM   19  H   UNL     1       6.933  35.218  65.202  1.00  0.00     0.169 HD
ENDBRANCH  12  15
ENDBRANCH   6   9
ENDBRANCH   1   5
BRANCH   2  20
HETATM   20  C   UNL     1       6.709  28.661  57.332  1.00  0.00     0.159 C 
BRANCH  20  21
HETATM   21  C   UNL     1       7.337  28.790  55.930  1.00  0.00     0.171 C 
BRANCH  21  22
HETATM   22  O   UNL     1       8.504  27.955  55.869  1.00  0.00    -0.389 OA
HETATM   23  H   UNL     1       9.261  28.561  55.797  1.00  0.00     0.210 HD
ENDBRANCH  21  22
BRANCH  21  24
HETATM   24  C   UNL     1       6.363  28.427  54.850  1.00  0.00     0.000 A 
HETATM   25  C   UNL     1       6.538  27.412  53.854  1.00  0.00     0.001 A 
HETATM   26  C   UNL     1       5.388  27.395  53.055  1.00  0.00     0.044 A 
HETATM   27  C   UNL     1       7.577  26.501  53.567  1.00  0.00     0.014 A 
HETATM   28  C   UNL     1       5.243  26.492  51.987  1.00  0.00     0.030 A 
HETATM   29  N   UNL     1       4.551  28.373  53.544  1.00  0.00    -0.360 N 
HETATM   30  C   UNL     1       6.286  25.599  51.728  1.00  0.00     0.002 A 
HETATM   31  C   UNL     1       7.439  25.601  52.505  1.00  0.00     0.001 A 
HETATM   32  C   UNL     1       3.239  28.718  53.040  1.00  0.00     0.155 C 
HETATM   33  C   UNL     1       5.127  28.999  54.618  1.00  0.00     0.101 A 
ENDBRANCH  21  24
ENDBRANCH  20  21
ENDBRANCH   2  20
TORSDOF 7
ENDMDL
MODEL 9
REMARK VINA RESULT:      -8.5      7.362     11.228
REMARK  7 active torsions:
REMARK  status: ('A' for Active; 'I' for Inactive)
REMARK       I    between atoms: C_2  and  N_3 
REMARK    1  A    between atoms: N_3  and  C_4 
REMARK    2  A    between atoms: C_7  and  N_8 
REMARK       I    between atoms: N_8  and  C_9 
REMARK    3  A    between atoms: C_9  and  C_10 
REMARK       I    between atoms: C_10  and  N_11 
REMARK    4  A    between atoms: N_11  and  C_12 
REMARK    5  A    between atoms: C_12  and  C_13 
REMARK    6  A    between atoms: C_13  and  O_14 
REMARK    7  A    between atoms: C_13  and  C_15 
ROOT
HETATM    1  C   UNL     1       4.491  27.354  52.659  1.00  0.00     0.309 C 
HETATM    2  N   UNL     1       4.635  26.094  52.127  1.00  0.00    -0.350 N 
HETATM    3  O   UNL     1       4.791  27.693  53.795  1.00  0.00    -0.262 OA
HETATM    4  H   UNL     1       4.303  25.953  51.175  1.00  0.00     0.163 HD
ENDROOT
BRANCH   1   5
HETATM    5  C   UNL     1       3.851  28.373  51.691  1.00  0.00     0.313 C 
HETATM    6  N   UNL     1       3.556  27.806  50.471  1.00  0.00    -0.319 N 
HETATM    7  H   UNL     1       3.762  26.812  50.409  1.00  0.00     0.169 HD
HETATM    8  O   UNL     1       3.694  29.522  52.078  1.00  0.00    -0.262 OA
BRANCH   6   9
HETATM    9  C   UNL     1       3.076  28.449  49.319  1.00  0.00     0.035 A 
HETATM   10  C   UNL     1       3.860  29.254  48.495  1.00  0.00     0.032 A 
HETATM   11  C   UNL     1       3.323  29.819  47.329  1.00  0.00     0.032 A 
HETATM   12  C   UNL     1       1.993  29.595  46.975  1.00  0.00     0.034 A 
HETATM   13  C   UNL     1       1.201  28.808  47.817  1.00  0.00     0.032 A 
HETATM   14  C   UNL     1       1.737  28.236  48.975  1.00  0.00     0.032 A 
BRANCH  12  15
HETATM   15  N   UNL     1       1.387  30.105  45.808  1.00  0.00    -0.328 N 
HETATM   16  C   UNL     1       0.657  31.273  45.681  1.00  0.00     0.218 C 
HETATM   17  C   UNL     1       0.196  31.510  44.264  1.00  0.00     0.117 C 
HETATM   18  O   UNL     1       0.410  32.089  46.560  1.00  0.00    -0.274 OA
HETATM   19  H   UNL     1       1.534  29.568  44.963  1.00  0.00     0.169 HD
ENDBRANCH  12  15
ENDBRANCH   6   9
ENDBRANCH   1   5
BRANCH   2  20
HETATM   20  C   UNL     1       5.076  24.960  52.925  1.00  0.00     0.159 C 
BRANCH  20  21
HETATM   21  C   UNL     1       6.469  24.456  52.493  1.00  0.00     0.171 C 
BRANCH  21  22
HETATM   22  O   UNL     1       7.166  25.530  51.843  1.00  0.00    -0.389 OA
HETATM   23  H   UNL     1       7.437  26.138  52.550  1.00  0.00     0.210 HD
ENDBRANCH  21  22
BRANCH  21  24
HETATM   24  C   UNL     1       7.255  23.935  53.658  1.00  0.00     0.000 A 
HETATM   25  C   UNL     1       7.797  22.616  53.796  1.00  0.00     0.001 A 
HETATM   26  C   UNL     1       8.466  22.556  55.024  1.00  0.00     0.044 A 
HETATM   27  C   UNL     1       7.778  21.467  52.977  1.00  0.00     0.014 A 
HETATM   28  C   UNL     1       9.123  21.389  55.452  1.00  0.00     0.030 A 
HETATM   29  N   UNL     1       8.327  23.793  55.614  1.00  0.00    -0.360 N 
HETATM   30  C   UNL     1       9.092  20.268  54.618  1.00  0.00     0.002 A 
HETATM   31  C   UNL     1       8.429  20.303  53.397  1.00  0.00     0.001 A 
HETATM   32  C   UNL     1       8.861  24.204  56.893  1.00  0.00     0.155 C 
HETATM   33  C   UNL     1       7.600  24.625  54.805  1.00  0.00     0.101 A 
ENDBRANCH  21  24
ENDBRANCH  20  21
ENDBRANCH   2  20
TORSDOF 7
ENDMDL
MODEL 10
REMARK VINA RESULT:      -8.5      2.451     10.912
REMARK  7 active torsions:
REMARK  status: ('A' for Active; 'I' for Inactive)
REMARK       I    between atoms: C_2  and  N_3 
REMARK    1  A    between atoms: N_3  and  C_4 
REMARK    2  A    between atoms: C_7  and  N_8 
REMARK       I    between atoms: N_8  and  C_9 
REMARK    3  A    between atoms: C_9  and  C_10 
REMARK       I    between atoms: C_10  and  N_11 
REMARK    4  A    between atoms: N_11  and  C_12 
REMARK    5  A    between atoms: C_12  and  C_13 
REMARK    6  A    between atoms: C_13  and  O_14 
REMARK    7  A    between atoms: C_13  and  C_15 
ROOT
HETATM    1  C   UNL     1       6.840  29.737  58.135  1.00  0.00     0.309 C 
HETATM    2  N   UNL     1       5.908  30.748  58.102  1.00  0.00    -0.350 N 
HETATM    3  O   UNL     1       7.844  29.708  58.834  1.00  0.00    -0.262 OA
HETATM    4  H   UNL     1       5.142  30.650  57.438  1.00  0.00     0.163 HD
ENDROOT
BRANCH   1   5
HETATM    5  C   UNL     1       6.550  28.585  57.149  1.00  0.00     0.313 C 
HETATM    6  N   UNL     1       7.118  27.400  57.563  1.00  0.00    -0.319 N 
HETATM    7  H   UNL     1       7.597  27.455  58.459  1.00  0.00     0.169 HD
HETATM    8  O   UNL     1       5.895  28.829  56.147  1.00  0.00    -0.262 OA
BRANCH   6   9
HETATM    9  C   UNL     1       7.159  26.179  56.872  1.00  0.00     0.035 A 
HETATM   10  C   UNL     1       6.170  25.755  55.986  1.00  0.00     0.032 A 
HETATM   11  C   UNL     1       6.307  24.545  55.290  1.00  0.00     0.032 A 
HETATM   12  C   UNL     1       7.429  23.739  55.474  1.00  0.00     0.034 A 
HETATM   13  C   UNL     1       8.409  24.154  56.382  1.00  0.00     0.032 A 
HETATM   14  C   UNL     1       8.278  25.365  57.070  1.00  0.00     0.032 A 
BRANCH  12  15
HETATM   15  N   UNL     1       7.652  22.524  54.792  1.00  0.00    -0.328 N 
HETATM   16  C   UNL     1       7.893  22.350  53.442  1.00  0.00     0.218 C 
HETATM   17  C   UNL     1       8.123  20.902  53.082  1.00  0.00     0.117 C 
HETATM   18  O   UNL     1       7.967  23.223  52.585  1.00  0.00    -0.274 OA
HETATM   19  H   UNL     1       7.669  21.692  55.368  1.00  0.00     0.169 HD
ENDBRANCH  12  15
ENDBRANCH   6   9
ENDBRANCH   1   5
BRANCH   2  20
HETATM   20  C   UNL     1       6.080  31.988  58.844  1.00  0.00     0.159 C 
BRANCH  20  21
HETATM   21  C   UNL     1       4.869  32.294  59.747  1.00  0.00     0.171 C 
BRANCH  21  22
HETATM   22  O   UNL     1       4.000  31.150  59.757  1.00  0.00    -0.389 OA
HETATM   23  H   UNL     1       4.285  30.607  60.511  1.00  0.00     0.210 HD
ENDBRANCH  21  22
BRANCH  21  24
HETATM   24  C   UNL     1       5.293  32.656  61.139  1.00  0.00     0.000 A 
HETATM   25  C   UNL     1       4.467  33.239  62.155  1.00  0.00     0.001 A 
HETATM   26  C   UNL     1       5.252  33.401  63.302  1.00  0.00     0.044 A 
HETATM   27  C   UNL     1       3.114  33.639  62.196  1.00  0.00     0.014 A 
HETATM   28  C   UNL     1       4.726  33.941  64.489  1.00  0.00     0.030 A 
HETATM   29  N   UNL     1       6.513  32.942  62.989  1.00  0.00    -0.360 N 
HETATM   30  C   UNL     1       3.382  34.325  64.502  1.00  0.00     0.002 A 
HETATM   31  C   UNL     1       2.585  34.178  63.373  1.00  0.00     0.001 A 
HETATM   32  C   UNL     1       7.660  32.903  63.869  1.00  0.00     0.155 C 
HETATM   33  C   UNL     1       6.548  32.496  61.694  1.00  0.00     0.101 A 
ENDBRANCH  21  24
ENDBRANCH  20  21
ENDBRANCH   2  20
TORSDOF 7
ENDMDL
