MODEL 1
REMARK VINA RESULT:     -10.8      0.000      0.000
REMARK  7 active torsions:
REMARK  status: ('A' for Active; 'I' for Inactive)
REMARK    1  A    between atoms: C_4  and  N_5 
REMARK    2  A    between atoms: C_6  and  S_7 
REMARK    3  A    between atoms: S_7  and  C_8 
REMARK    4  A    between atoms: C_8  and  C_9 
REMARK       I    between atoms: C_9  and  N_10 
REMARK    5  A    between atoms: N_10  and  C_11 
REMARK    6  A    between atoms: C_24  and  C_25 
REMARK    7  A    between atoms: C_26  and  O_27 
ROOT
HETATM    1  N   UNL     1       7.653  25.250  55.398  1.00  0.00    -0.271 N 
HETATM    2  C   UNL     1       7.958  26.316  56.236  1.00  0.00     0.197 A 
HETATM    3  N   UNL     1       8.546  25.881  57.327  1.00  0.00    -0.122 NA
HETATM    4  N   UNL     1       8.679  24.532  57.228  1.00  0.00    -0.128 NA
HETATM    5  C   UNL     1       8.216  24.148  56.050  1.00  0.00     0.172 A 
ENDROOT
BRANCH   2   6
HETATM    6  S   UNL     1       7.493  27.979  56.020  1.00  0.00    -0.080 SA
BRANCH   6   7
HETATM    7  C   UNL     1       8.629  28.767  57.207  1.00  0.00     0.185 C 
BRANCH   7   8
HETATM    8  C   UNL     1       7.915  29.680  58.190  1.00  0.00     0.231 C 
HETATM    9  N   UNL     1       8.752  30.271  59.122  1.00  0.00    -0.326 N 
HETATM   10  H   UNL     1       9.740  30.253  58.901  1.00  0.00     0.169 HD
HETATM   11  O   UNL     1       6.690  29.773  58.167  1.00  0.00    -0.272 OA
BRANCH   9  12
HETATM   12  C   UNL     1       8.376  30.960  60.293  1.00  0.00     0.037 A 
HETATM   13  C   UNL     1       7.450  32.007  60.315  1.00  0.00     0.069 A 
HETATM   14  C   UNL     1       7.087  32.600  61.526  1.00  0.00     0.104 A 
HETATM   15  C   UNL     1       7.676  32.183  62.721  1.00  0.00     0.102 A 
HETATM   16  O   UNL     1       6.136  33.590  61.466  1.00  0.00    -0.346 OA
HETATM   17  O   UNL     1       7.389  32.743  63.940  1.00  0.00    -0.346 OA
HETATM   18  C   UNL     1       8.592  31.137  62.712  1.00  0.00     0.042 A 
HETATM   19  C   UNL     1       6.690  33.985  63.793  1.00  0.00     0.202 C 
HETATM   20  C   UNL     1       5.583  33.860  62.758  1.00  0.00     0.202 C 
HETATM   21  C   UNL     1       8.937  30.523  61.502  1.00  0.00     0.032 A 
ENDBRANCH   9  12
ENDBRANCH   7   8
ENDBRANCH   6   7
ENDBRANCH   2   6
BRANCH   1  22
HETATM   22  C   UNL     1       6.899  25.244  54.190  1.00  0.00     0.043 A 
HETATM   23  C   UNL     1       5.534  24.928  54.194  1.00  0.00     0.030 A 
HETATM   24  C   UNL     1       4.808  24.949  53.000  1.00  0.00     0.002 A 
HETATM   25  C   UNL     1       5.436  25.281  51.800  1.00  0.00     0.000 A 
HETATM   26  C   UNL     1       6.793  25.593  51.789  1.00  0.00     0.002 A 
HETATM   27  C   UNL     1       7.525  25.574  52.979  1.00  0.00     0.030 A 
ENDBRANCH   1  22
BRANCH   5  28
HETATM   28  C   UNL     1       8.359  22.772  55.564  1.00  0.00     0.045 A 
HETATM   29  C   UNL     1       8.289  21.693  56.461  1.00  0.00     0.079 A 
HETATM   30  C   UNL     1       8.422  20.377  56.020  1.00  0.00     0.037 A 
HETATM   31  C   UNL     1       8.664  20.119  54.673  1.00  0.00     0.003 A 
HETATM   32  C   UNL     1       8.775  21.176  53.772  1.00  0.00     0.001 A 
HETATM   33  C   UNL     1       8.630  22.495  54.214  1.00  0.00     0.018 A 
BRANCH  29  34
HETATM   34  O   UNL     1       8.093  21.865  57.807  1.00  0.00    -0.360 OA
HETATM   35  H   UNL     1       7.348  22.487  57.928  1.00  0.00     0.217 HD
ENDBRANCH  29  34
ENDBRANCH   5  28
TORSDOF 7
ENDMDL
MODEL 2
REMARK VINA RESULT:     -10.5      1.759      2.265
REMARK  7 active torsions:
REMARK  status: ('A' for Active; 'I' for Inactive)
REMARK    1  A    between atoms: C_4  and  N_5 
REMARK    2  A    between atoms: C_6  and  S_7 
REMARK    3  A    between atoms: S_7  and  C_8 
REMARK    4  A    between atoms: C_8  and  C_9 
REMARK       I    between atoms: C_9  and  N_10 
REMARK    5  A    between atoms: N_10  and  C_11 
REMARK    6  A    between atoms: C_24  and  C_25 
REMARK    7  A    between atoms: C_26  and  O_27 
ROOT
HETATM    1  N   UNL     1       7.114  27.057  56.112  1.00  0.00    -0.271 N 
HETATM    2  C   UNL     1       7.451  27.792  57.242  1.00  0.00     0.197 A 
HETATM    3  N   UNL     1       8.004  27.011  58.142  1.00  0.00    -0.122 NA
HETATM    4  N   UNL     1       8.083  25.757  57.624  1.00  0.00    -0.128 NA
HETATM    5  C   UNL     1       7.621  25.783  56.385  1.00  0.00     0.172 A 
ENDROOT
BRANCH   2   6
HETATM    6  S   UNL     1       7.059  29.457  57.559  1.00  0.00    -0.080 SA
BRANCH   6   7
HETATM    7  C   UNL     1       8.708  30.072  58.032  1.00  0.00     0.185 C 
BRANCH   7   8
HETATM    8  C   UNL     1       8.653  31.134  59.117  1.00  0.00     0.231 C 
HETATM    9  N   UNL     1       7.934  30.757  60.240  1.00  0.00    -0.326 N 
HETATM   10  H   UNL     1       7.756  29.764  60.336  1.00  0.00     0.169 HD
HETATM   11  O   UNL     1       9.144  32.243  58.920  1.00  0.00    -0.272 OA
BRANCH   9  12
HETATM   12  C   UNL     1       7.499  31.585  61.295  1.00  0.00     0.037 A 
HETATM   13  C   UNL     1       6.246  32.204  61.329  1.00  0.00     0.069 A 
HETATM   14  C   UNL     1       5.866  32.963  62.439  1.00  0.00     0.104 A 
HETATM   15  C   UNL     1       6.749  33.145  63.505  1.00  0.00     0.102 A 
HETATM   16  O   UNL     1       4.602  33.499  62.415  1.00  0.00    -0.346 OA
HETATM   17  O   UNL     1       6.453  33.902  64.610  1.00  0.00    -0.346 OA
HETATM   18  C   UNL     1       7.995  32.526  63.485  1.00  0.00     0.042 A 
HETATM   19  C   UNL     1       5.301  34.724  64.386  1.00  0.00     0.202 C 
HETATM   20  C   UNL     1       4.193  33.927  63.717  1.00  0.00     0.202 C 
HETATM   21  C   UNL     1       8.366  31.744  62.386  1.00  0.00     0.032 A 
ENDBRANCH   9  12
ENDBRANCH   7   8
ENDBRANCH   6   7
ENDBRANCH   2   6
BRANCH   1  22
HETATM   22  C   UNL     1       6.377  27.463  54.962  1.00  0.00     0.043 A 
HETATM   23  C   UNL     1       7.019  28.051  53.864  1.00  0.00     0.030 A 
HETATM   24  C   UNL     1       6.280  28.422  52.738  1.00  0.00     0.002 A 
HETATM   25  C   UNL     1       4.903  28.211  52.700  1.00  0.00     0.000 A 
HETATM   26  C   UNL     1       4.258  27.630  53.789  1.00  0.00     0.002 A 
HETATM   27  C   UNL     1       4.990  27.257  54.918  1.00  0.00     0.030 A 
ENDBRANCH   1  22
BRANCH   5  28
HETATM   28  C   UNL     1       7.714  24.623  55.491  1.00  0.00     0.045 A 
HETATM   29  C   UNL     1       7.921  23.338  56.018  1.00  0.00     0.079 A 
HETATM   30  C   UNL     1       8.012  22.222  55.187  1.00  0.00     0.037 A 
HETATM   31  C   UNL     1       7.932  22.380  53.805  1.00  0.00     0.003 A 
HETATM   32  C   UNL     1       7.764  23.651  53.259  1.00  0.00     0.001 A 
HETATM   33  C   UNL     1       7.662  24.767  54.096  1.00  0.00     0.018 A 
BRANCH  29  34
HETATM   34  O   UNL     1       8.050  23.104  57.363  1.00  0.00    -0.360 OA
HETATM   35  H   UNL     1       7.676  22.220  57.554  1.00  0.00     0.217 HD
ENDBRANCH  29  34
ENDBRANCH   5  28
TORSDOF 7
ENDMDL
MODEL 3
REMARK VINA RESULT:     -10.3      1.165      2.019
REMARK  7 active torsions:
REMARK  status: ('A' for Active; 'I' for Inactive)
REMARK    1  A    between atoms: C_4  and  N_5 
REMARK    2  A    between atoms: C_6  and  S_7 
REMARK    3  A    between atoms: S_7  and  C_8 
REMARK    4  A    between atoms: C_8  and  C_9 
REMARK       I    between atoms: C_9  and  N_10 
REMARK    5  A    between atoms: N_10  and  C_11 
REMARK    6  A    between atoms: C_24  and  C_25 
REMARK    7  A    between atoms: C_26  and  O_27 
ROOT
HETATM    1  N   UNL     1       7.738  25.162  55.528  1.00  0.00    -0.271 N 
HETATM    2  C   UNL     1       8.049  26.193  56.405  1.00  0.00     0.197 A 
HETATM    3  N   UNL     1       8.622  25.712  57.485  1.00  0.00    -0.122 NA
HETATM    4  N   UNL     1       8.740  24.366  57.339  1.00  0.00    -0.128 NA
HETATM    5  C   UNL     1       8.281  24.030  56.144  1.00  0.00     0.172 A 
ENDROOT
BRANCH   2   6
HETATM    6  S   UNL     1       7.606  27.868  56.245  1.00  0.00    -0.080 SA
BRANCH   6   7
HETATM    7  C   UNL     1       9.110  28.644  56.923  1.00  0.00     0.185 C 
BRANCH   7   8
HETATM    8  C   UNL     1       8.806  29.830  57.824  1.00  0.00     0.231 C 
HETATM    9  N   UNL     1       7.510  29.850  58.313  1.00  0.00    -0.326 N 
HETATM   10  H   UNL     1       7.001  28.977  58.247  1.00  0.00     0.169 HD
HETATM   11  O   UNL     1       9.649  30.708  57.993  1.00  0.00    -0.272 OA
BRANCH   9  12
HETATM   12  C   UNL     1       6.857  30.918  58.961  1.00  0.00     0.037 A 
HETATM   13  C   UNL     1       7.189  31.369  60.242  1.00  0.00     0.069 A 
HETATM   14  C   UNL     1       6.533  32.473  60.792  1.00  0.00     0.104 A 
HETATM   15  C   UNL     1       5.511  33.110  60.086  1.00  0.00     0.102 A 
HETATM   16  O   UNL     1       6.950  32.880  62.036  1.00  0.00    -0.346 OA
HETATM   17  O   UNL     1       4.806  34.178  60.579  1.00  0.00    -0.346 OA
HETATM   18  C   UNL     1       5.179  32.676  58.807  1.00  0.00     0.042 A 
HETATM   19  C   UNL     1       5.012  34.335  61.989  1.00  0.00     0.202 C 
HETATM   20  C   UNL     1       6.486  34.200  62.334  1.00  0.00     0.202 C 
HETATM   21  C   UNL     1       5.854  31.587  58.244  1.00  0.00     0.032 A 
ENDBRANCH   9  12
ENDBRANCH   7   8
ENDBRANCH   6   7
ENDBRANCH   2   6
BRANCH   1  22
HETATM   22  C   UNL     1       6.993  25.208  54.315  1.00  0.00     0.043 A 
HETATM   23  C   UNL     1       7.606  25.558  53.105  1.00  0.00     0.030 A 
HETATM   24  C   UNL     1       6.861  25.575  51.922  1.00  0.00     0.002 A 
HETATM   25  C   UNL     1       5.506  25.246  51.940  1.00  0.00     0.000 A 
HETATM   26  C   UNL     1       4.890  24.900  53.140  1.00  0.00     0.002 A 
HETATM   27  C   UNL     1       5.628  24.881  54.325  1.00  0.00     0.030 A 
ENDBRANCH   1  22
BRANCH   5  28
HETATM   28  C   UNL     1       8.411  22.670  55.611  1.00  0.00     0.045 A 
HETATM   29  C   UNL     1       8.361  21.563  56.474  1.00  0.00     0.079 A 
HETATM   30  C   UNL     1       8.482  20.262  55.988  1.00  0.00     0.037 A 
HETATM   31  C   UNL     1       8.692  20.047  54.628  1.00  0.00     0.003 A 
HETATM   32  C   UNL     1       8.783  21.133  53.759  1.00  0.00     0.001 A 
HETATM   33  C   UNL     1       8.650  22.437  54.247  1.00  0.00     0.018 A 
BRANCH  29  34
HETATM   34  O   UNL     1       8.197  21.691  57.829  1.00  0.00    -0.360 OA
HETATM   35  H   UNL     1       7.944  20.817  58.188  1.00  0.00     0.217 HD
ENDBRANCH  29  34
ENDBRANCH   5  28
TORSDOF 7
ENDMDL
MODEL 4
REMARK VINA RESULT:     -10.0      4.255      6.767
REMARK  7 active torsions:
REMARK  status: ('A' for Active; 'I' for Inactive)
REMARK    1  A    between atoms: C_4  and  N_5 
REMARK    2  A    between atoms: C_6  and  S_7 
REMARK    3  A    between atoms: S_7  and  C_8 
REMARK    4  A    between atoms: C_8  and  C_9 
REMARK       I    between atoms: C_9  and  N_10 
REMARK    5  A    between atoms: N_10  and  C_11 
REMARK    6  A    between atoms: C_24  and  C_25 
REMARK    7  A    between atoms: C_26  and  O_27 
ROOT
HETATM    1  N   UNL     1       7.779  25.213  55.553  1.00  0.00    -0.271 N 
HETATM    2  C   UNL     1       8.111  26.250  56.415  1.00  0.00     0.197 A 
HETATM    3  N   UNL     1       8.682  25.775  57.498  1.00  0.00    -0.122 NA
HETATM    4  N   UNL     1       8.776  24.425  57.370  1.00  0.00    -0.128 NA
HETATM    5  C   UNL     1       8.307  24.081  56.182  1.00  0.00     0.172 A 
ENDROOT
BRANCH   2   6
HETATM    6  S   UNL     1       7.696  27.931  56.234  1.00  0.00    -0.080 SA
BRANCH   6   7
HETATM    7  C   UNL     1       6.032  27.913  56.979  1.00  0.00     0.185 C 
BRANCH   7   8
HETATM    8  C   UNL     1       4.935  28.230  55.977  1.00  0.00     0.231 C 
HETATM    9  N   UNL     1       5.401  28.616  54.731  1.00  0.00    -0.326 N 
HETATM   10  H   UNL     1       6.372  28.398  54.537  1.00  0.00     0.169 HD
HETATM   11  O   UNL     1       3.757  28.216  56.327  1.00  0.00    -0.272 OA
BRANCH   9  12
HETATM   12  C   UNL     1       4.661  29.198  53.682  1.00  0.00     0.037 A 
HETATM   13  C   UNL     1       4.393  28.555  52.470  1.00  0.00     0.069 A 
HETATM   14  C   UNL     1       3.600  29.178  51.503  1.00  0.00     0.104 A 
HETATM   15  C   UNL     1       3.103  30.464  51.719  1.00  0.00     0.102 A 
HETATM   16  O   UNL     1       3.346  28.460  50.360  1.00  0.00    -0.346 OA
HETATM   17  O   UNL     1       2.346  31.146  50.801  1.00  0.00    -0.346 OA
HETATM   18  C   UNL     1       3.357  31.110  52.925  1.00  0.00     0.042 A 
HETATM   19  C   UNL     1       2.412  30.528  49.509  1.00  0.00     0.202 C 
HETATM   20  C   UNL     1       2.254  29.021  49.625  1.00  0.00     0.202 C 
HETATM   21  C   UNL     1       4.128  30.476  53.906  1.00  0.00     0.032 A 
ENDBRANCH   9  12
ENDBRANCH   7   8
ENDBRANCH   6   7
ENDBRANCH   2   6
BRANCH   1  22
HETATM   22  C   UNL     1       7.029  25.255  54.343  1.00  0.00     0.043 A 
HETATM   23  C   UNL     1       7.630  25.631  53.134  1.00  0.00     0.030 A 
HETATM   24  C   UNL     1       6.880  25.644  51.955  1.00  0.00     0.002 A 
HETATM   25  C   UNL     1       5.533  25.286  51.973  1.00  0.00     0.000 A 
HETATM   26  C   UNL     1       4.929  24.914  53.172  1.00  0.00     0.002 A 
HETATM   27  C   UNL     1       5.672  24.898  54.354  1.00  0.00     0.030 A 
ENDBRANCH   1  22
BRANCH   5  28
HETATM   28  C   UNL     1       8.411  22.712  55.666  1.00  0.00     0.045 A 
HETATM   29  C   UNL     1       8.331  21.617  56.542  1.00  0.00     0.079 A 
HETATM   30  C   UNL     1       8.428  20.308  56.074  1.00  0.00     0.037 A 
HETATM   31  C   UNL     1       8.642  20.072  54.718  1.00  0.00     0.003 A 
HETATM   32  C   UNL     1       8.762  21.144  53.836  1.00  0.00     0.001 A 
HETATM   33  C   UNL     1       8.654  22.457  54.307  1.00  0.00     0.018 A 
BRANCH  29  34
HETATM   34  O   UNL     1       8.160  21.766  57.894  1.00  0.00    -0.360 OA
HETATM   35  H   UNL     1       8.419  20.927  58.327  1.00  0.00     0.217 HD
ENDBRANCH  29  34
ENDBRANCH   5  28
TORSDOF 7
ENDMDL
MODEL 5
REMARK VINA RESULT:      -9.9      5.909     11.719
REMARK  7 active torsions:
REMARK  status: ('A' for Active; 'I' for Inactive)
REMARK    1  A    between atoms: C_4  and  N_5 
REMARK    2  A    between atoms: C_6  and  S_7 
REMARK    3  A    between atoms: S_7  and  C_8 
REMARK    4  A    between atoms: C_8  and  C_9 
REMARK       I    between atoms: C_9  and  N_10 
REMARK    5  A    between atoms: N_10  and  C_11 
REMARK    6  A    between atoms: C_24  and  C_25 
REMARK    7  A    between atoms: C_26  and  O_27 
ROOT
HETATM    1  N   UNL     1       4.408  34.211  62.851  1.00  0.00    -0.271 N 
HETATM    2  C   UNL     1       3.928  33.306  61.912  1.00  0.00     0.197 A 
HETATM    3  N   UNL     1       4.104  32.075  62.336  1.00  0.00    -0.122 NA
HETATM    4  N   UNL     1       4.666  32.130  63.572  1.00  0.00    -0.128 NA
HETATM    5  C   UNL     1       4.788  33.399  63.924  1.00  0.00     0.172 A 
ENDROOT
BRANCH   2   6
HETATM    6  S   UNL     1       3.341  33.673  60.315  1.00  0.00    -0.080 SA
BRANCH   6   7
HETATM    7  C   UNL     1       3.347  31.997  59.598  1.00  0.00     0.185 C 
BRANCH   7   8
HETATM    8  C   UNL     1       4.591  31.713  58.773  1.00  0.00     0.231 C 
HETATM    9  N   UNL     1       5.672  31.270  59.516  1.00  0.00    -0.326 N 
HETATM   10  H   UNL     1       5.459  30.936  60.449  1.00  0.00     0.169 HD
HETATM   11  O   UNL     1       4.603  31.961  57.569  1.00  0.00    -0.272 OA
BRANCH   9  12
HETATM   12  C   UNL     1       7.012  31.156  59.094  1.00  0.00     0.037 A 
HETATM   13  C   UNL     1       7.443  30.263  58.108  1.00  0.00     0.069 A 
HETATM   14  C   UNL     1       8.779  30.253  57.702  1.00  0.00     0.104 A 
HETATM   15  C   UNL     1       9.707  31.103  58.307  1.00  0.00     0.102 A 
HETATM   16  O   UNL     1       9.110  29.378  56.696  1.00  0.00    -0.346 OA
HETATM   17  O   UNL     1      11.038  31.123  57.979  1.00  0.00    -0.346 OA
HETATM   18  C   UNL     1       9.288  32.001  59.282  1.00  0.00     0.042 A 
HETATM   19  C   UNL     1      11.404  29.970  57.210  1.00  0.00     0.202 C 
HETATM   20  C   UNL     1      10.379  29.704  56.120  1.00  0.00     0.202 C 
HETATM   21  C   UNL     1       7.944  32.032  59.670  1.00  0.00     0.032 A 
ENDBRANCH   9  12
ENDBRANCH   7   8
ENDBRANCH   6   7
ENDBRANCH   2   6
BRANCH   1  22
HETATM   22  C   UNL     1       4.546  35.625  62.748  1.00  0.00     0.043 A 
HETATM   23  C   UNL     1       3.424  36.463  62.771  1.00  0.00     0.030 A 
HETATM   24  C   UNL     1       3.585  37.849  62.691  1.00  0.00     0.002 A 
HETATM   25  C   UNL     1       4.859  38.404  62.587  1.00  0.00     0.000 A 
HETATM   26  C   UNL     1       5.979  37.576  62.562  1.00  0.00     0.002 A 
HETATM   27  C   UNL     1       5.826  36.190  62.641  1.00  0.00     0.030 A 
ENDBRANCH   1  22
BRANCH   5  28
HETATM   28  C   UNL     1       5.215  33.800  65.269  1.00  0.00     0.045 A 
HETATM   29  C   UNL     1       6.574  33.766  65.620  1.00  0.00     0.079 A 
HETATM   30  C   UNL     1       7.001  34.142  66.893  1.00  0.00     0.037 A 
HETATM   31  C   UNL     1       6.067  34.528  67.851  1.00  0.00     0.003 A 
HETATM   32  C   UNL     1       4.710  34.534  67.536  1.00  0.00     0.001 A 
HETATM   33  C   UNL     1       4.284  34.166  66.255  1.00  0.00     0.018 A 
BRANCH  29  34
HETATM   34  O   UNL     1       7.551  33.361  64.748  1.00  0.00    -0.360 OA
HETATM   35  H   UNL     1       8.331  33.938  64.877  1.00  0.00     0.217 HD
ENDBRANCH  29  34
ENDBRANCH   5  28
TORSDOF 7
ENDMDL
MODEL 6
REMARK VINA RESULT:      -9.9      2.714      4.489
REMARK  7 active torsions:
REMARK  status: ('A' for Active; 'I' for Inactive)
REMARK    1  A    between atoms: C_4  and  N_5 
REMARK    2  A    between atoms: C_6  and  S_7 
REMARK    3  A    between atoms: S_7  and  C_8 
REMARK    4  A    between atoms: C_8  and  C_9 
REMARK       I    between atoms: C_9  and  N_10 
REMARK    5  A    between atoms: N_10  and  C_11 
REMARK    6  A    between atoms: C_24  and  C_25 
REMARK    7  A    between atoms: C_26  and  O_27 
ROOT
HETATM    1  N   UNL     1       6.683  28.729  56.415  1.00  0.00    -0.271 N 
HETATM    2  C   UNL     1       5.488  29.425  56.279  1.00  0.00     0.197 A 
HETATM    3  N   UNL     1       4.534  28.614  55.883  1.00  0.00    -0.122 NA
HETATM    4  N   UNL     1       5.055  27.363  55.782  1.00  0.00    -0.128 NA
HETATM    5  C   UNL     1       6.321  27.402  56.166  1.00  0.00     0.172 A 
ENDROOT
BRANCH   2   6
HETATM    6  S   UNL     1       5.261  31.145  56.415  1.00  0.00    -0.080 SA
BRANCH   6   7
HETATM    7  C   UNL     1       3.726  31.170  57.398  1.00  0.00     0.185 C 
BRANCH   7   8
HETATM    8  C   UNL     1       3.962  31.560  58.848  1.00  0.00     0.231 C 
HETATM    9  N   UNL     1       5.199  32.136  59.085  1.00  0.00    -0.326 N 
HETATM   10  H   UNL     1       5.692  32.472  58.266  1.00  0.00     0.169 HD
HETATM   11  O   UNL     1       3.126  31.281  59.705  1.00  0.00    -0.272 OA
BRANCH   9  12
HETATM   12  C   UNL     1       5.805  32.378  60.334  1.00  0.00     0.037 A 
HETATM   13  C   UNL     1       5.163  33.016  61.399  1.00  0.00     0.069 A 
HETATM   14  C   UNL     1       5.812  33.165  62.626  1.00  0.00     0.104 A 
HETATM   15  C   UNL     1       7.125  32.717  62.789  1.00  0.00     0.102 A 
HETATM   16  O   UNL     1       5.095  33.761  63.634  1.00  0.00    -0.346 OA
HETATM   17  O   UNL     1       7.832  32.860  63.955  1.00  0.00    -0.346 OA
HETATM   18  C   UNL     1       7.771  32.074  61.739  1.00  0.00     0.042 A 
HETATM   19  C   UNL     1       7.197  33.792  64.840  1.00  0.00     0.202 C 
HETATM   20  C   UNL     1       5.701  33.533  64.910  1.00  0.00     0.202 C 
HETATM   21  C   UNL     1       7.111  31.899  60.517  1.00  0.00     0.032 A 
ENDBRANCH   9  12
ENDBRANCH   7   8
ENDBRANCH   6   7
ENDBRANCH   2   6
BRANCH   1  22
HETATM   22  C   UNL     1       7.989  29.230  56.684  1.00  0.00     0.043 A 
HETATM   23  C   UNL     1       8.337  29.687  57.962  1.00  0.00     0.030 A 
HETATM   24  C   UNL     1       9.631  30.154  58.209  1.00  0.00     0.002 A 
HETATM   25  C   UNL     1      10.581  30.169  57.189  1.00  0.00     0.000 A 
HETATM   26  C   UNL     1      10.240  29.718  55.916  1.00  0.00     0.002 A 
HETATM   27  C   UNL     1       8.949  29.250  55.661  1.00  0.00     0.030 A 
ENDBRANCH   1  22
BRANCH   5  28
HETATM   28  C   UNL     1       7.127  26.187  56.326  1.00  0.00     0.045 A 
HETATM   29  C   UNL     1       7.149  25.213  55.315  1.00  0.00     0.079 A 
HETATM   30  C   UNL     1       7.908  24.051  55.447  1.00  0.00     0.037 A 
HETATM   31  C   UNL     1       8.635  23.827  56.614  1.00  0.00     0.003 A 
HETATM   32  C   UNL     1       8.598  24.763  57.645  1.00  0.00     0.001 A 
HETATM   33  C   UNL     1       7.844  25.933  57.506  1.00  0.00     0.018 A 
BRANCH  29  34
HETATM   34  O   UNL     1       6.430  25.339  54.154  1.00  0.00    -0.360 OA
HETATM   35  H   UNL     1       6.284  26.293  53.990  1.00  0.00     0.217 HD
ENDBRANCH  29  34
ENDBRANCH   5  28
TORSDOF 7
ENDMDL
MODEL 7
REMARK VINA RESULT:      -9.9      2.909      3.319
REMARK  7 active torsions:
REMARK  status: ('A' for Active; 'I' for Inactive)
REMARK    1  A    between atoms: C_4  and  N_5 
REMARK    2  A    between atoms: C_6  and  S_7 
REMARK    3  A    between atoms: S_7  and  C_8 
REMARK    4  A    between atoms: C_8  and  C_9 
REMARK       I    between atoms: C_9  and  N_10 
REMARK    5  A    between atoms: N_10  and  C_11 
REMARK    6  A    between atoms: C_24  and  C_25 
REMARK    7  A    between atoms: C_26  and  O_27 
ROOT
HETATM    1  N   UNL     1       7.683  25.162  55.663  1.00  0.00    -0.271 N 
HETATM    2  C   UNL     1       7.969  26.168  56.577  1.00  0.00     0.197 A 
HETATM    3  N   UNL     1       8.530  25.660  57.651  1.00  0.00    -0.122 NA
HETATM    4  N   UNL     1       8.663  24.320  57.465  1.00  0.00    -0.128 NA
HETATM    5  C   UNL     1       8.227  24.017  56.253  1.00  0.00     0.172 A 
ENDROOT
BRANCH   2   6
HETATM    6  S   UNL     1       7.513  27.844  56.462  1.00  0.00    -0.080 SA
BRANCH   6   7
HETATM    7  C   UNL     1       5.806  27.737  57.091  1.00  0.00     0.185 C 
BRANCH   7   8
HETATM    8  C   UNL     1       5.036  29.037  56.932  1.00  0.00     0.231 C 
HETATM    9  N   UNL     1       5.516  30.077  57.710  1.00  0.00    -0.326 N 
HETATM   10  H   UNL     1       6.450  29.953  58.083  1.00  0.00     0.169 HD
HETATM   11  O   UNL     1       4.029  29.075  56.228  1.00  0.00    -0.272 OA
BRANCH   9  12
HETATM   12  C   UNL     1       4.889  31.312  57.969  1.00  0.00     0.037 A 
HETATM   13  C   UNL     1       3.950  31.508  58.986  1.00  0.00     0.069 A 
HETATM   14  C   UNL     1       3.416  32.778  59.217  1.00  0.00     0.104 A 
HETATM   15  C   UNL     1       3.783  33.855  58.408  1.00  0.00     0.102 A 
HETATM   16  O   UNL     1       2.536  32.895  60.265  1.00  0.00    -0.346 OA
HETATM   17  O   UNL     1       3.275  35.120  58.560  1.00  0.00    -0.346 OA
HETATM   18  C   UNL     1       4.723  33.673  57.399  1.00  0.00     0.042 A 
HETATM   19  C   UNL     1       2.115  35.120  59.401  1.00  0.00     0.202 C 
HETATM   20  C   UNL     1       2.345  34.264  60.635  1.00  0.00     0.202 C 
HETATM   21  C   UNL     1       5.278  32.408  57.184  1.00  0.00     0.032 A 
ENDBRANCH   9  12
ENDBRANCH   7   8
ENDBRANCH   6   7
ENDBRANCH   2   6
BRANCH   1  22
HETATM   22  C   UNL     1       6.958  25.239  54.440  1.00  0.00     0.043 A 
HETATM   23  C   UNL     1       7.597  25.588  53.243  1.00  0.00     0.030 A 
HETATM   24  C   UNL     1       6.870  25.636  52.050  1.00  0.00     0.002 A 
HETATM   25  C   UNL     1       5.508  25.339  52.043  1.00  0.00     0.000 A 
HETATM   26  C   UNL     1       4.867  24.993  53.230  1.00  0.00     0.002 A 
HETATM   27  C   UNL     1       5.586  24.943  54.426  1.00  0.00     0.030 A 
ENDBRANCH   1  22
BRANCH   5  28
HETATM   28  C   UNL     1       8.379  22.675  55.680  1.00  0.00     0.045 A 
HETATM   29  C   UNL     1       8.318  21.541  56.506  1.00  0.00     0.079 A 
HETATM   30  C   UNL     1       8.460  20.257  55.982  1.00  0.00     0.037 A 
HETATM   31  C   UNL     1       8.702  20.087  54.621  1.00  0.00     0.003 A 
HETATM   32  C   UNL     1       8.805  21.201  53.789  1.00  0.00     0.001 A 
HETATM   33  C   UNL     1       8.651  22.488  54.315  1.00  0.00     0.018 A 
BRANCH  29  34
HETATM   34  O   UNL     1       8.122  21.625  57.860  1.00  0.00    -0.360 OA
HETATM   35  H   UNL     1       8.463  22.491  58.163  1.00  0.00     0.217 HD
ENDBRANCH  29  34
ENDBRANCH   5  28
TORSDOF 7
ENDMDL
MODEL 8
REMARK VINA RESULT:      -9.8      4.128      8.331
REMARK  7 active torsions:
REMARK  status: ('A' for Active; 'I' for Inactive)
REMARK    1  A    between atoms: C_4  and  N_5 
REMARK    2  A    between atoms: C_6  and  S_7 
REMARK    3  A    between atoms: S_7  and  C_8 
REMARK    4  A    between atoms: C_8  and  C_9 
REMARK       I    between atoms: C_9  and  N_10 
REMARK    5  A    between atoms: N_10  and  C_11 
REMARK    6  A    between atoms: C_24  and  C_25 
REMARK    7  A    between atoms: C_26  and  O_27 
ROOT
HETATM    1  N   UNL     1       6.627  28.024  56.625  1.00  0.00    -0.271 N 
HETATM    2  C   UNL     1       5.391  28.600  56.890  1.00  0.00     0.197 A 
HETATM    3  N   UNL     1       4.429  27.733  56.670  1.00  0.00    -0.122 NA
HETATM    4  N   UNL     1       4.998  26.558  56.293  1.00  0.00    -0.128 NA
HETATM    5  C   UNL     1       6.313  26.694  56.330  1.00  0.00     0.172 A 
ENDROOT
BRANCH   2   6
HETATM    6  S   UNL     1       5.079  30.268  57.278  1.00  0.00    -0.080 SA
BRANCH   6   7
HETATM    7  C   UNL     1       5.190  30.993  55.609  1.00  0.00     0.185 C 
BRANCH   7   8
HETATM    8  C   UNL     1       4.592  30.098  54.537  1.00  0.00     0.231 C 
HETATM    9  N   UNL     1       5.529  29.377  53.815  1.00  0.00    -0.326 N 
HETATM   10  H   UNL     1       6.451  29.314  54.230  1.00  0.00     0.169 HD
HETATM   11  O   UNL     1       3.383  30.122  54.317  1.00  0.00    -0.272 OA
BRANCH   9  12
HETATM   12  C   UNL     1       5.321  28.661  52.619  1.00  0.00     0.037 A 
HETATM   13  C   UNL     1       5.263  29.259  51.356  1.00  0.00     0.069 A 
HETATM   14  C   UNL     1       5.113  28.473  50.211  1.00  0.00     0.104 A 
HETATM   15  C   UNL     1       4.977  27.087  50.319  1.00  0.00     0.102 A 
HETATM   16  O   UNL     1       5.113  29.132  49.007  1.00  0.00    -0.346 OA
HETATM   17  O   UNL     1       4.795  26.260  49.241  1.00  0.00    -0.346 OA
HETATM   18  C   UNL     1       5.041  26.482  51.570  1.00  0.00     0.042 A 
HETATM   19  C   UNL     1       4.438  27.002  48.067  1.00  0.00     0.202 C 
HETATM   20  C   UNL     1       5.323  28.229  47.917  1.00  0.00     0.202 C 
HETATM   21  C   UNL     1       5.219  27.266  52.715  1.00  0.00     0.032 A 
ENDBRANCH   9  12
ENDBRANCH   7   8
ENDBRANCH   6   7
ENDBRANCH   2   6
BRANCH   1  22
HETATM   22  C   UNL     1       7.915  28.632  56.594  1.00  0.00     0.043 A 
HETATM   23  C   UNL     1       8.584  28.844  55.382  1.00  0.00     0.030 A 
HETATM   24  C   UNL     1       9.837  29.462  55.373  1.00  0.00     0.002 A 
HETATM   25  C   UNL     1      10.429  29.870  56.567  1.00  0.00     0.000 A 
HETATM   26  C   UNL     1       9.770  29.660  57.776  1.00  0.00     0.002 A 
HETATM   27  C   UNL     1       8.517  29.043  57.793  1.00  0.00     0.030 A 
ENDBRANCH   1  22
BRANCH   5  28
HETATM   28  C   UNL     1       7.223  25.560  56.130  1.00  0.00     0.045 A 
HETATM   29  C   UNL     1       7.965  25.051  57.208  1.00  0.00     0.079 A 
HETATM   30  C   UNL     1       8.836  23.975  57.040  1.00  0.00     0.037 A 
HETATM   31  C   UNL     1       9.005  23.410  55.778  1.00  0.00     0.003 A 
HETATM   32  C   UNL     1       8.306  23.925  54.688  1.00  0.00     0.001 A 
HETATM   33  C   UNL     1       7.425  24.998  54.861  1.00  0.00     0.018 A 
BRANCH  29  34
HETATM   34  O   UNL     1       7.886  25.575  58.472  1.00  0.00    -0.360 OA
HETATM   35  H   UNL     1       8.469  25.049  59.056  1.00  0.00     0.217 HD
ENDBRANCH  29  34
ENDBRANCH   5  28
TORSDOF 7
ENDMDL
MODEL 9
REMARK VINA RESULT:      -9.6      2.569     11.073
REMARK  7 active torsions:
REMARK  status: ('A' for Active; 'I' for Inactive)
REMARK    1  A    between atoms: C_4  and  N_5 
REMARK    2  A    between atoms: C_6  and  S_7 
REMARK    3  A    between atoms: S_7  and  C_8 
REMARK    4  A    between atoms: C_8  and  C_9 
REMARK       I    between atoms: C_9  and  N_10 
REMARK    5  A    between atoms: N_10  and  C_11 
REMARK    6  A    between atoms: C_24  and  C_25 
REMARK    7  A    between atoms: C_26  and  O_27 
ROOT
HETATM    1  N   UNL     1       5.826  32.317  60.063  1.00  0.00    -0.271 N 
HETATM    2  C   UNL     1       5.352  31.901  58.825  1.00  0.00     0.197 A 
HETATM    3  N   UNL     1       4.088  32.232  58.688  1.00  0.00    -0.122 NA
HETATM    4  N   UNL     1       3.703  32.902  59.806  1.00  0.00    -0.128 NA
HETATM    5  C   UNL     1       4.749  33.025  60.606  1.00  0.00     0.172 A 
ENDROOT
BRANCH   2   6
HETATM    6  S   UNL     1       6.197  30.922  57.660  1.00  0.00    -0.080 SA
BRANCH   6   7
HETATM    7  C   UNL     1       4.919  29.662  57.341  1.00  0.00     0.185 C 
BRANCH   7   8
HETATM    8  C   UNL     1       5.437  28.491  56.522  1.00  0.00     0.231 C 
HETATM    9  N   UNL     1       5.829  27.400  57.281  1.00  0.00    -0.326 N 
HETATM   10  H   UNL     1       5.495  27.386  58.237  1.00  0.00     0.169 HD
HETATM   11  O   UNL     1       5.560  28.597  55.304  1.00  0.00    -0.272 OA
BRANCH   9  12
HETATM   12  C   UNL     1       6.565  26.278  56.849  1.00  0.00     0.037 A 
HETATM   13  C   UNL     1       6.195  25.477  55.764  1.00  0.00     0.069 A 
HETATM   14  C   UNL     1       7.010  24.416  55.362  1.00  0.00     0.104 A 
HETATM   15  C   UNL     1       8.179  24.119  56.066  1.00  0.00     0.102 A 
HETATM   16  O   UNL     1       6.599  23.708  54.260  1.00  0.00    -0.346 OA
HETATM   17  O   UNL     1       9.007  23.074  55.745  1.00  0.00    -0.346 OA
HETATM   18  C   UNL     1       8.560  24.914  57.141  1.00  0.00     0.042 A 
HETATM   19  C   UNL     1       8.370  22.160  54.843  1.00  0.00     0.202 C 
HETATM   20  C   UNL     1       7.661  22.910  53.728  1.00  0.00     0.202 C 
HETATM   21  C   UNL     1       7.759  25.994  57.528  1.00  0.00     0.032 A 
ENDBRANCH   9  12
ENDBRANCH   7   8
ENDBRANCH   6   7
ENDBRANCH   2   6
BRANCH   1  22
HETATM   22  C   UNL     1       7.082  32.051  60.681  1.00  0.00     0.043 A 
HETATM   23  C   UNL     1       7.151  31.437  61.938  1.00  0.00     0.030 A 
HETATM   24  C   UNL     1       8.393  31.165  62.516  1.00  0.00     0.002 A 
HETATM   25  C   UNL     1       9.569  31.503  61.848  1.00  0.00     0.000 A 
HETATM   26  C   UNL     1       9.507  32.116  60.599  1.00  0.00     0.002 A 
HETATM   27  C   UNL     1       8.269  32.391  60.015  1.00  0.00     0.030 A 
ENDBRANCH   1  22
BRANCH   5  28
HETATM   28  C   UNL     1       4.710  33.837  61.827  1.00  0.00     0.045 A 
HETATM   29  C   UNL     1       3.733  33.595  62.807  1.00  0.00     0.079 A 
HETATM   30  C   UNL     1       3.677  34.355  63.974  1.00  0.00     0.037 A 
HETATM   31  C   UNL     1       4.581  35.398  64.166  1.00  0.00     0.003 A 
HETATM   32  C   UNL     1       5.534  35.680  63.189  1.00  0.00     0.001 A 
HETATM   33  C   UNL     1       5.595  34.909  62.023  1.00  0.00     0.018 A 
BRANCH  29  34
HETATM   34  O   UNL     1       2.784  32.615  62.676  1.00  0.00    -0.360 OA
HETATM   35  H   UNL     1       3.228  31.803  62.355  1.00  0.00     0.217 HD
ENDBRANCH  29  34
ENDBRANCH   5  28
TORSDOF 7
ENDMDL
MODEL 10
REMARK VINA RESULT:      -9.5      2.971      4.745
REMARK  7 active torsions:
REMARK  status: ('A' for Active; 'I' for Inactive)
REMARK    1  A    between atoms: C_4  and  N_5 
REMARK    2  A    between atoms: C_6  and  S_7 
REMARK    3  A    between atoms: S_7  and  C_8 
REMARK    4  A    between atoms: C_8  and  C_9 
REMARK       I    between atoms: C_9  and  N_10 
REMARK    5  A    between atoms: N_10  and  C_11 
REMARK    6  A    between atoms: C_24  and  C_25 
REMARK    7  A    between atoms: C_26  and  O_27 
ROOT
HETATM    1  N   UNL     1       5.988  29.191  55.740  1.00  0.00    -0.271 N 
HETATM    2  C   UNL     1       5.014  30.139  55.453  1.00  0.00     0.197 A 
HETATM    3  N   UNL     1       4.098  29.624  54.665  1.00  0.00    -0.122 NA
HETATM    4  N   UNL     1       4.416  28.322  54.440  1.00  0.00    -0.128 NA
HETATM    5  C   UNL     1       5.504  28.029  55.133  1.00  0.00     0.172 A 
ENDROOT
BRANCH   2   6
HETATM    6  S   UNL     1       5.039  31.824  55.887  1.00  0.00    -0.080 SA
BRANCH   6   7
HETATM    7  C   UNL     1       4.218  31.731  57.512  1.00  0.00     0.185 C 
BRANCH   7   8
HETATM    8  C   UNL     1       4.984  32.462  58.602  1.00  0.00     0.231 C 
HETATM    9  N   UNL     1       5.148  31.730  59.766  1.00  0.00    -0.326 N 
HETATM   10  H   UNL     1       4.987  30.733  59.685  1.00  0.00     0.169 HD
HETATM   11  O   UNL     1       5.324  33.632  58.438  1.00  0.00    -0.272 OA
BRANCH   9  12
HETATM   12  C   UNL     1       5.587  32.202  61.019  1.00  0.00     0.037 A 
HETATM   13  C   UNL     1       4.732  32.712  62.001  1.00  0.00     0.069 A 
HETATM   14  C   UNL     1       5.240  33.106  63.241  1.00  0.00     0.104 A 
HETATM   15  C   UNL     1       6.610  33.034  63.498  1.00  0.00     0.102 A 
HETATM   16  O   UNL     1       4.328  33.551  64.166  1.00  0.00    -0.346 OA
HETATM   17  O   UNL     1       7.179  33.432  64.681  1.00  0.00    -0.346 OA
HETATM   18  C   UNL     1       7.469  32.520  62.532  1.00  0.00     0.042 A 
HETATM   19  C   UNL     1       6.266  34.215  65.461  1.00  0.00     0.202 C 
HETATM   20  C   UNL     1       4.889  33.573  65.482  1.00  0.00     0.202 C 
HETATM   21  C   UNL     1       6.958  32.100  61.299  1.00  0.00     0.032 A 
ENDBRANCH   9  12
ENDBRANCH   7   8
ENDBRANCH   6   7
ENDBRANCH   2   6
BRANCH   1  22
HETATM   22  C   UNL     1       7.223  29.352  56.432  1.00  0.00     0.043 A 
HETATM   23  C   UNL     1       8.443  29.332  55.744  1.00  0.00     0.030 A 
HETATM   24  C   UNL     1       9.641  29.513  56.440  1.00  0.00     0.002 A 
HETATM   25  C   UNL     1       9.630  29.713  57.819  1.00  0.00     0.000 A 
HETATM   26  C   UNL     1       8.421  29.731  58.510  1.00  0.00     0.002 A 
HETATM   27  C   UNL     1       7.220  29.551  57.821  1.00  0.00     0.030 A 
ENDBRANCH   1  22
BRANCH   5  28
HETATM   28  C   UNL     1       6.022  26.659  55.233  1.00  0.00     0.045 A 
HETATM   29  C   UNL     1       5.525  25.785  56.213  1.00  0.00     0.079 A 
HETATM   30  C   UNL     1       6.003  24.480  56.327  1.00  0.00     0.037 A 
HETATM   31  C   UNL     1       7.015  24.037  55.479  1.00  0.00     0.003 A 
HETATM   32  C   UNL     1       7.549  24.900  54.523  1.00  0.00     0.001 A 
HETATM   33  C   UNL     1       7.060  26.206  54.405  1.00  0.00     0.018 A 
BRANCH  29  34
HETATM   34  O   UNL     1       4.558  26.156  57.111  1.00  0.00    -0.360 OA
HETATM   35  H   UNL     1       3.685  25.955  56.717  1.00  0.00     0.217 HD
ENDBRANCH  29  34
ENDBRANCH   5  28
TORSDOF 7
ENDMDL
