MODEL 1
REMARK VINA RESULT:      -8.0      0.000      0.000
REMARK  8 active torsions:
REMARK  status: ('A' for Active; 'I' for Inactive)
REMARK    1  A    between atoms: C_2  and  O_3 
REMARK    2  A    between atoms: O_3  and  C_4 
REMARK    3  A    between atoms: C_5  and  O_6 
REMARK    4  A    between atoms: O_6  and  C_7 
REMARK       I    between atoms: C_7  and  N_8 
REMARK    5  A    between atoms: C_18  and  C_19 
REMARK    6  A    between atoms: C_23  and  N_24 
REMARK    7  A    between atoms: C_31  and  C_32 
REMARK    8  A    between atoms: C_35  and  O_36 
ROOT
HETATM    1  C   UNL     1       3.788  30.025  53.437  1.00  0.00     0.106 A 
HETATM    2  C   UNL     1       3.857  30.879  54.707  1.00  0.00     0.081 A 
HETATM    3  C   UNL     1       3.498  30.238  55.929  1.00  0.00     0.100 C 
HETATM    4  N   UNL     1       3.203  29.695  56.913  1.00  0.00    -0.191 NA
HETATM    5  C   UNL     1       4.168  32.203  54.696  1.00  0.00     0.140 A 
HETATM    6  O   UNL     1       4.461  32.889  53.505  1.00  0.00    -0.279 OA
HETATM    7  C   UNL     1       4.357  32.191  52.382  1.00  0.00     0.175 A 
HETATM    8  C   UNL     1       4.045  30.864  52.230  1.00  0.00     0.040 A 
HETATM    9  N   UNL     1       4.564  32.693  51.140  1.00  0.00    -0.256 N 
HETATM   10  H   UNL     1       4.813  33.640  50.879  1.00  0.00     0.191 HD
HETATM   11  N   UNL     1       4.421  31.767  50.175  1.00  0.00    -0.172 NA
HETATM   12  C   UNL     1       4.079  30.638  50.825  1.00  0.00     0.099 A 
ENDROOT
BRANCH   1  13
HETATM   13  C   UNL     1       4.786  28.867  53.440  1.00  0.00    -0.040 A 
HETATM   14  C   UNL     1       4.491  27.581  52.950  1.00  0.00     0.030 A 
HETATM   15  C   UNL     1       5.424  26.549  53.054  1.00  0.00     0.048 A 
HETATM   16  C   UNL     1       6.685  26.804  53.593  1.00  0.00     0.131 A 
HETATM   17 BR   UNL     1       4.933  24.818  52.454  1.00  0.00    -0.048 Br
HETATM   18  C   UNL     1       7.059  28.101  53.967  1.00  0.00     0.104 A 
HETATM   19  C   UNL     1       6.093  29.110  53.926  1.00  0.00     0.048 A 
BRANCH  16  20
HETATM   20  O   UNL     1       7.602  25.753  53.710  1.00  0.00    -0.257 OA
BRANCH  20  21
HETATM   21  C   UNL     1       7.405  25.003  54.865  1.00  0.00     0.368 C 
HETATM   22  N   UNL     1       7.748  23.672  54.694  1.00  0.00    -0.324 N 
HETATM   23  C   UNL     1       7.837  22.806  55.867  1.00  0.00     0.154 C 
HETATM   24  C   UNL     1       8.378  23.149  53.485  1.00  0.00     0.154 C 
HETATM   25  C   UNL     1       7.466  21.362  55.523  1.00  0.00     0.187 C 
HETATM   26  O   UNL     1       8.231  20.883  54.406  1.00  0.00    -0.388 OA
HETATM   27  C   UNL     1       7.978  21.688  53.244  1.00  0.00     0.187 C 
HETATM   28  O   UNL     1       6.957  25.443  55.920  1.00  0.00    -0.238 OA
ENDBRANCH  20  21
ENDBRANCH  16  20
BRANCH  18  29
HETATM   29  O   UNL     1       8.355  28.266  54.371  1.00  0.00    -0.349 OA
BRANCH  29  30
HETATM   30  C   UNL     1       8.624  29.086  55.509  1.00  0.00     0.171 C 
HETATM   31  C   UNL     1       8.578  28.287  56.802  1.00  0.00     0.034 C 
ENDBRANCH  29  30
ENDBRANCH  18  29
ENDBRANCH   1  13
BRANCH   5  32
HETATM   32  N   UNL     1       4.222  33.021  55.802  1.00  0.00    -0.282 NA
HETATM   33  H   UNL     1       5.028  32.893  56.409  1.00  0.00     0.126 HD
HETATM   34  H   UNL     1       4.049  33.996  55.568  1.00  0.00     0.126 HD
ENDBRANCH   5  32
BRANCH  12  35
HETATM   35  C   UNL     1       3.861  29.393  50.094  1.00  0.00    -0.005 A 
HETATM   36  C   UNL     1       4.953  28.594  49.737  1.00  0.00     0.016 A 
HETATM   37  C   UNL     1       4.756  27.388  49.060  1.00  0.00     0.037 A 
HETATM   38  C   UNL     1       3.469  26.960  48.730  1.00  0.00     0.068 A 
HETATM   39  C   UNL     1       2.377  27.761  49.068  1.00  0.00     0.037 A 
HETATM   40  C   UNL     1       2.572  28.971  49.745  1.00  0.00     0.016 A 
BRANCH  38  41
HETATM   41  O   UNL     1       3.415  25.766  48.065  1.00  0.00    -0.356 OA
HETATM   42  C   UNL     1       2.605  25.725  46.898  1.00  0.00     0.210 C 
ENDBRANCH  38  41
ENDBRANCH  12  35
TORSDOF 8
ENDMDL
MODEL 2
REMARK VINA RESULT:      -7.9      5.370      8.278
REMARK  8 active torsions:
REMARK  status: ('A' for Active; 'I' for Inactive)
REMARK    1  A    between atoms: C_2  and  O_3 
REMARK    2  A    between atoms: O_3  and  C_4 
REMARK    3  A    between atoms: C_5  and  O_6 
REMARK    4  A    between atoms: O_6  and  C_7 
REMARK       I    between atoms: C_7  and  N_8 
REMARK    5  A    between atoms: C_18  and  C_19 
REMARK    6  A    between atoms: C_23  and  N_24 
REMARK    7  A    between atoms: C_31  and  C_32 
REMARK    8  A    between atoms: C_35  and  O_36 
ROOT
HETATM    1  C   UNL     1       4.344  33.234  61.212  1.00  0.00     0.106 A 
HETATM    2  C   UNL     1       4.837  32.858  62.613  1.00  0.00     0.081 A 
HETATM    3  C   UNL     1       4.660  31.499  63.010  1.00  0.00     0.100 C 
HETATM    4  N   UNL     1       4.509  30.389  63.311  1.00  0.00    -0.191 NA
HETATM    5  C   UNL     1       5.353  33.764  63.487  1.00  0.00     0.140 A 
HETATM    6  O   UNL     1       5.480  35.124  63.160  1.00  0.00    -0.279 OA
HETATM    7  C   UNL     1       5.012  35.492  61.974  1.00  0.00     0.175 A 
HETATM    8  C   UNL     1       4.458  34.706  60.997  1.00  0.00     0.040 A 
HETATM    9  N   UNL     1       5.015  36.764  61.505  1.00  0.00    -0.256 N 
HETATM   10  H   UNL     1       5.353  37.602  61.964  1.00  0.00     0.191 HD
HETATM   11  N   UNL     1       4.507  36.860  60.264  1.00  0.00    -0.172 NA
HETATM   12  C   UNL     1       4.138  35.606  59.941  1.00  0.00     0.099 A 
ENDROOT
BRANCH   1  13
HETATM   13  C   UNL     1       5.111  32.523  60.097  1.00  0.00    -0.040 A 
HETATM   14  C   UNL     1       4.488  31.831  59.041  1.00  0.00     0.030 A 
HETATM   15  C   UNL     1       5.249  31.139  58.098  1.00  0.00     0.048 A 
HETATM   16  C   UNL     1       6.642  31.180  58.164  1.00  0.00     0.131 A 
HETATM   17 BR   UNL     1       4.348  30.154  56.750  1.00  0.00    -0.048 Br
HETATM   18  C   UNL     1       7.294  31.968  59.121  1.00  0.00     0.104 A 
HETATM   19  C   UNL     1       6.523  32.597  60.103  1.00  0.00     0.048 A 
BRANCH  16  20
HETATM   20  O   UNL     1       7.391  30.463  57.224  1.00  0.00    -0.257 OA
BRANCH  20  21
HETATM   21  C   UNL     1       7.689  29.174  57.655  1.00  0.00     0.368 C 
HETATM   22  N   UNL     1       7.619  28.246  56.629  1.00  0.00    -0.324 N 
HETATM   23  C   UNL     1       8.140  26.900  56.853  1.00  0.00     0.154 C 
HETATM   24  C   UNL     1       7.398  28.603  55.230  1.00  0.00     0.154 C 
HETATM   25  C   UNL     1       7.366  25.860  56.040  1.00  0.00     0.187 C 
HETATM   26  O   UNL     1       7.314  26.223  54.651  1.00  0.00    -0.388 OA
HETATM   27  C   UNL     1       6.652  27.487  54.489  1.00  0.00     0.187 C 
HETATM   28  O   UNL     1       7.963  28.866  58.812  1.00  0.00    -0.238 OA
ENDBRANCH  20  21
ENDBRANCH  16  20
BRANCH  18  29
HETATM   29  O   UNL     1       8.657  32.034  59.026  1.00  0.00    -0.349 OA
BRANCH  29  30
HETATM   30  C   UNL     1       9.424  32.223  60.216  1.00  0.00     0.171 C 
HETATM   31  C   UNL     1       9.426  30.977  61.087  1.00  0.00     0.034 C 
ENDBRANCH  29  30
ENDBRANCH  18  29
ENDBRANCH   1  13
BRANCH   5  32
HETATM   32  N   UNL     1       5.789  33.485  64.762  1.00  0.00    -0.282 NA
HETATM   33  H   UNL     1       6.184  34.268  65.277  1.00  0.00     0.126 HD
HETATM   34  H   UNL     1       5.100  32.962  65.299  1.00  0.00     0.126 HD
ENDBRANCH   5  32
BRANCH  12  35
HETATM   35  C   UNL     1       3.556  35.312  58.634  1.00  0.00    -0.005 A 
HETATM   36  C   UNL     1       2.167  35.337  58.468  1.00  0.00     0.016 A 
HETATM   37  C   UNL     1       1.599  35.085  57.217  1.00  0.00     0.037 A 
HETATM   38  C   UNL     1       2.407  34.804  56.114  1.00  0.00     0.068 A 
HETATM   39  C   UNL     1       3.792  34.760  56.277  1.00  0.00     0.037 A 
HETATM   40  C   UNL     1       4.364  35.012  57.531  1.00  0.00     0.016 A 
BRANCH  38  41
HETATM   41  O   UNL     1       1.728  34.571  54.950  1.00  0.00    -0.356 OA
HETATM   42  C   UNL     1       1.239  33.251  54.753  1.00  0.00     0.210 C 
ENDBRANCH  38  41
ENDBRANCH  12  35
TORSDOF 8
ENDMDL
MODEL 3
REMARK VINA RESULT:      -7.8      5.707     11.251
REMARK  8 active torsions:
REMARK  status: ('A' for Active; 'I' for Inactive)
REMARK    1  A    between atoms: C_2  and  O_3 
REMARK    2  A    between atoms: O_3  and  C_4 
REMARK    3  A    between atoms: C_5  and  O_6 
REMARK    4  A    between atoms: O_6  and  C_7 
REMARK       I    between atoms: C_7  and  N_8 
REMARK    5  A    between atoms: C_18  and  C_19 
REMARK    6  A    between atoms: C_23  and  N_24 
REMARK    7  A    between atoms: C_31  and  C_32 
REMARK    8  A    between atoms: C_35  and  O_36 
ROOT
HETATM    1  C   UNL     1       6.899  29.794  57.721  1.00  0.00     0.106 A 
HETATM    2  C   UNL     1       6.879  29.053  56.380  1.00  0.00     0.081 A 
HETATM    3  C   UNL     1       5.695  28.321  56.071  1.00  0.00     0.100 C 
HETATM    4  N   UNL     1       4.720  27.734  55.839  1.00  0.00    -0.191 NA
HETATM    5  C   UNL     1       7.946  29.013  55.538  1.00  0.00     0.140 A 
HETATM    6  O   UNL     1       9.155  29.663  55.837  1.00  0.00    -0.279 OA
HETATM    7  C   UNL     1       9.224  30.268  57.016  1.00  0.00     0.175 A 
HETATM    8  C   UNL     1       8.246  30.385  57.970  1.00  0.00     0.040 A 
HETATM    9  N   UNL     1      10.318  30.912  57.489  1.00  0.00    -0.256 N 
HETATM   10  H   UNL     1      11.222  31.026  57.045  1.00  0.00     0.191 HD
HETATM   11  N   UNL     1      10.114  31.462  58.699  1.00  0.00    -0.172 NA
HETATM   12  C   UNL     1       8.849  31.130  59.023  1.00  0.00     0.099 A 
ENDROOT
BRANCH   1  13
HETATM   13  C   UNL     1       5.859  30.912  57.802  1.00  0.00    -0.040 A 
HETATM   14  C   UNL     1       5.718  31.918  56.828  1.00  0.00     0.030 A 
HETATM   15  C   UNL     1       4.799  32.953  57.002  1.00  0.00     0.048 A 
HETATM   16  C   UNL     1       3.967  32.961  58.123  1.00  0.00     0.131 A 
HETATM   17 BR   UNL     1       4.718  34.325  55.696  1.00  0.00    -0.048 Br
HETATM   18  C   UNL     1       3.989  31.906  59.043  1.00  0.00     0.104 A 
HETATM   19  C   UNL     1       4.963  30.914  58.897  1.00  0.00     0.048 A 
BRANCH  16  20
HETATM   20  O   UNL     1       3.065  34.018  58.295  1.00  0.00    -0.257 OA
BRANCH  20  21
HETATM   21  C   UNL     1       3.649  35.118  58.915  1.00  0.00     0.368 C 
HETATM   22  N   UNL     1       3.196  36.319  58.394  1.00  0.00    -0.324 N 
HETATM   23  C   UNL     1       3.516  37.561  59.092  1.00  0.00     0.154 C 
HETATM   24  C   UNL     1       2.124  36.418  57.406  1.00  0.00     0.154 C 
HETATM   25  C   UNL     1       3.650  38.731  58.115  1.00  0.00     0.187 C 
HETATM   26  O   UNL     1       2.492  38.837  57.273  1.00  0.00    -0.388 OA
HETATM   27  C   UNL     1       2.323  37.638  56.500  1.00  0.00     0.187 C 
HETATM   28  O   UNL     1       4.489  35.056  59.809  1.00  0.00    -0.238 OA
ENDBRANCH  20  21
ENDBRANCH  16  20
BRANCH  18  29
HETATM   29  O   UNL     1       3.053  31.951  60.040  1.00  0.00    -0.349 OA
BRANCH  29  30
HETATM   30  C   UNL     1       3.488  31.883  61.398  1.00  0.00     0.171 C 
HETATM   31  C   UNL     1       3.146  33.152  62.163  1.00  0.00     0.034 C 
ENDBRANCH  29  30
ENDBRANCH  18  29
ENDBRANCH   1  13
BRANCH   5  32
HETATM   32  N   UNL     1       7.990  28.345  54.335  1.00  0.00    -0.282 NA
HETATM   33  H   UNL     1       7.211  27.718  54.148  1.00  0.00     0.126 HD
HETATM   34  H   UNL     1       8.196  28.968  53.556  1.00  0.00     0.126 HD
ENDBRANCH   5  32
BRANCH  12  35
HETATM   35  C   UNL     1       8.258  31.580  60.280  1.00  0.00    -0.005 A 
HETATM   36  C   UNL     1       7.503  32.759  60.311  1.00  0.00     0.016 A 
HETATM   37  C   UNL     1       6.909  33.187  61.501  1.00  0.00     0.037 A 
HETATM   38  C   UNL     1       7.059  32.448  62.675  1.00  0.00     0.068 A 
HETATM   39  C   UNL     1       7.825  31.282  62.655  1.00  0.00     0.037 A 
HETATM   40  C   UNL     1       8.422  30.851  61.463  1.00  0.00     0.016 A 
BRANCH  38  41
HETATM   41  O   UNL     1       6.433  32.978  63.769  1.00  0.00    -0.356 OA
HETATM   42  C   UNL     1       7.271  33.433  64.824  1.00  0.00     0.210 C 
ENDBRANCH  38  41
ENDBRANCH  12  35
TORSDOF 8
ENDMDL
MODEL 4
REMARK VINA RESULT:      -7.8      4.985      9.154
REMARK  8 active torsions:
REMARK  status: ('A' for Active; 'I' for Inactive)
REMARK    1  A    between atoms: C_2  and  O_3 
REMARK    2  A    between atoms: O_3  and  C_4 
REMARK    3  A    between atoms: C_5  and  O_6 
REMARK    4  A    between atoms: O_6  and  C_7 
REMARK       I    between atoms: C_7  and  N_8 
REMARK    5  A    between atoms: C_18  and  C_19 
REMARK    6  A    between atoms: C_23  and  N_24 
REMARK    7  A    between atoms: C_31  and  C_32 
REMARK    8  A    between atoms: C_35  and  O_36 
ROOT
HETATM    1  C   UNL     1       4.496  33.918  60.526  1.00  0.00     0.106 A 
HETATM    2  C   UNL     1       3.164  34.501  61.012  1.00  0.00     0.081 A 
HETATM    3  C   UNL     1       2.631  35.590  60.262  1.00  0.00     0.100 C 
HETATM    4  N   UNL     1       2.213  36.474  59.636  1.00  0.00    -0.191 NA
HETATM    5  C   UNL     1       2.536  34.075  62.141  1.00  0.00     0.140 A 
HETATM    6  O   UNL     1       3.063  33.052  62.946  1.00  0.00    -0.279 OA
HETATM    7  C   UNL     1       4.242  32.564  62.582  1.00  0.00     0.175 A 
HETATM    8  C   UNL     1       4.999  32.895  61.488  1.00  0.00     0.040 A 
HETATM    9  N   UNL     1       4.920  31.602  63.256  1.00  0.00    -0.256 N 
HETATM   10  H   UNL     1       4.653  31.127  64.110  1.00  0.00     0.191 HD
HETATM   11  N   UNL     1       6.078  31.268  62.659  1.00  0.00    -0.172 NA
HETATM   12  C   UNL     1       6.155  32.070  61.579  1.00  0.00     0.099 A 
ENDROOT
BRANCH   1  13
HETATM   13  C   UNL     1       4.397  33.273  59.143  1.00  0.00    -0.040 A 
HETATM   14  C   UNL     1       3.718  32.066  58.893  1.00  0.00     0.030 A 
HETATM   15  C   UNL     1       3.731  31.493  57.621  1.00  0.00     0.048 A 
HETATM   16  C   UNL     1       4.372  32.152  56.570  1.00  0.00     0.131 A 
HETATM   17 BR   UNL     1       2.872  29.821  57.368  1.00  0.00    -0.048 Br
HETATM   18  C   UNL     1       4.941  33.418  56.754  1.00  0.00     0.104 A 
HETATM   19  C   UNL     1       4.985  33.947  58.047  1.00  0.00     0.048 A 
BRANCH  16  20
HETATM   20  O   UNL     1       4.395  31.554  55.304  1.00  0.00    -0.257 OA
BRANCH  20  21
HETATM   21  C   UNL     1       5.240  30.450  55.254  1.00  0.00     0.368 C 
HETATM   22  N   UNL     1       4.916  29.584  54.223  1.00  0.00    -0.324 N 
HETATM   23  C   UNL     1       5.847  28.513  53.878  1.00  0.00     0.154 C 
HETATM   24  C   UNL     1       3.895  29.870  53.218  1.00  0.00     0.154 C 
HETATM   25  C   UNL     1       5.108  27.283  53.345  1.00  0.00     0.187 C 
HETATM   26  O   UNL     1       4.225  27.635  52.269  1.00  0.00    -0.388 OA
HETATM   27  C   UNL     1       3.239  28.578  52.718  1.00  0.00     0.187 C 
HETATM   28  O   UNL     1       6.161  30.235  56.039  1.00  0.00    -0.238 OA
ENDBRANCH  20  21
ENDBRANCH  16  20
BRANCH  18  29
HETATM   29  O   UNL     1       5.437  34.029  55.635  1.00  0.00    -0.349 OA
BRANCH  29  30
HETATM   30  C   UNL     1       4.853  35.258  55.204  1.00  0.00     0.171 C 
HETATM   31  C   UNL     1       5.854  36.402  55.245  1.00  0.00     0.034 C 
ENDBRANCH  29  30
ENDBRANCH  18  29
ENDBRANCH   1  13
BRANCH   5  32
HETATM   32  N   UNL     1       1.353  34.578  62.634  1.00  0.00    -0.282 NA
HETATM   33  H   UNL     1       1.156  34.369  63.610  1.00  0.00     0.126 HD
HETATM   34  H   UNL     1       1.227  35.560  62.404  1.00  0.00     0.126 HD
ENDBRANCH   5  32
BRANCH  12  35
HETATM   35  C   UNL     1       7.286  31.974  60.660  1.00  0.00    -0.005 A 
HETATM   36  C   UNL     1       8.521  32.531  61.014  1.00  0.00     0.016 A 
HETATM   37  C   UNL     1       9.617  32.423  60.155  1.00  0.00     0.037 A 
HETATM   38  C   UNL     1       9.500  31.760  58.932  1.00  0.00     0.068 A 
HETATM   39  C   UNL     1       8.267  31.219  58.566  1.00  0.00     0.037 A 
HETATM   40  C   UNL     1       7.165  31.326  59.425  1.00  0.00     0.016 A 
BRANCH  38  41
HETATM   41  O   UNL     1      10.644  31.730  58.185  1.00  0.00    -0.356 OA
HETATM   42  C   UNL     1      10.871  30.556  57.416  1.00  0.00     0.210 C 
ENDBRANCH  38  41
ENDBRANCH  12  35
TORSDOF 8
ENDMDL
MODEL 5
REMARK VINA RESULT:      -7.7      5.666     10.144
REMARK  8 active torsions:
REMARK  status: ('A' for Active; 'I' for Inactive)
REMARK    1  A    between atoms: C_2  and  O_3 
REMARK    2  A    between atoms: O_3  and  C_4 
REMARK    3  A    between atoms: C_5  and  O_6 
REMARK    4  A    between atoms: O_6  and  C_7 
REMARK       I    between atoms: C_7  and  N_8 
REMARK    5  A    between atoms: C_18  and  C_19 
REMARK    6  A    between atoms: C_23  and  N_24 
REMARK    7  A    between atoms: C_31  and  C_32 
REMARK    8  A    between atoms: C_35  and  O_36 
ROOT
HETATM    1  C   UNL     1       4.556  34.040  60.654  1.00  0.00     0.106 A 
HETATM    2  C   UNL     1       3.256  34.650  61.189  1.00  0.00     0.081 A 
HETATM    3  C   UNL     1       2.794  35.837  60.547  1.00  0.00     0.100 C 
HETATM    4  N   UNL     1       2.436  36.801  60.009  1.00  0.00    -0.191 NA
HETATM    5  C   UNL     1       2.592  34.153  62.267  1.00  0.00     0.140 A 
HETATM    6  O   UNL     1       3.051  33.027  62.970  1.00  0.00    -0.279 OA
HETATM    7  C   UNL     1       4.203  32.508  62.566  1.00  0.00     0.175 A 
HETATM    8  C   UNL     1       4.989  32.900  61.513  1.00  0.00     0.040 A 
HETATM    9  N   UNL     1       4.816  31.447  63.145  1.00  0.00    -0.256 N 
HETATM   10  H   UNL     1       4.513  30.907  63.947  1.00  0.00     0.191 HD
HETATM   11  N   UNL     1       5.959  31.106  62.524  1.00  0.00    -0.172 NA
HETATM   12  C   UNL     1       6.094  32.003  61.528  1.00  0.00     0.099 A 
ENDROOT
BRANCH   1  13
HETATM   13  C   UNL     1       4.434  33.541  59.214  1.00  0.00    -0.040 A 
HETATM   14  C   UNL     1       4.833  34.291  58.092  1.00  0.00     0.030 A 
HETATM   15  C   UNL     1       4.623  33.806  56.801  1.00  0.00     0.048 A 
HETATM   16  C   UNL     1       4.068  32.539  56.617  1.00  0.00     0.131 A 
HETATM   17 BR   UNL     1       5.103  34.903  55.330  1.00  0.00    -0.048 Br
HETATM   18  C   UNL     1       3.784  31.712  57.711  1.00  0.00     0.104 A 
HETATM   19  C   UNL     1       3.930  32.237  58.999  1.00  0.00     0.048 A 
BRANCH  16  20
HETATM   20  O   UNL     1       3.843  32.075  55.316  1.00  0.00    -0.257 OA
BRANCH  20  21
HETATM   21  C   UNL     1       2.616  32.490  54.809  1.00  0.00     0.368 C 
HETATM   22  N   UNL     1       2.681  32.809  53.463  1.00  0.00    -0.324 N 
HETATM   23  C   UNL     1       1.440  33.021  52.723  1.00  0.00     0.154 C 
HETATM   24  C   UNL     1       3.869  32.597  52.640  1.00  0.00     0.154 C 
HETATM   25  C   UNL     1       1.631  34.039  51.597  1.00  0.00     0.187 C 
HETATM   26  O   UNL     1       2.738  33.680  50.755  1.00  0.00    -0.388 OA
HETATM   27  C   UNL     1       3.953  33.639  51.518  1.00  0.00     0.187 C 
HETATM   28  O   UNL     1       1.583  32.592  55.467  1.00  0.00    -0.238 OA
ENDBRANCH  20  21
ENDBRANCH  16  20
BRANCH  18  29
HETATM   29  O   UNL     1       3.355  30.446  57.420  1.00  0.00    -0.349 OA
BRANCH  29  30
HETATM   30  C   UNL     1       4.323  29.405  57.283  1.00  0.00     0.171 C 
HETATM   31  C   UNL     1       4.158  28.653  55.971  1.00  0.00     0.034 C 
ENDBRANCH  29  30
ENDBRANCH  18  29
ENDBRANCH   1  13
BRANCH   5  32
HETATM   32  N   UNL     1       1.435  34.674  62.802  1.00  0.00    -0.282 NA
HETATM   33  H   UNL     1       0.884  35.260  62.180  1.00  0.00     0.126 HD
HETATM   34  H   UNL     1       0.880  33.968  63.280  1.00  0.00     0.126 HD
ENDBRANCH   5  32
BRANCH  12  35
HETATM   35  C   UNL     1       7.227  31.931  60.609  1.00  0.00    -0.005 A 
HETATM   36  C   UNL     1       8.454  32.500  60.971  1.00  0.00     0.016 A 
HETATM   37  C   UNL     1       9.553  32.416  60.112  1.00  0.00     0.037 A 
HETATM   38  C   UNL     1       9.446  31.764  58.883  1.00  0.00     0.068 A 
HETATM   39  C   UNL     1       8.220  31.210  58.509  1.00  0.00     0.037 A 
HETATM   40  C   UNL     1       7.116  31.294  59.368  1.00  0.00     0.016 A 
BRANCH  38  41
HETATM   41  O   UNL     1      10.591  31.756  58.136  1.00  0.00    -0.356 OA
HETATM   42  C   UNL     1      10.866  30.568  57.406  1.00  0.00     0.210 C 
ENDBRANCH  38  41
ENDBRANCH  12  35
TORSDOF 8
ENDMDL
MODEL 6
REMARK VINA RESULT:      -7.6      5.521     10.974
REMARK  8 active torsions:
REMARK  status: ('A' for Active; 'I' for Inactive)
REMARK    1  A    between atoms: C_2  and  O_3 
REMARK    2  A    between atoms: O_3  and  C_4 
REMARK    3  A    between atoms: C_5  and  O_6 
REMARK    4  A    between atoms: O_6  and  C_7 
REMARK       I    between atoms: C_7  and  N_8 
REMARK    5  A    between atoms: C_18  and  C_19 
REMARK    6  A    between atoms: C_23  and  N_24 
REMARK    7  A    between atoms: C_31  and  C_32 
REMARK    8  A    between atoms: C_35  and  O_36 
ROOT
HETATM    1  C   UNL     1       7.269  29.668  57.783  1.00  0.00     0.106 A 
HETATM    2  C   UNL     1       7.164  28.949  56.435  1.00  0.00     0.081 A 
HETATM    3  C   UNL     1       5.995  28.161  56.219  1.00  0.00     0.100 C 
HETATM    4  N   UNL     1       5.035  27.528  56.063  1.00  0.00    -0.191 NA
HETATM    5  C   UNL     1       8.152  28.976  55.500  1.00  0.00     0.140 A 
HETATM    6  O   UNL     1       9.349  29.683  55.702  1.00  0.00    -0.279 OA
HETATM    7  C   UNL     1       9.494  30.272  56.882  1.00  0.00     0.175 A 
HETATM    8  C   UNL     1       8.602  30.324  57.922  1.00  0.00     0.040 A 
HETATM    9  N   UNL     1      10.593  30.965  57.268  1.00  0.00    -0.256 N 
HETATM   10  H   UNL     1      11.446  31.132  56.747  1.00  0.00     0.191 HD
HETATM   11  N   UNL     1      10.472  31.485  58.503  1.00  0.00    -0.172 NA
HETATM   12  C   UNL     1       9.259  31.083  58.931  1.00  0.00     0.099 A 
ENDROOT
BRANCH   1  13
HETATM   13  C   UNL     1       6.186  30.730  57.979  1.00  0.00    -0.040 A 
HETATM   14  C   UNL     1       5.631  31.056  59.231  1.00  0.00     0.030 A 
HETATM   15  C   UNL     1       4.591  31.981  59.329  1.00  0.00     0.048 A 
HETATM   16  C   UNL     1       4.136  32.637  58.185  1.00  0.00     0.131 A 
HETATM   17 BR   UNL     1       3.827  32.311  61.033  1.00  0.00    -0.048 Br
HETATM   18  C   UNL     1       4.755  32.436  56.945  1.00  0.00     0.104 A 
HETATM   19  C   UNL     1       5.746  31.454  56.847  1.00  0.00     0.048 A 
BRANCH  16  20
HETATM   20  O   UNL     1       3.078  33.546  58.296  1.00  0.00    -0.257 OA
BRANCH  20  21
HETATM   21  C   UNL     1       3.516  34.865  58.362  1.00  0.00     0.368 C 
HETATM   22  N   UNL     1       2.819  35.697  57.502  1.00  0.00    -0.324 N 
HETATM   23  C   UNL     1       2.982  37.143  57.626  1.00  0.00     0.154 C 
HETATM   24  C   UNL     1       1.662  35.265  56.721  1.00  0.00     0.154 C 
HETATM   25  C   UNL     1       2.824  37.840  56.273  1.00  0.00     0.187 C 
HETATM   26  O   UNL     1       1.595  37.461  55.635  1.00  0.00    -0.388 OA
HETATM   27  C   UNL     1       1.567  36.044  55.404  1.00  0.00     0.187 C 
HETATM   28  O   UNL     1       4.431  35.266  59.078  1.00  0.00    -0.238 OA
ENDBRANCH  20  21
ENDBRANCH  16  20
BRANCH  18  29
HETATM   29  O   UNL     1       4.312  33.215  55.912  1.00  0.00    -0.349 OA
BRANCH  29  30
HETATM   30  C   UNL     1       3.745  32.582  54.764  1.00  0.00     0.171 C 
HETATM   31  C   UNL     1       2.381  31.983  55.069  1.00  0.00     0.034 C 
ENDBRANCH  29  30
ENDBRANCH  18  29
ENDBRANCH   1  13
BRANCH   5  32
HETATM   32  N   UNL     1       8.120  28.330  54.284  1.00  0.00    -0.282 NA
HETATM   33  H   UNL     1       8.957  27.806  54.040  1.00  0.00     0.126 HD
HETATM   34  H   UNL     1       7.263  27.797  54.154  1.00  0.00     0.126 HD
ENDBRANCH   5  32
BRANCH  12  35
HETATM   35  C   UNL     1       8.762  31.483  60.245  1.00  0.00    -0.005 A 
HETATM   36  C   UNL     1       8.186  32.747  60.416  1.00  0.00     0.016 A 
HETATM   37  C   UNL     1       7.682  33.132  61.660  1.00  0.00     0.037 A 
HETATM   38  C   UNL     1       7.745  32.265  62.752  1.00  0.00     0.068 A 
HETATM   39  C   UNL     1       8.334  31.009  62.592  1.00  0.00     0.037 A 
HETATM   40  C   UNL     1       8.841  30.621  61.345  1.00  0.00     0.016 A 
BRANCH  38  41
HETATM   41  O   UNL     1       7.222  32.764  63.912  1.00  0.00    -0.356 OA
HETATM   42  C   UNL     1       6.396  33.915  63.794  1.00  0.00     0.210 C 
ENDBRANCH  38  41
ENDBRANCH  12  35
TORSDOF 8
ENDMDL
MODEL 7
REMARK VINA RESULT:      -7.4      7.478     13.078
REMARK  8 active torsions:
REMARK  status: ('A' for Active; 'I' for Inactive)
REMARK    1  A    between atoms: C_2  and  O_3 
REMARK    2  A    between atoms: O_3  and  C_4 
REMARK    3  A    between atoms: C_5  and  O_6 
REMARK    4  A    between atoms: O_6  and  C_7 
REMARK       I    between atoms: C_7  and  N_8 
REMARK    5  A    between atoms: C_18  and  C_19 
REMARK    6  A    between atoms: C_23  and  N_24 
REMARK    7  A    between atoms: C_31  and  C_32 
REMARK    8  A    between atoms: C_35  and  O_36 
ROOT
HETATM    1  C   UNL     1       5.004  31.725  58.958  1.00  0.00     0.106 A 
HETATM    2  C   UNL     1       4.940  31.049  57.585  1.00  0.00     0.081 A 
HETATM    3  C   UNL     1       3.640  30.783  57.063  1.00  0.00     0.100 C 
HETATM    4  N   UNL     1       2.572  30.579  56.656  1.00  0.00    -0.191 NA
HETATM    5  C   UNL     1       6.046  30.641  56.906  1.00  0.00     0.140 A 
HETATM    6  O   UNL     1       7.342  30.821  57.417  1.00  0.00    -0.279 OA
HETATM    7  C   UNL     1       7.429  31.354  58.629  1.00  0.00     0.175 A 
HETATM    8  C   UNL     1       6.415  31.802  59.436  1.00  0.00     0.040 A 
HETATM    9  N   UNL     1       8.590  31.569  59.295  1.00  0.00    -0.256 N 
HETATM   10  H   UNL     1       9.535  31.360  58.994  1.00  0.00     0.191 HD
HETATM   11  N   UNL     1       8.401  32.147  60.494  1.00  0.00    -0.172 NA
HETATM   12  C   UNL     1       7.065  32.278  60.610  1.00  0.00     0.099 A 
ENDROOT
BRANCH   1  13
HETATM   13  C   UNL     1       4.418  33.137  58.957  1.00  0.00    -0.040 A 
HETATM   14  C   UNL     1       4.721  34.107  57.983  1.00  0.00     0.030 A 
HETATM   15  C   UNL     1       4.210  35.401  58.085  1.00  0.00     0.048 A 
HETATM   16  C   UNL     1       3.341  35.725  59.128  1.00  0.00     0.131 A 
HETATM   17 BR   UNL     1       4.726  36.685  56.788  1.00  0.00    -0.048 Br
HETATM   18  C   UNL     1       2.914  34.749  60.037  1.00  0.00     0.104 A 
HETATM   19  C   UNL     1       3.488  33.477  59.968  1.00  0.00     0.048 A 
BRANCH  16  20
HETATM   20  O   UNL     1       2.854  37.033  59.229  1.00  0.00    -0.257 OA
BRANCH  20  21
HETATM   21  C   UNL     1       3.651  37.834  60.041  1.00  0.00     0.368 C 
HETATM   22  N   UNL     1       3.130  39.108  60.199  1.00  0.00    -0.324 N 
HETATM   23  C   UNL     1       3.705  39.989  61.212  1.00  0.00     0.154 C 
HETATM   24  C   UNL     1       1.823  39.515  59.687  1.00  0.00     0.154 C 
HETATM   25  C   UNL     1       3.609  41.457  60.792  1.00  0.00     0.187 C 
HETATM   26  O   UNL     1       2.263  41.807  60.434  1.00  0.00    -0.388 OA
HETATM   27  C   UNL     1       1.814  41.006  59.331  1.00  0.00     0.187 C 
HETATM   28  O   UNL     1       4.711  37.482  60.552  1.00  0.00    -0.238 OA
ENDBRANCH  20  21
ENDBRANCH  16  20
BRANCH  18  29
HETATM   29  O   UNL     1       1.971  35.140  60.948  1.00  0.00    -0.349 OA
BRANCH  29  30
HETATM   30  C   UNL     1       2.349  35.274  62.319  1.00  0.00     0.171 C 
HETATM   31  C   UNL     1       1.910  34.074  63.143  1.00  0.00     0.034 C 
ENDBRANCH  29  30
ENDBRANCH  18  29
ENDBRANCH   1  13
BRANCH   5  32
HETATM   32  N   UNL     1       6.044  30.009  55.682  1.00  0.00    -0.282 NA
HETATM   33  H   UNL     1       6.495  29.098  55.654  1.00  0.00     0.126 HD
HETATM   34  H   UNL     1       5.123  30.012  55.249  1.00  0.00     0.126 HD
ENDBRANCH   5  32
BRANCH  12  35
HETATM   35  C   UNL     1       6.477  32.900  61.793  1.00  0.00    -0.005 A 
HETATM   36  C   UNL     1       5.897  32.099  62.784  1.00  0.00     0.016 A 
HETATM   37  C   UNL     1       5.354  32.679  63.933  1.00  0.00     0.037 A 
HETATM   38  C   UNL     1       5.381  34.063  64.112  1.00  0.00     0.068 A 
HETATM   39  C   UNL     1       5.942  34.867  63.119  1.00  0.00     0.037 A 
HETATM   40  C   UNL     1       6.486  34.289  61.965  1.00  0.00     0.016 A 
BRANCH  38  41
HETATM   41  O   UNL     1       4.814  34.502  65.276  1.00  0.00    -0.356 OA
HETATM   42  C   UNL     1       5.513  34.202  66.477  1.00  0.00     0.210 C 
ENDBRANCH  38  41
ENDBRANCH  12  35
TORSDOF 8
ENDMDL
MODEL 8
REMARK VINA RESULT:      -7.4      6.129      9.899
REMARK  8 active torsions:
REMARK  status: ('A' for Active; 'I' for Inactive)
REMARK    1  A    between atoms: C_2  and  O_3 
REMARK    2  A    between atoms: O_3  and  C_4 
REMARK    3  A    between atoms: C_5  and  O_6 
REMARK    4  A    between atoms: O_6  and  C_7 
REMARK       I    between atoms: C_7  and  N_8 
REMARK    5  A    between atoms: C_18  and  C_19 
REMARK    6  A    between atoms: C_23  and  N_24 
REMARK    7  A    between atoms: C_31  and  C_32 
REMARK    8  A    between atoms: C_35  and  O_36 
ROOT
HETATM    1  C   UNL     1       5.729  30.709  56.690  1.00  0.00     0.106 A 
HETATM    2  C   UNL     1       5.728  29.195  56.930  1.00  0.00     0.081 A 
HETATM    3  C   UNL     1       6.855  28.655  57.616  1.00  0.00     0.100 C 
HETATM    4  N   UNL     1       7.781  28.238  58.178  1.00  0.00    -0.191 NA
HETATM    5  C   UNL     1       4.754  28.370  56.460  1.00  0.00     0.140 A 
HETATM    6  O   UNL     1       3.662  28.853  55.720  1.00  0.00    -0.279 OA
HETATM    7  C   UNL     1       3.662  30.151  55.448  1.00  0.00     0.175 A 
HETATM    8  C   UNL     1       4.570  31.102  55.838  1.00  0.00     0.040 A 
HETATM    9  N   UNL     1       2.713  30.786  54.718  1.00  0.00    -0.256 N 
HETATM   10  H   UNL     1       1.891  30.390  54.275  1.00  0.00     0.191 HD
HETATM   11  N   UNL     1       2.935  32.108  54.614  1.00  0.00    -0.172 NA
HETATM   12  C   UNL     1       4.087  32.319  55.279  1.00  0.00     0.099 A 
ENDROOT
BRANCH   1  13
HETATM   13  C   UNL     1       5.674  31.519  57.985  1.00  0.00    -0.040 A 
HETATM   14  C   UNL     1       4.475  31.933  58.595  1.00  0.00     0.030 A 
HETATM   15  C   UNL     1       4.498  32.737  59.735  1.00  0.00     0.048 A 
HETATM   16  C   UNL     1       5.719  33.086  60.314  1.00  0.00     0.131 A 
HETATM   17 BR   UNL     1       2.849  33.333  60.459  1.00  0.00    -0.048 Br
HETATM   18  C   UNL     1       6.924  32.581  59.811  1.00  0.00     0.104 A 
HETATM   19  C   UNL     1       6.893  31.838  58.627  1.00  0.00     0.048 A 
BRANCH  16  20
HETATM   20  O   UNL     1       5.726  33.910  61.445  1.00  0.00    -0.257 OA
BRANCH  20  21
HETATM   21  C   UNL     1       5.570  33.192  62.627  1.00  0.00     0.368 C 
HETATM   22  N   UNL     1       5.100  33.979  63.665  1.00  0.00    -0.324 N 
HETATM   23  C   UNL     1       4.648  33.335  64.895  1.00  0.00     0.154 C 
HETATM   24  C   UNL     1       4.681  35.369  63.499  1.00  0.00     0.154 C 
HETATM   25  C   UNL     1       4.891  34.228  66.113  1.00  0.00     0.187 C 
HETATM   26  O   UNL     1       4.328  35.535  65.918  1.00  0.00    -0.388 OA
HETATM   27  C   UNL     1       4.927  36.173  64.780  1.00  0.00     0.187 C 
HETATM   28  O   UNL     1       5.835  32.000  62.764  1.00  0.00    -0.238 OA
ENDBRANCH  20  21
ENDBRANCH  16  20
BRANCH  18  29
HETATM   29  O   UNL     1       8.053  32.886  60.521  1.00  0.00    -0.349 OA
BRANCH  29  30
HETATM   30  C   UNL     1       9.223  32.089  60.333  1.00  0.00     0.171 C 
HETATM   31  C   UNL     1       9.722  31.504  61.645  1.00  0.00     0.034 C 
ENDBRANCH  29  30
ENDBRANCH  18  29
ENDBRANCH   1  13
BRANCH   5  32
HETATM   32  N   UNL     1       4.715  27.004  56.627  1.00  0.00    -0.282 NA
HETATM   33  H   UNL     1       5.232  26.640  57.424  1.00  0.00     0.126 HD
HETATM   34  H   UNL     1       3.769  26.635  56.564  1.00  0.00     0.126 HD
ENDBRANCH   5  32
BRANCH  12  35
HETATM   35  C   UNL     1       4.641  33.665  55.403  1.00  0.00    -0.005 A 
HETATM   36  C   UNL     1       5.439  34.187  54.378  1.00  0.00     0.016 A 
HETATM   37  C   UNL     1       5.952  35.483  54.472  1.00  0.00     0.037 A 
HETATM   38  C   UNL     1       5.679  36.277  55.587  1.00  0.00     0.068 A 
HETATM   39  C   UNL     1       4.898  35.756  56.620  1.00  0.00     0.037 A 
HETATM   40  C   UNL     1       4.383  34.456  56.529  1.00  0.00     0.016 A 
BRANCH  38  41
HETATM   41  O   UNL     1       6.244  37.521  55.557  1.00  0.00    -0.356 OA
HETATM   42  C   UNL     1       7.495  37.636  54.891  1.00  0.00     0.210 C 
ENDBRANCH  38  41
ENDBRANCH  12  35
TORSDOF 8
ENDMDL
MODEL 9
REMARK VINA RESULT:      -7.1      5.010      9.792
REMARK  8 active torsions:
REMARK  status: ('A' for Active; 'I' for Inactive)
REMARK    1  A    between atoms: C_2  and  O_3 
REMARK    2  A    between atoms: O_3  and  C_4 
REMARK    3  A    between atoms: C_5  and  O_6 
REMARK    4  A    between atoms: O_6  and  C_7 
REMARK       I    between atoms: C_7  and  N_8 
REMARK    5  A    between atoms: C_18  and  C_19 
REMARK    6  A    between atoms: C_23  and  N_24 
REMARK    7  A    between atoms: C_31  and  C_32 
REMARK    8  A    between atoms: C_35  and  O_36 
ROOT
HETATM    1  C   UNL     1       2.408  28.107  48.663  1.00  0.00     0.106 A 
HETATM    2  C   UNL     1       2.058  27.170  47.502  1.00  0.00     0.081 A 
HETATM    3  C   UNL     1       0.835  27.431  46.816  1.00  0.00     0.100 C 
HETATM    4  N   UNL     1      -0.163  27.664  46.270  1.00  0.00    -0.191 NA
HETATM    5  C   UNL     1       2.813  26.090  47.165  1.00  0.00     0.140 A 
HETATM    6  O   UNL     1       3.988  25.757  47.860  1.00  0.00    -0.279 OA
HETATM    7  C   UNL     1       4.290  26.517  48.905  1.00  0.00     0.175 A 
HETATM    8  C   UNL     1       3.628  27.623  49.373  1.00  0.00     0.040 A 
HETATM    9  N   UNL     1       5.361  26.325  49.714  1.00  0.00    -0.256 N 
HETATM   10  H   UNL     1       6.068  25.601  49.659  1.00  0.00     0.191 HD
HETATM   11  N   UNL     1       5.452  27.252  50.683  1.00  0.00    -0.172 NA
HETATM   12  C   UNL     1       4.381  28.049  50.504  1.00  0.00     0.099 A 
ENDROOT
BRANCH   1  13
HETATM   13  C   UNL     1       2.651  29.548  48.215  1.00  0.00    -0.040 A 
HETATM   14  C   UNL     1       3.513  29.903  47.161  1.00  0.00     0.030 A 
HETATM   15  C   UNL     1       3.747  31.244  46.854  1.00  0.00     0.048 A 
HETATM   16  C   UNL     1       3.075  32.245  47.558  1.00  0.00     0.131 A 
HETATM   17 BR   UNL     1       4.986  31.658  45.479  1.00  0.00    -0.048 Br
HETATM   18  C   UNL     1       2.111  31.923  48.522  1.00  0.00     0.104 A 
HETATM   19  C   UNL     1       1.939  30.581  48.870  1.00  0.00     0.048 A 
BRANCH  16  20
HETATM   20  O   UNL     1       3.337  33.585  47.253  1.00  0.00    -0.257 OA
BRANCH  20  21
HETATM   21  C   UNL     1       4.462  34.069  47.913  1.00  0.00     0.368 C 
HETATM   22  N   UNL     1       5.178  34.971  47.143  1.00  0.00    -0.324 N 
HETATM   23  C   UNL     1       6.238  35.756  47.771  1.00  0.00     0.154 C 
HETATM   24  C   UNL     1       4.724  35.464  45.845  1.00  0.00     0.154 C 
HETATM   25  C   UNL     1       7.357  36.075  46.778  1.00  0.00     0.187 C 
HETATM   26  O   UNL     1       6.835  36.681  45.585  1.00  0.00    -0.388 OA
HETATM   27  C   UNL     1       5.913  35.792  44.935  1.00  0.00     0.187 C 
HETATM   28  O   UNL     1       4.814  33.732  49.041  1.00  0.00    -0.238 OA
ENDBRANCH  20  21
ENDBRANCH  16  20
BRANCH  18  29
HETATM   29  O   UNL     1       1.426  32.974  49.068  1.00  0.00    -0.349 OA
BRANCH  29  30
HETATM   30  C   UNL     1       1.329  33.070  50.489  1.00  0.00     0.171 C 
HETATM   31  C   UNL     1       1.999  34.330  51.015  1.00  0.00     0.034 C 
ENDBRANCH  29  30
ENDBRANCH  18  29
ENDBRANCH   1  13
BRANCH   5  32
HETATM   32  N   UNL     1       2.533  25.204  46.149  1.00  0.00    -0.282 NA
HETATM   33  H   UNL     1       2.176  25.615  45.290  1.00  0.00     0.126 HD
HETATM   34  H   UNL     1       3.293  24.547  45.991  1.00  0.00     0.126 HD
ENDBRANCH   5  32
BRANCH  12  35
HETATM   35  C   UNL     1       4.155  29.203  51.370  1.00  0.00    -0.005 A 
HETATM   36  C   UNL     1       4.725  30.440  51.045  1.00  0.00     0.016 A 
HETATM   37  C   UNL     1       4.495  31.557  51.851  1.00  0.00     0.037 A 
HETATM   38  C   UNL     1       3.696  31.459  52.991  1.00  0.00     0.068 A 
HETATM   39  C   UNL     1       3.140  30.225  53.330  1.00  0.00     0.037 A 
HETATM   40  C   UNL     1       3.370  29.102  52.524  1.00  0.00     0.016 A 
BRANCH  38  41
HETATM   41  O   UNL     1       3.555  32.624  53.694  1.00  0.00    -0.356 OA
HETATM   42  C   UNL     1       2.362  32.768  54.453  1.00  0.00     0.210 C 
ENDBRANCH  38  41
ENDBRANCH  12  35
TORSDOF 8
ENDMDL
MODEL 10
REMARK VINA RESULT:      -7.0      6.753      9.716
REMARK  8 active torsions:
REMARK  status: ('A' for Active; 'I' for Inactive)
REMARK    1  A    between atoms: C_2  and  O_3 
REMARK    2  A    between atoms: O_3  and  C_4 
REMARK    3  A    between atoms: C_5  and  O_6 
REMARK    4  A    between atoms: O_6  and  C_7 
REMARK       I    between atoms: C_7  and  N_8 
REMARK    5  A    between atoms: C_18  and  C_19 
REMARK    6  A    between atoms: C_23  and  N_24 
REMARK    7  A    between atoms: C_31  and  C_32 
REMARK    8  A    between atoms: C_35  and  O_36 
ROOT
HETATM    1  C   UNL     1       4.049  35.710  61.805  1.00  0.00     0.106 A 
HETATM    2  C   UNL     1       4.306  35.966  63.294  1.00  0.00     0.081 A 
HETATM    3  C   UNL     1       3.883  34.949  64.200  1.00  0.00     0.100 C 
HETATM    4  N   UNL     1       3.532  34.108  64.919  1.00  0.00    -0.191 NA
HETATM    5  C   UNL     1       4.839  37.124  63.767  1.00  0.00     0.140 A 
HETATM    6  O   UNL     1       5.205  38.178  62.913  1.00  0.00    -0.279 OA
HETATM    7  C   UNL     1       4.945  38.010  61.623  1.00  0.00     0.175 A 
HETATM    8  C   UNL     1       4.405  36.915  61.000  1.00  0.00     0.040 A 
HETATM    9  N   UNL     1       5.194  38.931  60.660  1.00  0.00    -0.256 N 
HETATM   10  H   UNL     1       5.593  39.857  60.764  1.00  0.00     0.191 HD
HETATM   11  N   UNL     1       4.862  38.499  59.431  1.00  0.00    -0.172 NA
HETATM   12  C   UNL     1       4.353  37.266  59.622  1.00  0.00     0.099 A 
ENDROOT
BRANCH   1  13
HETATM   13  C   UNL     1       4.833  34.516  61.259  1.00  0.00    -0.040 A 
HETATM   14  C   UNL     1       4.447  33.784  60.121  1.00  0.00     0.030 A 
HETATM   15  C   UNL     1       5.167  32.658  59.722  1.00  0.00     0.048 A 
HETATM   16  C   UNL     1       6.317  32.285  60.420  1.00  0.00     0.131 A 
HETATM   17 BR   UNL     1       4.545  31.664  58.231  1.00  0.00    -0.048 Br
HETATM   18  C   UNL     1       6.803  33.067  61.475  1.00  0.00     0.104 A 
HETATM   19  C   UNL     1       6.034  34.151  61.911  1.00  0.00     0.048 A 
BRANCH  16  20
HETATM   20  O   UNL     1       7.016  31.140  60.021  1.00  0.00    -0.257 OA
BRANCH  20  21
HETATM   21  C   UNL     1       8.072  31.435  59.165  1.00  0.00     0.368 C 
HETATM   22  N   UNL     1       8.309  30.422  58.251  1.00  0.00    -0.324 N 
HETATM   23  C   UNL     1       9.211  30.674  57.130  1.00  0.00     0.154 C 
HETATM   24  C   UNL     1       7.456  29.244  58.111  1.00  0.00     0.154 C 
HETATM   25  C   UNL     1       9.942  29.399  56.706  1.00  0.00     0.187 C 
HETATM   26  O   UNL     1       9.017  28.329  56.458  1.00  0.00    -0.388 OA
HETATM   27  C   UNL     1       8.269  28.030  57.647  1.00  0.00     0.187 C 
HETATM   28  O   UNL     1       8.747  32.461  59.210  1.00  0.00    -0.238 OA
ENDBRANCH  20  21
ENDBRANCH  16  20
BRANCH  18  29
HETATM   29  O   UNL     1       7.999  32.682  62.014  1.00  0.00    -0.349 OA
BRANCH  29  30
HETATM   30  C   UNL     1       8.013  32.101  63.319  1.00  0.00     0.171 C 
HETATM   31  C   UNL     1       7.684  33.125  64.394  1.00  0.00     0.034 C 
ENDBRANCH  29  30
ENDBRANCH  18  29
ENDBRANCH   1  13
BRANCH   5  32
HETATM   32  N   UNL     1       5.069  37.415  65.093  1.00  0.00    -0.282 NA
HETATM   33  H   UNL     1       5.639  36.743  65.601  1.00  0.00     0.126 HD
HETATM   34  H   UNL     1       5.370  38.377  65.229  1.00  0.00     0.126 HD
ENDBRANCH   5  32
BRANCH  12  35
HETATM   35  C   UNL     1       3.899  36.463  58.489  1.00  0.00    -0.005 A 
HETATM   36  C   UNL     1       4.796  36.135  57.465  1.00  0.00     0.016 A 
HETATM   37  C   UNL     1       4.382  35.345  56.390  1.00  0.00     0.037 A 
HETATM   38  C   UNL     1       3.071  34.871  56.319  1.00  0.00     0.068 A 
HETATM   39  C   UNL     1       2.168  35.209  57.328  1.00  0.00     0.037 A 
HETATM   40  C   UNL     1       2.580  36.002  58.407  1.00  0.00     0.016 A 
BRANCH  38  41
HETATM   41  O   UNL     1       2.794  34.114  55.215  1.00  0.00    -0.356 OA
HETATM   42  C   UNL     1       2.153  32.866  55.443  1.00  0.00     0.210 C 
ENDBRANCH  38  41
ENDBRANCH  12  35
TORSDOF 8
ENDMDL
