MODEL 1
REMARK VINA RESULT:     -10.9      0.000      0.000
REMARK  2 active torsions:
REMARK  status: ('A' for Active; 'I' for Inactive)
REMARK    1  A    between atoms: C_3  and  C_4 
REMARK    2  A    between atoms: N_10  and  C_11 
ROOT
HETATM    1  C   UNL     1       8.147  31.746  60.529  1.00  0.00     0.049 A 
HETATM    2  N   UNL     1       7.506  30.606  60.087  1.00  0.00    -0.344 N 
HETATM    3  C   UNL     1       7.956  29.890  59.014  1.00  0.00     0.119 A 
HETATM    4  C   UNL     1       9.040  30.286  58.325  1.00  0.00     0.123 A 
HETATM    5  C   UNL     1       9.302  29.257  57.307  1.00  0.00     0.280 A 
HETATM    6  O   UNL     1      10.222  29.279  56.510  1.00  0.00    -0.265 OA
HETATM    7  N   UNL     1       8.297  28.293  57.489  1.00  0.00    -0.236 N 
HETATM    8  N   UNL     1       7.436  28.703  58.531  1.00  0.00    -0.179 NA
HETATM    9  C   UNL     1       9.766  31.498  58.712  1.00  0.00     0.193 A 
HETATM   10  O   UNL     1      10.752  31.922  58.123  1.00  0.00    -0.287 OA
HETATM   11  C   UNL     1       9.242  32.224  59.908  1.00  0.00     0.086 A 
HETATM   12  H   UNL     1       6.676  30.288  60.574  1.00  0.00     0.167 HD
HETATM   13  H   UNL     1       7.379  28.013  59.280  1.00  0.00     0.155 HD
ENDROOT
BRANCH   1  14
HETATM   14  C   UNL     1       7.601  32.439  61.717  1.00  0.00     0.012 A 
HETATM   15  C   UNL     1       8.312  32.359  62.929  1.00  0.00     0.015 A 
HETATM   16  C   UNL     1       7.842  32.994  64.082  1.00  0.00     0.001 A 
HETATM   17  C   UNL     1       6.658  33.724  64.042  1.00  0.00     0.002 A 
HETATM   18  C   UNL     1       5.941  33.820  62.850  1.00  0.00     0.025 A 
HETATM   19  C   UNL     1       6.406  33.182  61.694  1.00  0.00     0.046 A 
HETATM   20 CL   UNL     1       5.444  33.342  60.263  1.00  0.00    -0.083 Cl
ENDBRANCH   1  14
BRANCH   7  21
HETATM   21  C   UNL     1       8.056  27.095  56.783  1.00  0.00     0.055 A 
HETATM   22  C   UNL     1       8.320  25.844  57.363  1.00  0.00     0.034 A 
HETATM   23  C   UNL     1       8.064  24.659  56.665  1.00  0.00     0.044 A 
HETATM   24  C   UNL     1       7.543  24.717  55.380  1.00  0.00     0.116 A 
HETATM   25  F   UNL     1       7.295  23.584  54.713  1.00  0.00    -0.206 F 
HETATM   26  C   UNL     1       7.279  25.939  54.778  1.00  0.00     0.044 A 
HETATM   27  C   UNL     1       7.536  27.123  55.477  1.00  0.00     0.034 A 
ENDBRANCH   7  21
TORSDOF 2
ENDMDL
MODEL 2
REMARK VINA RESULT:     -10.0      3.325      4.948
REMARK  2 active torsions:
REMARK  status: ('A' for Active; 'I' for Inactive)
REMARK    1  A    between atoms: C_3  and  C_4 
REMARK    2  A    between atoms: N_10  and  C_11 
ROOT
HETATM    1  C   UNL     1       7.695  28.902  57.644  1.00  0.00     0.049 A 
HETATM    2  N   UNL     1       8.340  27.719  57.338  1.00  0.00    -0.344 N 
HETATM    3  C   UNL     1       7.718  26.707  56.663  1.00  0.00     0.119 A 
HETATM    4  C   UNL     1       6.433  26.816  56.287  1.00  0.00     0.123 A 
HETATM    5  C   UNL     1       6.107  25.608  55.513  1.00  0.00     0.280 A 
HETATM    6  O   UNL     1       5.028  25.375  54.999  1.00  0.00    -0.265 OA
HETATM    7  N   UNL     1       7.288  24.849  55.499  1.00  0.00    -0.236 N 
HETATM    8  N   UNL     1       8.284  25.517  56.246  1.00  0.00    -0.179 NA
HETATM    9  C   UNL     1       5.667  28.026  56.593  1.00  0.00     0.193 A 
HETATM   10  O   UNL     1       4.491  28.187  56.291  1.00  0.00    -0.287 OA
HETATM   11  C   UNL     1       6.407  29.108  57.309  1.00  0.00     0.086 A 
HETATM   12  H   UNL     1       9.305  27.597  57.621  1.00  0.00     0.167 HD
HETATM   13  H   UNL     1       9.123  25.700  55.694  1.00  0.00     0.155 HD
ENDROOT
BRANCH   1  14
HETATM   14  C   UNL     1       8.459  29.951  58.353  1.00  0.00     0.012 A 
HETATM   15  C   UNL     1       7.968  30.424  59.585  1.00  0.00     0.015 A 
HETATM   16  C   UNL     1       8.649  31.414  60.297  1.00  0.00     0.001 A 
HETATM   17  C   UNL     1       9.834  31.945  59.796  1.00  0.00     0.002 A 
HETATM   18  C   UNL     1      10.340  31.486  58.581  1.00  0.00     0.025 A 
HETATM   19  C   UNL     1       9.660  30.497  57.861  1.00  0.00     0.046 A 
HETATM   20 CL   UNL     1      10.352  29.999  56.355  1.00  0.00    -0.083 Cl
ENDBRANCH   1  14
BRANCH   7  21
HETATM   21  C   UNL     1       7.549  23.592  54.911  1.00  0.00     0.055 A 
HETATM   22  C   UNL     1       7.636  22.429  55.691  1.00  0.00     0.034 A 
HETATM   23  C   UNL     1       7.879  21.183  55.100  1.00  0.00     0.044 A 
HETATM   24  C   UNL     1       8.041  21.095  53.725  1.00  0.00     0.116 A 
HETATM   25  F   UNL     1       8.271  19.903  53.160  1.00  0.00    -0.206 F 
HETATM   26  C   UNL     1       7.968  22.229  52.930  1.00  0.00     0.044 A 
HETATM   27  C   UNL     1       7.725  23.473  53.521  1.00  0.00     0.034 A 
ENDBRANCH   7  21
TORSDOF 2
ENDMDL
MODEL 3
REMARK VINA RESULT:      -9.9      3.528      8.177
REMARK  2 active torsions:
REMARK  status: ('A' for Active; 'I' for Inactive)
REMARK    1  A    between atoms: C_3  and  C_4 
REMARK    2  A    between atoms: N_10  and  C_11 
ROOT
HETATM    1  C   UNL     1       8.328  28.528  56.709  1.00  0.00     0.049 A 
HETATM    2  N   UNL     1       7.592  28.922  57.810  1.00  0.00    -0.344 N 
HETATM    3  C   UNL     1       8.033  29.888  58.670  1.00  0.00     0.119 A 
HETATM    4  C   UNL     1       9.224  30.483  58.488  1.00  0.00     0.123 A 
HETATM    5  C   UNL     1       9.347  31.523  59.521  1.00  0.00     0.280 A 
HETATM    6  O   UNL     1      10.297  32.275  59.648  1.00  0.00    -0.265 OA
HETATM    7  N   UNL     1       8.158  31.449  60.263  1.00  0.00    -0.236 N 
HETATM    8  N   UNL     1       7.351  30.406  59.755  1.00  0.00    -0.179 NA
HETATM    9  C   UNL     1      10.080  30.107  57.360  1.00  0.00     0.193 A 
HETATM   10  O   UNL     1      11.180  30.599  57.143  1.00  0.00    -0.287 OA
HETATM   11  C   UNL     1       9.534  29.065  56.440  1.00  0.00     0.086 A 
HETATM   12  H   UNL     1       6.696  28.482  57.985  1.00  0.00     0.167 HD
HETATM   13  H   UNL     1       6.429  30.735  59.468  1.00  0.00     0.155 HD
ENDROOT
BRANCH   1  14
HETATM   14  C   UNL     1       7.757  27.493  55.820  1.00  0.00     0.012 A 
HETATM   15  C   UNL     1       7.348  27.869  54.526  1.00  0.00     0.015 A 
HETATM   16  C   UNL     1       6.801  26.932  53.645  1.00  0.00     0.001 A 
HETATM   17  C   UNL     1       6.658  25.605  54.038  1.00  0.00     0.002 A 
HETATM   18  C   UNL     1       7.061  25.211  55.313  1.00  0.00     0.025 A 
HETATM   19  C   UNL     1       7.606  26.147  56.201  1.00  0.00     0.046 A 
HETATM   20 CL   UNL     1       8.064  25.573  57.769  1.00  0.00    -0.083 Cl
ENDBRANCH   1  14
BRANCH   7  21
HETATM   21  C   UNL     1       7.740  32.204  61.380  1.00  0.00     0.055 A 
HETATM   22  C   UNL     1       6.705  33.146  61.275  1.00  0.00     0.034 A 
HETATM   23  C   UNL     1       6.285  33.881  62.390  1.00  0.00     0.044 A 
HETATM   24  C   UNL     1       6.900  33.679  63.617  1.00  0.00     0.116 A 
HETATM   25  F   UNL     1       6.496  34.380  64.683  1.00  0.00    -0.206 F 
HETATM   26  C   UNL     1       7.930  32.760  63.750  1.00  0.00     0.044 A 
HETATM   27  C   UNL     1       8.350  32.027  62.635  1.00  0.00     0.034 A 
ENDBRANCH   7  21
TORSDOF 2
ENDMDL
MODEL 4
REMARK VINA RESULT:      -9.9      4.328      9.247
REMARK  2 active torsions:
REMARK  status: ('A' for Active; 'I' for Inactive)
REMARK    1  A    between atoms: C_3  and  C_4 
REMARK    2  A    between atoms: N_10  and  C_11 
ROOT
HETATM    1  C   UNL     1       7.379  24.235  55.389  1.00  0.00     0.049 A 
HETATM    2  N   UNL     1       8.187  25.020  56.189  1.00  0.00    -0.344 N 
HETATM    3  C   UNL     1       7.931  26.345  56.400  1.00  0.00     0.119 A 
HETATM    4  C   UNL     1       6.884  26.949  55.812  1.00  0.00     0.123 A 
HETATM    5  C   UNL     1       6.844  28.330  56.317  1.00  0.00     0.280 A 
HETATM    6  O   UNL     1       6.013  29.164  56.009  1.00  0.00    -0.265 OA
HETATM    7  N   UNL     1       7.928  28.430  57.205  1.00  0.00    -0.236 N 
HETATM    8  N   UNL     1       8.627  27.203  57.231  1.00  0.00    -0.179 NA
HETATM    9  C   UNL     1       5.991  26.196  54.928  1.00  0.00     0.193 A 
HETATM   10  O   UNL     1       5.028  26.685  54.351  1.00  0.00    -0.287 OA
HETATM   11  C   UNL     1       6.305  24.746  54.756  1.00  0.00     0.086 A 
HETATM   12  H   UNL     1       8.994  24.600  56.635  1.00  0.00     0.167 HD
HETATM   13  H   UNL     1       8.686  26.812  58.172  1.00  0.00     0.155 HD
ENDROOT
BRANCH   1  14
HETATM   14  C   UNL     1       7.721  22.804  55.242  1.00  0.00     0.012 A 
HETATM   15  C   UNL     1       7.786  22.005  56.399  1.00  0.00     0.015 A 
HETATM   16  C   UNL     1       8.105  20.646  56.318  1.00  0.00     0.001 A 
HETATM   17  C   UNL     1       8.358  20.062  55.082  1.00  0.00     0.002 A 
HETATM   18  C   UNL     1       8.293  20.834  53.922  1.00  0.00     0.025 A 
HETATM   19  C   UNL     1       7.978  22.196  53.999  1.00  0.00     0.046 A 
HETATM   20 CL   UNL     1       7.936  23.081  52.511  1.00  0.00    -0.083 Cl
ENDBRANCH   1  14
BRANCH   7  21
HETATM   21  C   UNL     1       8.373  29.531  57.968  1.00  0.00     0.055 A 
HETATM   22  C   UNL     1       7.568  30.094  58.969  1.00  0.00     0.034 A 
HETATM   23  C   UNL     1       8.021  31.176  59.733  1.00  0.00     0.044 A 
HETATM   24  C   UNL     1       9.283  31.702  59.498  1.00  0.00     0.116 A 
HETATM   25  F   UNL     1       9.718  32.735  60.230  1.00  0.00    -0.206 F 
HETATM   26  C   UNL     1      10.098  31.171  58.509  1.00  0.00     0.044 A 
HETATM   27  C   UNL     1       9.644  30.090  57.746  1.00  0.00     0.034 A 
ENDBRANCH   7  21
TORSDOF 2
ENDMDL
MODEL 5
REMARK VINA RESULT:      -9.7      1.211      1.508
REMARK  2 active torsions:
REMARK  status: ('A' for Active; 'I' for Inactive)
REMARK    1  A    between atoms: C_3  and  C_4 
REMARK    2  A    between atoms: N_10  and  C_11 
ROOT
HETATM    1  C   UNL     1       8.227  31.564  60.238  1.00  0.00     0.049 A 
HETATM    2  N   UNL     1       7.503  30.484  59.772  1.00  0.00    -0.344 N 
HETATM    3  C   UNL     1       7.877  29.785  58.660  1.00  0.00     0.119 A 
HETATM    4  C   UNL     1       8.965  30.139  57.955  1.00  0.00     0.123 A 
HETATM    5  C   UNL     1       9.134  29.137  56.891  1.00  0.00     0.280 A 
HETATM    6  O   UNL     1      10.031  29.134  56.068  1.00  0.00    -0.265 OA
HETATM    7  N   UNL     1       8.076  28.231  57.067  1.00  0.00    -0.236 N 
HETATM    8  N   UNL     1       7.271  28.652  58.149  1.00  0.00    -0.179 NA
HETATM    9  C   UNL     1       9.775  31.288  58.364  1.00  0.00     0.193 A 
HETATM   10  O   UNL     1      10.770  31.674  57.762  1.00  0.00    -0.287 OA
HETATM   11  C   UNL     1       9.332  31.998  59.602  1.00  0.00     0.086 A 
HETATM   12  H   UNL     1       6.668  30.199  60.271  1.00  0.00     0.167 HD
HETATM   13  H   UNL     1       7.191  27.937  58.873  1.00  0.00     0.155 HD
ENDROOT
BRANCH   1  14
HETATM   14  C   UNL     1       7.758  32.243  61.466  1.00  0.00     0.012 A 
HETATM   15  C   UNL     1       7.011  33.428  61.336  1.00  0.00     0.015 A 
HETATM   16  C   UNL     1       6.543  34.111  62.463  1.00  0.00     0.001 A 
HETATM   17  C   UNL     1       6.809  33.618  63.737  1.00  0.00     0.002 A 
HETATM   18  C   UNL     1       7.543  32.442  63.887  1.00  0.00     0.025 A 
HETATM   19  C   UNL     1       8.017  31.757  62.762  1.00  0.00     0.046 A 
HETATM   20 CL   UNL     1       8.932  30.315  63.043  1.00  0.00    -0.083 Cl
ENDBRANCH   1  14
BRANCH   7  21
HETATM   21  C   UNL     1       7.740  27.078  56.324  1.00  0.00     0.055 A 
HETATM   22  C   UNL     1       7.772  25.803  56.909  1.00  0.00     0.034 A 
HETATM   23  C   UNL     1       7.423  24.665  56.172  1.00  0.00     0.044 A 
HETATM   24  C   UNL     1       7.042  24.796  54.845  1.00  0.00     0.116 A 
HETATM   25  F   UNL     1       6.705  23.708  54.141  1.00  0.00    -0.206 F 
HETATM   26  C   UNL     1       7.009  26.043  54.238  1.00  0.00     0.044 A 
HETATM   27  C   UNL     1       7.358  27.180  54.975  1.00  0.00     0.034 A 
ENDBRANCH   7  21
TORSDOF 2
ENDMDL
MODEL 6
REMARK VINA RESULT:      -9.7      6.023      9.420
REMARK  2 active torsions:
REMARK  status: ('A' for Active; 'I' for Inactive)
REMARK    1  A    between atoms: C_3  and  C_4 
REMARK    2  A    between atoms: N_10  and  C_11 
ROOT
HETATM    1  C   UNL     1       7.236  24.104  55.496  1.00  0.00     0.049 A 
HETATM    2  N   UNL     1       6.262  24.894  54.917  1.00  0.00    -0.344 N 
HETATM    3  C   UNL     1       5.907  26.107  55.437  1.00  0.00     0.119 A 
HETATM    4  C   UNL     1       6.482  26.572  56.558  1.00  0.00     0.123 A 
HETATM    5  C   UNL     1       5.948  27.923  56.788  1.00  0.00     0.280 A 
HETATM    6  O   UNL     1       6.262  28.654  57.710  1.00  0.00    -0.265 OA
HETATM    7  N   UNL     1       5.054  28.151  55.728  1.00  0.00    -0.236 N 
HETATM    8  N   UNL     1       5.002  27.005  54.904  1.00  0.00    -0.179 NA
HETATM    9  C   UNL     1       7.507  25.787  57.251  1.00  0.00     0.193 A 
HETATM   10  O   UNL     1       8.063  26.145  58.281  1.00  0.00    -0.287 OA
HETATM   11  C   UNL     1       7.872  24.483  56.621  1.00  0.00     0.086 A 
HETATM   12  H   UNL     1       5.796  24.566  54.079  1.00  0.00     0.167 HD
HETATM   13  H   UNL     1       5.242  27.215  53.934  1.00  0.00     0.155 HD
ENDROOT
BRANCH   1  14
HETATM   14  C   UNL     1       7.571  22.819  54.845  1.00  0.00     0.012 A 
HETATM   15  C   UNL     1       7.610  21.655  55.635  1.00  0.00     0.015 A 
HETATM   16  C   UNL     1       7.922  20.414  55.072  1.00  0.00     0.001 A 
HETATM   17  C   UNL     1       8.195  20.314  53.712  1.00  0.00     0.002 A 
HETATM   18  C   UNL     1       8.157  21.454  52.910  1.00  0.00     0.025 A 
HETATM   19  C   UNL     1       7.849  22.700  53.470  1.00  0.00     0.046 A 
HETATM   20 CL   UNL     1       7.840  24.064  52.404  1.00  0.00    -0.083 Cl
ENDBRANCH   1  14
BRANCH   7  21
HETATM   21  C   UNL     1       4.250  29.278  55.450  1.00  0.00     0.055 A 
HETATM   22  C   UNL     1       3.585  29.967  56.475  1.00  0.00     0.034 A 
HETATM   23  C   UNL     1       2.801  31.093  56.194  1.00  0.00     0.044 A 
HETATM   24  C   UNL     1       2.678  31.534  54.885  1.00  0.00     0.116 A 
HETATM   25  F   UNL     1       1.931  32.612  54.617  1.00  0.00    -0.206 F 
HETATM   26  C   UNL     1       3.318  30.868  53.850  1.00  0.00     0.044 A 
HETATM   27  C   UNL     1       4.100  29.743  54.131  1.00  0.00     0.034 A 
ENDBRANCH   7  21
TORSDOF 2
ENDMDL
MODEL 7
REMARK VINA RESULT:      -9.7      8.145     10.495
REMARK  2 active torsions:
REMARK  status: ('A' for Active; 'I' for Inactive)
REMARK    1  A    between atoms: C_3  and  C_4 
REMARK    2  A    between atoms: N_10  and  C_11 
ROOT
HETATM    1  C   UNL     1       7.012  24.364  53.456  1.00  0.00     0.049 A 
HETATM    2  N   UNL     1       6.037  24.377  52.478  1.00  0.00    -0.344 N 
HETATM    3  C   UNL     1       5.612  25.537  51.893  1.00  0.00     0.119 A 
HETATM    4  C   UNL     1       6.116  26.724  52.269  1.00  0.00     0.123 A 
HETATM    5  C   UNL     1       5.520  27.742  51.390  1.00  0.00     0.280 A 
HETATM    6  O   UNL     1       5.763  28.935  51.434  1.00  0.00    -0.265 OA
HETATM    7  N   UNL     1       4.670  27.032  50.527  1.00  0.00    -0.236 N 
HETATM    8  N   UNL     1       4.700  25.661  50.862  1.00  0.00    -0.179 NA
HETATM    9  C   UNL     1       7.136  26.803  53.317  1.00  0.00     0.193 A 
HETATM   10  O   UNL     1       7.629  27.850  53.716  1.00  0.00    -0.287 OA
HETATM   11  C   UNL     1       7.580  25.501  53.901  1.00  0.00     0.086 A 
HETATM   12  H   UNL     1       5.624  23.501  52.182  1.00  0.00     0.167 HD
HETATM   13  H   UNL     1       4.977  25.075  50.073  1.00  0.00     0.155 HD
ENDROOT
BRANCH   1  14
HETATM   14  C   UNL     1       7.426  23.057  54.011  1.00  0.00     0.012 A 
HETATM   15  C   UNL     1       7.778  22.027  53.118  1.00  0.00     0.015 A 
HETATM   16  C   UNL     1       8.176  20.772  53.588  1.00  0.00     0.001 A 
HETATM   17  C   UNL     1       8.236  20.526  54.956  1.00  0.00     0.002 A 
HETATM   18  C   UNL     1       7.897  21.535  55.858  1.00  0.00     0.025 A 
HETATM   19  C   UNL     1       7.494  22.792  55.392  1.00  0.00     0.046 A 
HETATM   20 CL   UNL     1       7.077  23.978  56.583  1.00  0.00    -0.083 Cl
ENDBRANCH   1  14
BRANCH   7  21
HETATM   21  C   UNL     1       3.838  27.503  49.488  1.00  0.00     0.055 A 
HETATM   22  C   UNL     1       2.931  28.552  49.702  1.00  0.00     0.034 A 
HETATM   23  C   UNL     1       2.119  29.025  48.664  1.00  0.00     0.044 A 
HETATM   24  C   UNL     1       2.209  28.448  47.405  1.00  0.00     0.116 A 
HETATM   25  F   UNL     1       1.435  28.902  46.412  1.00  0.00    -0.206 F 
HETATM   26  C   UNL     1       3.091  27.404  47.166  1.00  0.00     0.044 A 
HETATM   27  C   UNL     1       3.901  26.932  48.204  1.00  0.00     0.034 A 
ENDBRANCH   7  21
TORSDOF 2
ENDMDL
MODEL 8
REMARK VINA RESULT:      -9.7      3.370      8.047
REMARK  2 active torsions:
REMARK  status: ('A' for Active; 'I' for Inactive)
REMARK    1  A    between atoms: C_3  and  C_4 
REMARK    2  A    between atoms: N_10  and  C_11 
ROOT
HETATM    1  C   UNL     1       7.575  27.760  55.486  1.00  0.00     0.049 A 
HETATM    2  N   UNL     1       7.197  28.005  56.792  1.00  0.00    -0.344 N 
HETATM    3  C   UNL     1       7.841  28.922  57.574  1.00  0.00     0.119 A 
HETATM    4  C   UNL     1       8.892  29.614  57.103  1.00  0.00     0.123 A 
HETATM    5  C   UNL     1       9.284  30.568  58.152  1.00  0.00     0.280 A 
HETATM    6  O   UNL     1      10.194  31.371  58.064  1.00  0.00    -0.265 OA
HETATM    7  N   UNL     1       8.385  30.345  59.208  1.00  0.00    -0.236 N 
HETATM    8  N   UNL     1       7.505  29.295  58.862  1.00  0.00    -0.179 NA
HETATM    9  C   UNL     1       9.375  29.398  55.737  1.00  0.00     0.193 A 
HETATM   10  O   UNL     1      10.333  29.984  55.250  1.00  0.00    -0.287 OA
HETATM   11  C   UNL     1       8.616  28.403  54.922  1.00  0.00     0.086 A 
HETATM   12  H   UNL     1       6.418  27.489  57.183  1.00  0.00     0.167 HD
HETATM   13  H   UNL     1       6.526  29.581  58.902  1.00  0.00     0.155 HD
ENDROOT
BRANCH   1  14
HETATM   14  C   UNL     1       6.801  26.768  54.708  1.00  0.00     0.012 A 
HETATM   15  C   UNL     1       7.234  25.429  54.708  1.00  0.00     0.015 A 
HETATM   16  C   UNL     1       6.541  24.450  53.990  1.00  0.00     0.001 A 
HETATM   17  C   UNL     1       5.402  24.790  53.266  1.00  0.00     0.002 A 
HETATM   18  C   UNL     1       4.954  26.110  53.258  1.00  0.00     0.025 A 
HETATM   19  C   UNL     1       5.647  27.095  53.972  1.00  0.00     0.046 A 
HETATM   20 CL   UNL     1       5.028  28.710  53.893  1.00  0.00    -0.083 Cl
ENDBRANCH   1  14
BRANCH   7  21
HETATM   21  C   UNL     1       8.300  30.970  60.471  1.00  0.00     0.055 A 
HETATM   22  C   UNL     1       8.914  30.410  61.601  1.00  0.00     0.034 A 
HETATM   23  C   UNL     1       8.840  31.042  62.848  1.00  0.00     0.044 A 
HETATM   24  C   UNL     1       8.147  32.238  62.971  1.00  0.00     0.116 A 
HETATM   25  F   UNL     1       8.079  32.844  64.163  1.00  0.00    -0.206 F 
HETATM   26  C   UNL     1       7.523  32.812  61.873  1.00  0.00     0.044 A 
HETATM   27  C   UNL     1       7.598  32.178  60.628  1.00  0.00     0.034 A 
ENDBRANCH   7  21
TORSDOF 2
ENDMDL
MODEL 9
REMARK VINA RESULT:      -9.6      1.098      1.843
REMARK  2 active torsions:
REMARK  status: ('A' for Active; 'I' for Inactive)
REMARK    1  A    between atoms: C_3  and  C_4 
REMARK    2  A    between atoms: N_10  and  C_11 
ROOT
HETATM    1  C   UNL     1       7.453  32.030  60.067  1.00  0.00     0.049 A 
HETATM    2  N   UNL     1       6.851  30.915  59.517  1.00  0.00    -0.344 N 
HETATM    3  C   UNL     1       7.506  30.093  58.644  1.00  0.00     0.119 A 
HETATM    4  C   UNL     1       8.768  30.354  58.264  1.00  0.00     0.123 A 
HETATM    5  C   UNL     1       9.199  29.240  57.406  1.00  0.00     0.280 A 
HETATM    6  O   UNL     1      10.298  29.134  56.894  1.00  0.00    -0.265 OA
HETATM    7  N   UNL     1       8.096  28.372  57.348  1.00  0.00    -0.236 N 
HETATM    8  N   UNL     1       7.028  28.919  58.091  1.00  0.00    -0.179 NA
HETATM    9  C   UNL     1       9.472  31.530  58.780  1.00  0.00     0.193 A 
HETATM   10  O   UNL     1      10.616  31.834  58.467  1.00  0.00    -0.287 OA
HETATM   11  C   UNL     1       8.715  32.377  59.750  1.00  0.00     0.086 A 
HETATM   12  H   UNL     1       5.894  30.697  59.770  1.00  0.00     0.167 HD
HETATM   13  H   UNL     1       6.705  28.289  58.826  1.00  0.00     0.155 HD
ENDROOT
BRANCH   1  14
HETATM   14  C   UNL     1       6.673  32.844  61.024  1.00  0.00     0.012 A 
HETATM   15  C   UNL     1       5.515  33.498  60.564  1.00  0.00     0.015 A 
HETATM   16  C   UNL     1       4.741  34.281  61.425  1.00  0.00     0.001 A 
HETATM   17  C   UNL     1       5.107  34.420  62.760  1.00  0.00     0.002 A 
HETATM   18  C   UNL     1       6.248  33.776  63.238  1.00  0.00     0.025 A 
HETATM   19  C   UNL     1       7.028  32.994  62.378  1.00  0.00     0.046 A 
HETATM   20 CL   UNL     1       8.436  32.244  63.053  1.00  0.00    -0.083 Cl
ENDBRANCH   1  14
BRANCH   7  21
HETATM   21  C   UNL     1       7.943  27.149  56.658  1.00  0.00     0.055 A 
HETATM   22  C   UNL     1       7.464  27.113  55.340  1.00  0.00     0.034 A 
HETATM   23  C   UNL     1       7.329  25.899  54.657  1.00  0.00     0.044 A 
HETATM   24  C   UNL     1       7.671  24.713  55.289  1.00  0.00     0.116 A 
HETATM   25  F   UNL     1       7.545  23.552  54.635  1.00  0.00    -0.206 F 
HETATM   26  C   UNL     1       8.141  24.717  56.595  1.00  0.00     0.044 A 
HETATM   27  C   UNL     1       8.275  25.931  57.277  1.00  0.00     0.034 A 
ENDBRANCH   7  21
TORSDOF 2
ENDMDL
MODEL 10
REMARK VINA RESULT:      -9.6      3.851      8.622
REMARK  2 active torsions:
REMARK  status: ('A' for Active; 'I' for Inactive)
REMARK    1  A    between atoms: C_3  and  C_4 
REMARK    2  A    between atoms: N_10  and  C_11 
ROOT
HETATM    1  C   UNL     1       7.045  27.177  55.127  1.00  0.00     0.049 A 
HETATM    2  N   UNL     1       7.739  27.492  56.278  1.00  0.00    -0.344 N 
HETATM    3  C   UNL     1       7.493  28.635  56.985  1.00  0.00     0.119 A 
HETATM    4  C   UNL     1       6.570  29.518  56.569  1.00  0.00     0.123 A 
HETATM    5  C   UNL     1       6.491  30.573  57.592  1.00  0.00     0.280 A 
HETATM    6  O   UNL     1       5.744  31.533  57.552  1.00  0.00    -0.265 OA
HETATM    7  N   UNL     1       7.424  30.203  58.575  1.00  0.00    -0.236 N 
HETATM    8  N   UNL     1       8.074  29.013  58.181  1.00  0.00    -0.179 NA
HETATM    9  C   UNL     1       5.806  29.275  55.344  1.00  0.00     0.193 A 
HETATM   10  O   UNL     1       4.960  30.042  54.901  1.00  0.00    -0.287 OA
HETATM   11  C   UNL     1       6.100  27.998  54.628  1.00  0.00     0.086 A 
HETATM   12  H   UNL     1       8.454  26.855  56.612  1.00  0.00     0.167 HD
HETATM   13  H   UNL     1       7.972  28.269  58.873  1.00  0.00     0.155 HD
ENDROOT
BRANCH   1  14
HETATM   14  C   UNL     1       7.364  25.904  54.445  1.00  0.00     0.012 A 
HETATM   15  C   UNL     1       7.736  25.942  53.088  1.00  0.00     0.015 A 
HETATM   16  C   UNL     1       8.047  24.769  52.394  1.00  0.00     0.001 A 
HETATM   17  C   UNL     1       7.996  23.540  53.044  1.00  0.00     0.002 A 
HETATM   18  C   UNL     1       7.634  23.481  54.389  1.00  0.00     0.025 A 
HETATM   19  C   UNL     1       7.319  24.652  55.087  1.00  0.00     0.046 A 
HETATM   20 CL   UNL     1       6.865  24.483  56.750  1.00  0.00    -0.083 Cl
ENDBRANCH   1  14
BRANCH   7  21
HETATM   21  C   UNL     1       7.776  30.853  59.777  1.00  0.00     0.055 A 
HETATM   22  C   UNL     1       6.941  31.826  60.349  1.00  0.00     0.034 A 
HETATM   23  C   UNL     1       7.288  32.456  61.550  1.00  0.00     0.044 A 
HETATM   24  C   UNL     1       8.473  32.118  62.185  1.00  0.00     0.116 A 
HETATM   25  F   UNL     1       8.804  32.719  63.335  1.00  0.00    -0.206 F 
HETATM   26  C   UNL     1       9.322  31.166  61.640  1.00  0.00     0.044 A 
HETATM   27  C   UNL     1       8.975  30.537  60.440  1.00  0.00     0.034 A 
ENDBRANCH   7  21
TORSDOF 2
ENDMDL
