MODEL 1
REMARK VINA RESULT:      -9.7      0.000      0.000
REMARK  5 active torsions:
REMARK  status: ('A' for Active; 'I' for Inactive)
REMARK    1  A    between atoms: C_2  and  N_3 
REMARK    2  A    between atoms: C_2  and  C_16 
REMARK    3  A    between atoms: N_3  and  C_6 
REMARK    4  A    between atoms: C_6  and  C_7 
REMARK    5  A    between atoms: C_19  and  C_20 
ROOT
HETATM    1  C   UNL     1       4.241  28.232  55.901  1.00  0.00     0.049 C 
HETATM    2  C   UNL     1       5.385  27.534  56.631  1.00  0.00     0.260 C 
ENDROOT
BRANCH   2   3
HETATM    3  N   UNL     1       6.381  28.567  57.099  1.00  0.00    -0.060 N 
HETATM    4  H   UNL     1       6.682  29.102  56.268  1.00  0.00     0.278 HD
HETATM    5  H   UNL     1       5.904  29.270  57.679  1.00  0.00     0.278 HD
BRANCH   3   6
HETATM    6  C   UNL     1       7.611  28.079  57.775  1.00  0.00     0.274 C 
BRANCH   6   7
HETATM    7  C   UNL     1       8.698  29.106  57.762  1.00  0.00     0.004 A 
HETATM    8  C   UNL     1       8.565  30.297  58.459  1.00  0.00     0.113 A 
HETATM    9  C   UNL     1       9.538  31.268  58.448  1.00  0.00     0.105 A 
HETATM   10  O   UNL     1       7.500  30.639  59.239  1.00  0.00    -0.322 OA
HETATM   11  O   UNL     1       9.202  32.348  59.198  1.00  0.00    -0.323 OA
HETATM   12  C   UNL     1      10.710  31.109  57.742  1.00  0.00     0.040 A 
HETATM   13  C   UNL     1       7.886  31.982  59.647  1.00  0.00     0.352 A 
HETATM   14  C   UNL     1      10.881  29.923  57.027  1.00  0.00     0.003 A 
HETATM   15  C   UNL     1       9.884  28.928  57.032  1.00  0.00     0.012 A 
ENDBRANCH   6   7
ENDBRANCH   3   6
ENDBRANCH   2   3
BRANCH   2  16
HETATM   16  C   UNL     1       6.052  26.544  55.735  1.00  0.00     0.203 A 
HETATM   17  O   UNL     1       6.621  27.010  54.595  1.00  0.00    -0.194 OA
HETATM   18  N   UNL     1       7.182  25.910  53.962  1.00  0.00    -0.106 NA
HETATM   19  C   UNL     1       6.894  24.877  54.772  1.00  0.00     0.189 A 
HETATM   20  N   UNL     1       6.167  25.244  55.894  1.00  0.00    -0.202 NA
BRANCH  19  21
HETATM   21  C   UNL     1       7.305  23.500  54.519  1.00  0.00     0.017 A 
HETATM   22  C   UNL     1       7.379  22.582  55.574  1.00  0.00     0.057 A 
HETATM   23  C   UNL     1       7.778  21.271  55.328  1.00  0.00     0.117 A 
HETATM   24  F   UNL     1       7.840  20.406  56.347  1.00  0.00    -0.206 F 
HETATM   25  C   UNL     1       8.110  20.848  54.047  1.00  0.00     0.042 A 
HETATM   26  C   UNL     1       8.042  21.751  52.990  1.00  0.00     0.004 A 
HETATM   27  C   UNL     1       7.640  23.070  53.224  1.00  0.00     0.016 A 
ENDBRANCH  19  21
ENDBRANCH   2  16
TORSDOF 5
ENDMDL
MODEL 2
REMARK VINA RESULT:      -9.1      3.195      7.700
REMARK  5 active torsions:
REMARK  status: ('A' for Active; 'I' for Inactive)
REMARK    1  A    between atoms: C_2  and  N_3 
REMARK    2  A    between atoms: C_2  and  C_16 
REMARK    3  A    between atoms: N_3  and  C_6 
REMARK    4  A    between atoms: C_6  and  C_7 
REMARK    5  A    between atoms: C_19  and  C_20 
ROOT
HETATM    1  C   UNL     1       5.308  26.849  52.385  1.00  0.00     0.049 C 
HETATM    2  C   UNL     1       6.637  26.352  52.945  1.00  0.00     0.260 C 
ENDROOT
BRANCH   2   3
HETATM    3  N   UNL     1       6.615  24.845  53.020  1.00  0.00    -0.060 N 
HETATM    4  H   UNL     1       6.315  24.589  53.976  1.00  0.00     0.278 HD
HETATM    5  H   UNL     1       5.859  24.480  52.426  1.00  0.00     0.278 HD
BRANCH   3   6
HETATM    6  C   UNL     1       7.886  24.124  52.752  1.00  0.00     0.274 C 
BRANCH   6   7
HETATM    7  C   UNL     1       7.984  22.857  53.539  1.00  0.00     0.004 A 
HETATM    8  C   UNL     1       8.149  22.880  54.916  1.00  0.00     0.113 A 
HETATM    9  C   UNL     1       8.266  21.733  55.663  1.00  0.00     0.105 A 
HETATM   10  O   UNL     1       8.192  24.006  55.685  1.00  0.00    -0.322 OA
HETATM   11  O   UNL     1       8.417  21.988  56.987  1.00  0.00    -0.323 OA
HETATM   12  C   UNL     1       8.219  20.485  55.082  1.00  0.00     0.040 A 
HETATM   13  C   UNL     1       8.436  23.426  56.997  1.00  0.00     0.352 A 
HETATM   14  C   UNL     1       8.055  20.419  53.698  1.00  0.00     0.003 A 
HETATM   15  C   UNL     1       7.941  21.593  52.929  1.00  0.00     0.012 A 
ENDBRANCH   6   7
ENDBRANCH   3   6
ENDBRANCH   2   3
BRANCH   2  16
HETATM   16  C   UNL     1       6.886  26.932  54.297  1.00  0.00     0.203 A 
HETATM   17  O   UNL     1       6.129  26.475  55.327  1.00  0.00    -0.194 OA
HETATM   18  N   UNL     1       6.567  27.148  56.459  1.00  0.00    -0.106 NA
HETATM   19  C   UNL     1       7.542  27.957  56.011  1.00  0.00     0.189 A 
HETATM   20  N   UNL     1       7.756  27.855  54.645  1.00  0.00    -0.202 NA
BRANCH  19  21
HETATM   21  C   UNL     1       8.316  28.855  56.861  1.00  0.00     0.017 A 
HETATM   22  C   UNL     1       7.833  29.218  58.125  1.00  0.00     0.057 A 
HETATM   23  C   UNL     1       8.573  30.080  58.930  1.00  0.00     0.117 A 
HETATM   24  F   UNL     1       8.097  30.415  60.136  1.00  0.00    -0.206 F 
HETATM   25  C   UNL     1       9.791  30.595  58.505  1.00  0.00     0.042 A 
HETATM   26  C   UNL     1      10.282  30.242  57.251  1.00  0.00     0.004 A 
HETATM   27  C   UNL     1       9.548  29.375  56.434  1.00  0.00     0.016 A 
ENDBRANCH  19  21
ENDBRANCH   2  16
TORSDOF 5
ENDMDL
MODEL 3
REMARK VINA RESULT:      -9.1      1.820      2.892
REMARK  5 active torsions:
REMARK  status: ('A' for Active; 'I' for Inactive)
REMARK    1  A    between atoms: C_2  and  N_3 
REMARK    2  A    between atoms: C_2  and  C_16 
REMARK    3  A    between atoms: N_3  and  C_6 
REMARK    4  A    between atoms: C_6  and  C_7 
REMARK    5  A    between atoms: C_19  and  C_20 
ROOT
HETATM    1  C   UNL     1       8.630  29.321  56.011  1.00  0.00     0.049 C 
HETATM    2  C   UNL     1       7.634  28.576  56.895  1.00  0.00     0.260 C 
ENDROOT
BRANCH   2   3
HETATM    3  N   UNL     1       7.867  28.955  58.337  1.00  0.00    -0.060 N 
HETATM    4  H   UNL     1       6.965  29.286  58.717  1.00  0.00     0.278 HD
HETATM    5  H   UNL     1       8.066  28.110  58.889  1.00  0.00     0.278 HD
BRANCH   3   6
HETATM    6  C   UNL     1       8.873  30.012  58.616  1.00  0.00     0.274 C 
BRANCH   6   7
HETATM    7  C   UNL     1       8.488  30.851  59.792  1.00  0.00     0.004 A 
HETATM    8  C   UNL     1       7.350  31.642  59.764  1.00  0.00     0.113 A 
HETATM    9  C   UNL     1       6.983  32.441  60.821  1.00  0.00     0.105 A 
HETATM   10  O   UNL     1       6.463  31.711  58.731  1.00  0.00    -0.322 OA
HETATM   11  O   UNL     1       5.837  33.127  60.580  1.00  0.00    -0.323 OA
HETATM   12  C   UNL     1       7.729  32.497  61.977  1.00  0.00     0.040 A 
HETATM   13  C   UNL     1       5.540  32.716  59.234  1.00  0.00     0.352 A 
HETATM   14  C   UNL     1       8.883  31.715  62.044  1.00  0.00     0.003 A 
HETATM   15  C   UNL     1       9.265  30.900  60.961  1.00  0.00     0.012 A 
ENDBRANCH   6   7
ENDBRANCH   3   6
ENDBRANCH   2   3
BRANCH   2  16
HETATM   16  C   UNL     1       7.780  27.101  56.719  1.00  0.00     0.203 A 
HETATM   17  O   UNL     1       8.035  26.358  57.825  1.00  0.00    -0.194 OA
HETATM   18  N   UNL     1       8.102  25.038  57.400  1.00  0.00    -0.106 NA
HETATM   19  C   UNL     1       7.890  25.104  56.074  1.00  0.00     0.189 A 
HETATM   20  N   UNL     1       7.699  26.397  55.612  1.00  0.00    -0.202 NA
BRANCH  19  21
HETATM   21  C   UNL     1       7.853  23.942  55.194  1.00  0.00     0.017 A 
HETATM   22  C   UNL     1       7.757  22.652  55.732  1.00  0.00     0.057 A 
HETATM   23  C   UNL     1       7.728  21.547  54.888  1.00  0.00     0.117 A 
HETATM   24  F   UNL     1       7.634  20.322  55.420  1.00  0.00    -0.206 F 
HETATM   25  C   UNL     1       7.795  21.692  53.508  1.00  0.00     0.042 A 
HETATM   26  C   UNL     1       7.891  22.968  52.959  1.00  0.00     0.004 A 
HETATM   27  C   UNL     1       7.919  24.087  53.798  1.00  0.00     0.016 A 
ENDBRANCH  19  21
ENDBRANCH   2  16
TORSDOF 5
ENDMDL
MODEL 4
REMARK VINA RESULT:      -9.0      3.845      9.077
REMARK  5 active torsions:
REMARK  status: ('A' for Active; 'I' for Inactive)
REMARK    1  A    between atoms: C_2  and  N_3 
REMARK    2  A    between atoms: C_2  and  C_16 
REMARK    3  A    between atoms: N_3  and  C_6 
REMARK    4  A    between atoms: C_6  and  C_7 
REMARK    5  A    between atoms: C_19  and  C_20 
ROOT
HETATM    1  C   UNL     1      10.251  29.672  56.198  1.00  0.00     0.049 C 
HETATM    2  C   UNL     1       9.437  29.225  57.409  1.00  0.00     0.260 C 
ENDROOT
BRANCH   2   3
HETATM    3  N   UNL     1       8.082  28.743  56.948  1.00  0.00    -0.060 N 
HETATM    4  H   UNL     1       7.416  29.521  57.088  1.00  0.00     0.278 HD
HETATM    5  H   UNL     1       8.090  28.613  55.928  1.00  0.00     0.278 HD
BRANCH   3   6
HETATM    6  C   UNL     1       7.511  27.550  57.625  1.00  0.00     0.274 C 
BRANCH   6   7
HETATM    7  C   UNL     1       7.806  26.290  56.875  1.00  0.00     0.004 A 
HETATM    8  C   UNL     1       7.343  26.104  55.581  1.00  0.00     0.113 A 
HETATM    9  C   UNL     1       7.579  24.948  54.875  1.00  0.00     0.105 A 
HETATM   10  O   UNL     1       6.640  27.019  54.856  1.00  0.00    -0.322 OA
HETATM   11  O   UNL     1       7.039  24.980  53.631  1.00  0.00    -0.323 OA
HETATM   12  C   UNL     1       8.297  23.905  55.416  1.00  0.00     0.040 A 
HETATM   13  C   UNL     1       6.389  26.263  53.638  1.00  0.00     0.352 A 
HETATM   14  C   UNL     1       8.779  24.054  56.718  1.00  0.00     0.003 A 
HETATM   15  C   UNL     1       8.535  25.235  57.445  1.00  0.00     0.012 A 
ENDBRANCH   6   7
ENDBRANCH   3   6
ENDBRANCH   2   3
BRANCH   2  16
HETATM   16  C   UNL     1       9.282  30.348  58.379  1.00  0.00     0.203 A 
HETATM   17  O   UNL     1      10.006  31.474  58.159  1.00  0.00    -0.194 OA
HETATM   18  N   UNL     1       9.669  32.358  59.176  1.00  0.00    -0.106 NA
HETATM   19  C   UNL     1       8.779  31.682  59.923  1.00  0.00     0.189 A 
HETATM   20  N   UNL     1       8.526  30.402  59.454  1.00  0.00    -0.202 NA
BRANCH  19  21
HETATM   21  C   UNL     1       8.127  32.227  61.109  1.00  0.00     0.017 A 
HETATM   22  C   UNL     1       6.950  32.976  60.984  1.00  0.00     0.057 A 
HETATM   23  C   UNL     1       6.335  33.498  62.118  1.00  0.00     0.117 A 
HETATM   24  F   UNL     1       5.209  34.209  61.981  1.00  0.00    -0.206 F 
HETATM   25  C   UNL     1       6.867  33.295  63.385  1.00  0.00     0.042 A 
HETATM   26  C   UNL     1       8.038  32.553  63.523  1.00  0.00     0.004 A 
HETATM   27  C   UNL     1       8.663  32.021  62.391  1.00  0.00     0.016 A 
ENDBRANCH  19  21
ENDBRANCH   2  16
TORSDOF 5
ENDMDL
MODEL 5
REMARK VINA RESULT:      -9.0      4.703      7.719
REMARK  5 active torsions:
REMARK  status: ('A' for Active; 'I' for Inactive)
REMARK    1  A    between atoms: C_2  and  N_3 
REMARK    2  A    between atoms: C_2  and  C_16 
REMARK    3  A    between atoms: N_3  and  C_6 
REMARK    4  A    between atoms: C_6  and  C_7 
REMARK    5  A    between atoms: C_19  and  C_20 
ROOT
HETATM    1  C   UNL     1       5.471  28.148  54.213  1.00  0.00     0.049 C 
HETATM    2  C   UNL     1       5.861  27.034  53.247  1.00  0.00     0.260 C 
ENDROOT
BRANCH   2   3
HETATM    3  N   UNL     1       4.706  26.752  52.317  1.00  0.00    -0.060 N 
HETATM    4  H   UNL     1       4.003  26.217  52.853  1.00  0.00     0.278 HD
HETATM    5  H   UNL     1       4.221  27.631  52.092  1.00  0.00     0.278 HD
BRANCH   3   6
HETATM    6  C   UNL     1       4.992  25.982  51.079  1.00  0.00     0.274 C 
BRANCH   6   7
HETATM    7  C   UNL     1       4.794  26.810  49.849  1.00  0.00     0.004 A 
HETATM    8  C   UNL     1       4.078  26.321  48.766  1.00  0.00     0.113 A 
HETATM    9  C   UNL     1       3.899  27.050  47.615  1.00  0.00     0.105 A 
HETATM   10  O   UNL     1       3.461  25.107  48.713  1.00  0.00    -0.322 OA
HETATM   11  O   UNL     1       3.167  26.382  46.687  1.00  0.00    -0.323 OA
HETATM   12  C   UNL     1       4.418  28.317  47.473  1.00  0.00     0.040 A 
HETATM   13  C   UNL     1       2.944  25.127  47.354  1.00  0.00     0.352 A 
HETATM   14  C   UNL     1       5.146  28.844  48.542  1.00  0.00     0.003 A 
HETATM   15  C   UNL     1       5.336  28.098  49.721  1.00  0.00     0.012 A 
ENDBRANCH   6   7
ENDBRANCH   3   6
ENDBRANCH   2   3
BRANCH   2  16
HETATM   16  C   UNL     1       6.232  25.798  53.996  1.00  0.00     0.203 A 
HETATM   17  O   UNL     1       5.843  25.707  55.293  1.00  0.00    -0.194 OA
HETATM   18  N   UNL     1       6.287  24.472  55.747  1.00  0.00    -0.106 NA
HETATM   19  C   UNL     1       6.912  23.932  54.686  1.00  0.00     0.189 A 
HETATM   20  N   UNL     1       6.907  24.753  53.569  1.00  0.00    -0.202 NA
BRANCH  19  21
HETATM   21  C   UNL     1       7.531  22.611  54.688  1.00  0.00     0.017 A 
HETATM   22  C   UNL     1       7.765  21.942  53.480  1.00  0.00     0.057 A 
HETATM   23  C   UNL     1       8.351  20.679  53.487  1.00  0.00     0.117 A 
HETATM   24  F   UNL     1       8.569  20.055  52.324  1.00  0.00    -0.206 F 
HETATM   25  C   UNL     1       8.711  20.059  54.677  1.00  0.00     0.042 A 
HETATM   26  C   UNL     1       8.483  20.713  55.885  1.00  0.00     0.004 A 
HETATM   27  C   UNL     1       7.897  21.984  55.890  1.00  0.00     0.016 A 
ENDBRANCH  19  21
ENDBRANCH   2  16
TORSDOF 5
ENDMDL
MODEL 6
REMARK VINA RESULT:      -8.9      4.766      7.822
REMARK  5 active torsions:
REMARK  status: ('A' for Active; 'I' for Inactive)
REMARK    1  A    between atoms: C_2  and  N_3 
REMARK    2  A    between atoms: C_2  and  C_16 
REMARK    3  A    between atoms: N_3  and  C_6 
REMARK    4  A    between atoms: C_6  and  C_7 
REMARK    5  A    between atoms: C_19  and  C_20 
ROOT
HETATM    1  C   UNL     1       6.453  27.432  55.473  1.00  0.00     0.049 C 
HETATM    2  C   UNL     1       5.790  26.081  55.225  1.00  0.00     0.260 C 
ENDROOT
BRANCH   2   3
HETATM    3  N   UNL     1       6.729  24.979  55.654  1.00  0.00    -0.060 N 
HETATM    4  H   UNL     1       7.111  25.243  56.577  1.00  0.00     0.278 HD
HETATM    5  H   UNL     1       6.192  24.124  55.851  1.00  0.00     0.278 HD
BRANCH   3   6
HETATM    6  C   UNL     1       7.885  24.679  54.771  1.00  0.00     0.274 C 
BRANCH   6   7
HETATM    7  C   UNL     1       7.935  23.233  54.391  1.00  0.00     0.004 A 
HETATM    8  C   UNL     1       8.088  22.246  55.353  1.00  0.00     0.113 A 
HETATM    9  C   UNL     1       8.160  20.911  55.033  1.00  0.00     0.105 A 
HETATM   10  O   UNL     1       8.159  22.461  56.698  1.00  0.00    -0.322 OA
HETATM   11  O   UNL     1       8.307  20.122  56.127  1.00  0.00    -0.323 OA
HETATM   12  C   UNL     1       8.080  20.476  53.729  1.00  0.00     0.040 A 
HETATM   13  C   UNL     1       8.371  21.103  57.176  1.00  0.00     0.352 A 
HETATM   14  C   UNL     1       7.928  21.440  52.731  1.00  0.00     0.003 A 
HETATM   15  C   UNL     1       7.858  22.808  53.055  1.00  0.00     0.012 A 
ENDBRANCH   6   7
ENDBRANCH   3   6
ENDBRANCH   2   3
BRANCH   2  16
HETATM   16  C   UNL     1       5.438  25.926  53.783  1.00  0.00     0.203 A 
HETATM   17  O   UNL     1       4.887  24.750  53.392  1.00  0.00    -0.194 OA
HETATM   18  N   UNL     1       4.638  24.870  52.032  1.00  0.00    -0.106 NA
HETATM   19  C   UNL     1       5.069  26.104  51.722  1.00  0.00     0.189 A 
HETATM   20  N   UNL     1       5.595  26.791  52.805  1.00  0.00    -0.202 NA
BRANCH  19  21
HETATM   21  C   UNL     1       4.993  26.686  50.386  1.00  0.00     0.017 A 
HETATM   22  C   UNL     1       5.401  28.008  50.169  1.00  0.00     0.057 A 
HETATM   23  C   UNL     1       5.320  28.559  48.893  1.00  0.00     0.117 A 
HETATM   24  F   UNL     1       5.717  29.823  48.703  1.00  0.00    -0.206 F 
HETATM   25  C   UNL     1       4.836  27.823  47.819  1.00  0.00     0.042 A 
HETATM   26  C   UNL     1       4.426  26.508  48.022  1.00  0.00     0.004 A 
HETATM   27  C   UNL     1       4.505  25.942  49.298  1.00  0.00     0.016 A 
ENDBRANCH  19  21
ENDBRANCH   2  16
TORSDOF 5
ENDMDL
MODEL 7
REMARK VINA RESULT:      -8.9      1.722      2.528
REMARK  5 active torsions:
REMARK  status: ('A' for Active; 'I' for Inactive)
REMARK    1  A    between atoms: C_2  and  N_3 
REMARK    2  A    between atoms: C_2  and  C_16 
REMARK    3  A    between atoms: N_3  and  C_6 
REMARK    4  A    between atoms: C_6  and  C_7 
REMARK    5  A    between atoms: C_19  and  C_20 
ROOT
HETATM    1  C   UNL     1       5.015  27.212  56.874  1.00  0.00     0.049 C 
HETATM    2  C   UNL     1       6.467  27.040  56.437  1.00  0.00     0.260 C 
ENDROOT
BRANCH   2   3
HETATM    3  N   UNL     1       6.886  28.234  55.614  1.00  0.00    -0.060 N 
HETATM    4  H   UNL     1       7.919  28.245  55.593  1.00  0.00     0.278 HD
HETATM    5  H   UNL     1       6.626  28.085  54.631  1.00  0.00     0.278 HD
BRANCH   3   6
HETATM    6  C   UNL     1       6.444  29.575  56.075  1.00  0.00     0.274 C 
BRANCH   6   7
HETATM    7  C   UNL     1       7.315  30.104  57.169  1.00  0.00     0.004 A 
HETATM    8  C   UNL     1       8.695  29.977  57.109  1.00  0.00     0.113 A 
HETATM    9  C   UNL     1       9.520  30.433  58.109  1.00  0.00     0.105 A 
HETATM   10  O   UNL     1       9.391  29.425  56.075  1.00  0.00    -0.322 OA
HETATM   11  O   UNL     1      10.832  30.208  57.844  1.00  0.00    -0.323 OA
HETATM   12  C   UNL     1       9.019  31.050  59.234  1.00  0.00     0.040 A 
HETATM   13  C   UNL     1      10.750  29.513  56.587  1.00  0.00     0.352 A 
HETATM   14  C   UNL     1       7.634  31.195  59.332  1.00  0.00     0.003 A 
HETATM   15  C   UNL     1       6.786  30.725  58.312  1.00  0.00     0.012 A 
ENDBRANCH   6   7
ENDBRANCH   3   6
ENDBRANCH   2   3
BRANCH   2  16
HETATM   16  C   UNL     1       6.631  25.786  55.646  1.00  0.00     0.203 A 
HETATM   17  O   UNL     1       6.096  25.754  54.399  1.00  0.00    -0.194 OA
HETATM   18  N   UNL     1       6.401  24.505  53.876  1.00  0.00    -0.106 NA
HETATM   19  C   UNL     1       7.084  23.891  54.857  1.00  0.00     0.189 A 
HETATM   20  N   UNL     1       7.232  24.670  55.995  1.00  0.00    -0.202 NA
BRANCH  19  21
HETATM   21  C   UNL     1       7.632  22.543  54.752  1.00  0.00     0.017 A 
HETATM   22  C   UNL     1       7.798  21.946  53.497  1.00  0.00     0.057 A 
HETATM   23  C   UNL     1       8.316  20.657  53.403  1.00  0.00     0.117 A 
HETATM   24  F   UNL     1       8.471  20.103  52.194  1.00  0.00    -0.206 F 
HETATM   25  C   UNL     1       8.674  19.940  54.537  1.00  0.00     0.042 A 
HETATM   26  C   UNL     1       8.513  20.521  55.792  1.00  0.00     0.004 A 
HETATM   27  C   UNL     1       7.996  21.817  55.899  1.00  0.00     0.016 A 
ENDBRANCH  19  21
ENDBRANCH   2  16
TORSDOF 5
ENDMDL
MODEL 8
REMARK VINA RESULT:      -8.8      3.843      7.176
REMARK  5 active torsions:
REMARK  status: ('A' for Active; 'I' for Inactive)
REMARK    1  A    between atoms: C_2  and  N_3 
REMARK    2  A    between atoms: C_2  and  C_16 
REMARK    3  A    between atoms: N_3  and  C_6 
REMARK    4  A    between atoms: C_6  and  C_7 
REMARK    5  A    between atoms: C_19  and  C_20 
ROOT
HETATM    1  C   UNL     1       8.051  27.298  57.200  1.00  0.00     0.049 C 
HETATM    2  C   UNL     1       6.910  26.287  57.156  1.00  0.00     0.260 C 
ENDROOT
BRANCH   2   3
HETATM    3  N   UNL     1       7.427  24.933  57.579  1.00  0.00    -0.060 N 
HETATM    4  H   UNL     1       7.634  24.986  58.590  1.00  0.00     0.278 HD
HETATM    5  H   UNL     1       6.669  24.240  57.525  1.00  0.00     0.278 HD
BRANCH   3   6
HETATM    6  C   UNL     1       8.650  24.424  56.907  1.00  0.00     0.274 C 
BRANCH   6   7
HETATM    7  C   UNL     1       8.406  23.117  56.222  1.00  0.00     0.004 A 
HETATM    8  C   UNL     1       8.227  23.051  54.849  1.00  0.00     0.113 A 
HETATM    9  C   UNL     1       7.979  21.868  54.195  1.00  0.00     0.105 A 
HETATM   10  O   UNL     1       8.295  24.112  53.994  1.00  0.00    -0.322 OA
HETATM   11  O   UNL     1       7.839  22.034  52.855  1.00  0.00    -0.323 OA
HETATM   12  C   UNL     1       7.900  20.671  54.872  1.00  0.00     0.040 A 
HETATM   13  C   UNL     1       7.974  23.461  52.733  1.00  0.00     0.352 A 
HETATM   14  C   UNL     1       8.074  20.696  56.256  1.00  0.00     0.003 A 
HETATM   15  C   UNL     1       8.322  21.908  56.930  1.00  0.00     0.012 A 
ENDBRANCH   6   7
ENDBRANCH   3   6
ENDBRANCH   2   3
BRANCH   2  16
HETATM   16  C   UNL     1       6.330  26.211  55.783  1.00  0.00     0.203 A 
HETATM   17  O   UNL     1       5.540  25.147  55.492  1.00  0.00    -0.194 OA
HETATM   18  N   UNL     1       5.117  25.324  54.181  1.00  0.00    -0.106 NA
HETATM   19  C   UNL     1       5.697  26.474  53.797  1.00  0.00     0.189 A 
HETATM   20  N   UNL     1       6.483  27.050  54.783  1.00  0.00    -0.202 NA
BRANCH  19  21
HETATM   21  C   UNL     1       5.522  27.076  52.480  1.00  0.00     0.017 A 
HETATM   22  C   UNL     1       5.149  26.285  51.386  1.00  0.00     0.057 A 
HETATM   23  C   UNL     1       4.990  26.864  50.131  1.00  0.00     0.117 A 
HETATM   24  F   UNL     1       4.631  26.093  49.097  1.00  0.00    -0.206 F 
HETATM   25  C   UNL     1       5.197  28.223  49.933  1.00  0.00     0.042 A 
HETATM   26  C   UNL     1       5.569  29.022  51.011  1.00  0.00     0.004 A 
HETATM   27  C   UNL     1       5.730  28.451  52.278  1.00  0.00     0.016 A 
ENDBRANCH  19  21
ENDBRANCH   2  16
TORSDOF 5
ENDMDL
MODEL 9
REMARK VINA RESULT:      -8.8      3.844      9.114
REMARK  5 active torsions:
REMARK  status: ('A' for Active; 'I' for Inactive)
REMARK    1  A    between atoms: C_2  and  N_3 
REMARK    2  A    between atoms: C_2  and  C_16 
REMARK    3  A    between atoms: N_3  and  C_6 
REMARK    4  A    between atoms: C_6  and  C_7 
REMARK    5  A    between atoms: C_19  and  C_20 
ROOT
HETATM    1  C   UNL     1      10.412  29.739  56.054  1.00  0.00     0.049 C 
HETATM    2  C   UNL     1       9.702  29.211  57.297  1.00  0.00     0.260 C 
ENDROOT
BRANCH   2   3
HETATM    3  N   UNL     1       8.424  28.520  56.885  1.00  0.00    -0.060 N 
HETATM    4  H   UNL     1       7.639  29.098  57.230  1.00  0.00     0.278 HD
HETATM    5  H   UNL     1       8.322  28.561  55.863  1.00  0.00     0.278 HD
BRANCH   3   6
HETATM    6  C   UNL     1       8.200  27.137  57.379  1.00  0.00     0.274 C 
BRANCH   6   7
HETATM    7  C   UNL     1       7.608  26.258  56.324  1.00  0.00     0.004 A 
HETATM    8  C   UNL     1       7.790  24.884  56.353  1.00  0.00     0.113 A 
HETATM    9  C   UNL     1       7.277  24.053  55.386  1.00  0.00     0.105 A 
HETATM   10  O   UNL     1       8.459  24.198  57.324  1.00  0.00    -0.322 OA
HETATM   11  O   UNL     1       7.573  22.748  55.612  1.00  0.00    -0.323 OA
HETATM   12  C   UNL     1       6.543  24.543  54.328  1.00  0.00     0.040 A 
HETATM   13  C   UNL     1       8.375  22.843  56.802  1.00  0.00     0.352 A 
HETATM   14  C   UNL     1       6.339  25.922  54.264  1.00  0.00     0.003 A 
HETATM   15  C   UNL     1       6.868  26.776  55.250  1.00  0.00     0.012 A 
ENDBRANCH   6   7
ENDBRANCH   3   6
ENDBRANCH   2   3
BRANCH   2  16
HETATM   16  C   UNL     1       9.404  30.326  58.243  1.00  0.00     0.203 A 
HETATM   17  O   UNL     1      10.139  31.460  58.129  1.00  0.00    -0.194 OA
HETATM   18  N   UNL     1       9.657  32.334  59.095  1.00  0.00    -0.106 NA
HETATM   19  C   UNL     1       8.681  31.645  59.710  1.00  0.00     0.189 A 
HETATM   20  N   UNL     1       8.508  30.366  59.204  1.00  0.00    -0.202 NA
BRANCH  19  21
HETATM   21  C   UNL     1       7.867  32.176  60.798  1.00  0.00     0.017 A 
HETATM   22  C   UNL     1       8.380  32.231  62.100  1.00  0.00     0.057 A 
HETATM   23  C   UNL     1       7.597  32.733  63.135  1.00  0.00     0.117 A 
HETATM   24  F   UNL     1       8.105  32.780  64.373  1.00  0.00    -0.206 F 
HETATM   25  C   UNL     1       6.303  33.183  62.907  1.00  0.00     0.042 A 
HETATM   26  C   UNL     1       5.780  33.133  61.617  1.00  0.00     0.004 A 
HETATM   27  C   UNL     1       6.559  32.633  60.568  1.00  0.00     0.016 A 
ENDBRANCH  19  21
ENDBRANCH   2  16
TORSDOF 5
ENDMDL
MODEL 10
REMARK VINA RESULT:      -8.7      4.703      8.129
REMARK  5 active torsions:
REMARK  status: ('A' for Active; 'I' for Inactive)
REMARK    1  A    between atoms: C_2  and  N_3 
REMARK    2  A    between atoms: C_2  and  C_16 
REMARK    3  A    between atoms: N_3  and  C_6 
REMARK    4  A    between atoms: C_6  and  C_7 
REMARK    5  A    between atoms: C_19  and  C_20 
ROOT
HETATM    1  C   UNL     1       7.202  26.808  55.384  1.00  0.00     0.049 C 
HETATM    2  C   UNL     1       5.995  26.013  54.896  1.00  0.00     0.260 C 
ENDROOT
BRANCH   2   3
HETATM    3  N   UNL     1       6.414  24.590  54.616  1.00  0.00    -0.060 N 
HETATM    4  H   UNL     1       5.958  23.991  55.323  1.00  0.00     0.278 HD
HETATM    5  H   UNL     1       6.000  24.276  53.729  1.00  0.00     0.278 HD
BRANCH   3   6
HETATM    6  C   UNL     1       7.867  24.283  54.652  1.00  0.00     0.274 C 
BRANCH   6   7
HETATM    7  C   UNL     1       8.134  22.920  55.206  1.00  0.00     0.004 A 
HETATM    8  C   UNL     1       8.283  21.824  54.370  1.00  0.00     0.113 A 
HETATM    9  C   UNL     1       8.507  20.556  54.851  1.00  0.00     0.105 A 
HETATM   10  O   UNL     1       8.253  21.863  53.007  1.00  0.00    -0.322 OA
HETATM   11  O   UNL     1       8.624  19.637  53.859  1.00  0.00    -0.323 OA
HETATM   12  C   UNL     1       8.601  20.302  56.201  1.00  0.00     0.040 A 
HETATM   13  C   UNL     1       8.399  20.450  52.694  1.00  0.00     0.352 A 
HETATM   14  C   UNL     1       8.455  21.379  57.076  1.00  0.00     0.003 A 
HETATM   15  C   UNL     1       8.221  22.679  56.587  1.00  0.00     0.012 A 
ENDBRANCH   6   7
ENDBRANCH   3   6
ENDBRANCH   2   3
BRANCH   2  16
HETATM   16  C   UNL     1       5.421  26.634  53.666  1.00  0.00     0.203 A 
HETATM   17  O   UNL     1       4.460  27.578  53.827  1.00  0.00    -0.194 OA
HETATM   18  N   UNL     1       4.116  28.004  52.552  1.00  0.00    -0.106 NA
HETATM   19  C   UNL     1       4.894  27.273  51.735  1.00  0.00     0.189 A 
HETATM   20  N   UNL     1       5.718  26.386  52.410  1.00  0.00    -0.202 NA
BRANCH  19  21
HETATM   21  C   UNL     1       4.891  27.392  50.281  1.00  0.00     0.017 A 
HETATM   22  C   UNL     1       4.408  26.342  49.489  1.00  0.00     0.057 A 
HETATM   23  C   UNL     1       4.413  26.459  48.102  1.00  0.00     0.117 A 
HETATM   24  F   UNL     1       3.945  25.447  47.361  1.00  0.00    -0.206 F 
HETATM   25  C   UNL     1       4.894  27.602  47.477  1.00  0.00     0.042 A 
HETATM   26  C   UNL     1       5.379  28.652  48.252  1.00  0.00     0.004 A 
HETATM   27  C   UNL     1       5.376  28.548  49.647  1.00  0.00     0.016 A 
ENDBRANCH  19  21
ENDBRANCH   2  16
TORSDOF 5
ENDMDL
