MODEL 1
REMARK VINA RESULT:      -9.5      0.000      0.000
REMARK  4 active torsions:
REMARK  status: ('A' for Active; 'I' for Inactive)
REMARK    1  A    between atoms: O_2  and  C_3 
REMARK    2  A    between atoms: C_5  and  C_6 
REMARK    3  A    between atoms: C_10  and  N_11 
REMARK    4  A    between atoms: C_14  and  C_15 
ROOT
HETATM    1  C   UNL     1       7.236  28.750  54.982  1.00  0.00     0.164 C 
HETATM    2  N   UNL     1       5.892  28.763  55.544  1.00  0.00    -0.074 N 
HETATM    3  C   UNL     1       5.198  27.644  55.920  1.00  0.00     0.736 A 
HETATM    4  N   UNL     1       4.055  28.011  56.437  1.00  0.00     0.131 NA
HETATM    5  C   UNL     1       4.079  29.368  56.306  1.00  0.00     0.753 A 
HETATM    6  N   UNL     1       5.188  29.882  55.779  1.00  0.00     0.037 NA
HETATM    7  N   UNL     1       5.711  26.409  55.742  1.00  0.00    -0.214 N 
HETATM    8  C   UNL     1       7.126  26.255  55.423  1.00  0.00     0.135 C 
HETATM    9  C   UNL     1       7.559  27.348  54.428  1.00  0.00     0.063 C 
HETATM   10  H   UNL     1       5.278  25.649  56.260  1.00  0.00     0.178 HD
ENDROOT
BRANCH   1  11
HETATM   11  C   UNL     1       8.300  29.213  55.974  1.00  0.00    -0.030 A 
HETATM   12  C   UNL     1       8.025  29.444  57.338  1.00  0.00     0.046 A 
HETATM   13  C   UNL     1       9.043  29.800  58.227  1.00  0.00     0.068 A 
HETATM   14  C   UNL     1      10.346  29.942  57.753  1.00  0.00     0.037 A 
HETATM   15  C   UNL     1      10.638  29.726  56.408  1.00  0.00     0.003 A 
HETATM   16  C   UNL     1       9.624  29.358  55.525  1.00  0.00     0.009 A 
BRANCH  13  17
HETATM   17  O   UNL     1       8.893  30.026  59.568  1.00  0.00    -0.356 OA
HETATM   18  C   UNL     1       7.934  31.003  59.956  1.00  0.00     0.210 C 
ENDBRANCH  13  17
ENDBRANCH   1  11
BRANCH   8  19
HETATM   19  C   UNL     1       7.409  24.873  54.862  1.00  0.00    -0.035 A 
HETATM   20  C   UNL     1       7.362  23.717  55.660  1.00  0.00     0.010 A 
HETATM   21  C   UNL     1       7.615  22.458  55.110  1.00  0.00     0.019 A 
HETATM   22  C   UNL     1       7.901  22.342  53.751  1.00  0.00     0.011 A 
HETATM   23 BR   UNL     1       8.241  20.639  53.005  1.00  0.00    -0.051 Br
HETATM   24  C   UNL     1       7.934  23.472  52.938  1.00  0.00     0.019 A 
HETATM   25  C   UNL     1       7.688  24.731  53.491  1.00  0.00     0.010 A 
ENDBRANCH   8  19
BRANCH   5  26
HETATM   26  N   UNL     1       3.035  30.068  56.738  1.00  0.00    -0.229 N 
HETATM   27  H   UNL     1       3.201  30.724  57.488  1.00  0.00     0.174 HD
HETATM   28  H   UNL     1       2.365  30.368  56.044  1.00  0.00     0.174 HD
ENDBRANCH   5  26
TORSDOF 4
ENDMDL
MODEL 2
REMARK VINA RESULT:      -9.3      3.682      6.739
REMARK  4 active torsions:
REMARK  status: ('A' for Active; 'I' for Inactive)
REMARK    1  A    between atoms: O_2  and  C_3 
REMARK    2  A    between atoms: C_5  and  C_6 
REMARK    3  A    between atoms: C_10  and  N_11 
REMARK    4  A    between atoms: C_14  and  C_15 
ROOT
HETATM    1  C   UNL     1       5.930  25.838  54.830  1.00  0.00     0.164 C 
HETATM    2  N   UNL     1       5.639  26.608  53.628  1.00  0.00    -0.074 N 
HETATM    3  C   UNL     1       6.170  27.839  53.348  1.00  0.00     0.736 A 
HETATM    4  N   UNL     1       5.752  28.220  52.170  1.00  0.00     0.131 NA
HETATM    5  C   UNL     1       4.924  27.203  51.792  1.00  0.00     0.753 A 
HETATM    6  N   UNL     1       4.832  26.183  52.642  1.00  0.00     0.037 NA
HETATM    7  N   UNL     1       6.986  28.464  54.221  1.00  0.00    -0.214 N 
HETATM    8  C   UNL     1       7.553  27.719  55.340  1.00  0.00     0.135 C 
HETATM    9  C   UNL     1       6.492  26.767  55.924  1.00  0.00     0.063 C 
HETATM   10  H   UNL     1       7.541  29.237  53.863  1.00  0.00     0.178 HD
ENDROOT
BRANCH   1  11
HETATM   11  C   UNL     1       6.864  24.659  54.570  1.00  0.00    -0.030 A 
HETATM   12  C   UNL     1       7.277  23.772  55.586  1.00  0.00     0.046 A 
HETATM   13  C   UNL     1       8.076  22.664  55.294  1.00  0.00     0.068 A 
HETATM   14  C   UNL     1       8.482  22.442  53.978  1.00  0.00     0.037 A 
HETATM   15  C   UNL     1       8.091  23.310  52.961  1.00  0.00     0.003 A 
HETATM   16  C   UNL     1       7.283  24.407  53.252  1.00  0.00     0.009 A 
BRANCH  13  17
HETATM   17  O   UNL     1       8.516  21.732  56.193  1.00  0.00    -0.356 OA
HETATM   18  C   UNL     1       7.876  20.462  56.174  1.00  0.00     0.210 C 
ENDBRANCH  13  17
ENDBRANCH   1  11
BRANCH   8  19
HETATM   19  C   UNL     1       8.079  28.661  56.408  1.00  0.00    -0.035 A 
HETATM   20  C   UNL     1       9.371  29.210  56.350  1.00  0.00     0.010 A 
HETATM   21  C   UNL     1       9.821  30.084  57.344  1.00  0.00     0.019 A 
HETATM   22  C   UNL     1       8.976  30.429  58.396  1.00  0.00     0.011 A 
HETATM   23 BR   UNL     1       9.582  31.612  59.739  1.00  0.00    -0.051 Br
HETATM   24  C   UNL     1       7.685  29.910  58.463  1.00  0.00     0.019 A 
HETATM   25  C   UNL     1       7.239  29.031  57.473  1.00  0.00     0.010 A 
ENDBRANCH   8  19
BRANCH   5  26
HETATM   26  N   UNL     1       4.314  27.283  50.614  1.00  0.00    -0.229 N 
HETATM   27  H   UNL     1       4.054  26.412  50.172  1.00  0.00     0.174 HD
HETATM   28  H   UNL     1       3.660  28.043  50.487  1.00  0.00     0.174 HD
ENDBRANCH   5  26
TORSDOF 4
ENDMDL
MODEL 3
REMARK VINA RESULT:      -8.8      1.754      2.509
REMARK  4 active torsions:
REMARK  status: ('A' for Active; 'I' for Inactive)
REMARK    1  A    between atoms: O_2  and  C_3 
REMARK    2  A    between atoms: C_5  and  C_6 
REMARK    3  A    between atoms: C_10  and  N_11 
REMARK    4  A    between atoms: C_14  and  C_15 
ROOT
HETATM    1  C   UNL     1       7.010  28.335  54.080  1.00  0.00     0.164 C 
HETATM    2  N   UNL     1       5.624  28.401  53.637  1.00  0.00    -0.074 N 
HETATM    3  C   UNL     1       4.798  27.316  53.514  1.00  0.00     0.736 A 
HETATM    4  N   UNL     1       3.610  27.729  53.155  1.00  0.00     0.131 NA
HETATM    5  C   UNL     1       3.780  29.077  53.023  1.00  0.00     0.753 A 
HETATM    6  N   UNL     1       4.991  29.542  53.322  1.00  0.00     0.037 NA
HETATM    7  N   UNL     1       5.243  26.065  53.755  1.00  0.00    -0.214 N 
HETATM    8  C   UNL     1       6.519  25.872  54.433  1.00  0.00     0.135 C 
HETATM    9  C   UNL     1       7.546  26.898  53.917  1.00  0.00     0.063 C 
HETATM   10  H   UNL     1       4.541  25.343  53.895  1.00  0.00     0.178 HD
ENDROOT
BRANCH   1  11
HETATM   11  C   UNL     1       7.204  28.840  55.508  1.00  0.00    -0.030 A 
HETATM   12  C   UNL     1       8.472  29.133  56.050  1.00  0.00     0.046 A 
HETATM   13  C   UNL     1       8.601  29.660  57.338  1.00  0.00     0.068 A 
HETATM   14  C   UNL     1       7.456  29.885  58.102  1.00  0.00     0.037 A 
HETATM   15  C   UNL     1       6.193  29.596  57.587  1.00  0.00     0.003 A 
HETATM   16  C   UNL     1       6.067  29.083  56.297  1.00  0.00     0.009 A 
BRANCH  13  17
HETATM   17  O   UNL     1       9.775  29.999  57.953  1.00  0.00    -0.356 OA
HETATM   18  C   UNL     1      10.958  29.938  57.166  1.00  0.00     0.210 C 
ENDBRANCH  13  17
ENDBRANCH   1  11
BRANCH   8  19
HETATM   19  C   UNL     1       7.029  24.455  54.238  1.00  0.00    -0.035 A 
HETATM   20  C   UNL     1       7.410  23.965  52.977  1.00  0.00     0.010 A 
HETATM   21  C   UNL     1       7.888  22.660  52.833  1.00  0.00     0.019 A 
HETATM   22  C   UNL     1       8.004  21.839  53.951  1.00  0.00     0.011 A 
HETATM   23 BR   UNL     1       8.653  20.074  53.758  1.00  0.00    -0.051 Br
HETATM   24  C   UNL     1       7.649  22.310  55.213  1.00  0.00     0.019 A 
HETATM   25  C   UNL     1       7.166  23.612  55.355  1.00  0.00     0.010 A 
ENDBRANCH   8  19
BRANCH   5  26
HETATM   26  N   UNL     1       2.740  29.816  52.651  1.00  0.00    -0.229 N 
HETATM   27  H   UNL     1       2.657  30.733  53.066  1.00  0.00     0.174 HD
HETATM   28  H   UNL     1       2.456  29.754  51.683  1.00  0.00     0.174 HD
ENDBRANCH   5  26
TORSDOF 4
ENDMDL
MODEL 4
REMARK VINA RESULT:      -8.8      4.253      6.110
REMARK  4 active torsions:
REMARK  status: ('A' for Active; 'I' for Inactive)
REMARK    1  A    between atoms: O_2  and  C_3 
REMARK    2  A    between atoms: C_5  and  C_6 
REMARK    3  A    between atoms: C_10  and  N_11 
REMARK    4  A    between atoms: C_14  and  C_15 
ROOT
HETATM    1  C   UNL     1       4.472  27.031  52.574  1.00  0.00     0.164 C 
HETATM    2  N   UNL     1       4.942  28.005  53.550  1.00  0.00    -0.074 N 
HETATM    3  C   UNL     1       6.019  27.818  54.375  1.00  0.00     0.736 A 
HETATM    4  N   UNL     1       6.203  28.904  55.080  1.00  0.00     0.131 NA
HETATM    5  C   UNL     1       5.175  29.708  54.682  1.00  0.00     0.753 A 
HETATM    6  N   UNL     1       4.382  29.212  53.735  1.00  0.00     0.037 NA
HETATM    7  N   UNL     1       6.710  26.660  54.373  1.00  0.00    -0.214 N 
HETATM    8  C   UNL     1       6.510  25.702  53.291  1.00  0.00     0.135 C 
HETATM    9  C   UNL     1       5.015  25.632  52.926  1.00  0.00     0.063 C 
HETATM   10  H   UNL     1       7.630  26.669  54.806  1.00  0.00     0.178 HD
ENDROOT
BRANCH   1  11
HETATM   11  C   UNL     1       4.819  27.415  51.137  1.00  0.00    -0.030 A 
HETATM   12  C   UNL     1       4.559  26.572  50.037  1.00  0.00     0.046 A 
HETATM   13  C   UNL     1       4.827  26.989  48.731  1.00  0.00     0.068 A 
HETATM   14  C   UNL     1       5.373  28.254  48.516  1.00  0.00     0.037 A 
HETATM   15  C   UNL     1       5.644  29.100  49.589  1.00  0.00     0.003 A 
HETATM   16  C   UNL     1       5.363  28.687  50.891  1.00  0.00     0.009 A 
BRANCH  13  17
HETATM   17  O   UNL     1       4.596  26.265  47.593  1.00  0.00    -0.356 OA
HETATM   18  C   UNL     1       3.345  25.594  47.496  1.00  0.00     0.210 C 
ENDBRANCH  13  17
ENDBRANCH   1  11
BRANCH   8  19
HETATM   19  C   UNL     1       7.035  24.331  53.676  1.00  0.00    -0.035 A 
HETATM   20  C   UNL     1       7.612  23.460  52.735  1.00  0.00     0.010 A 
HETATM   21  C   UNL     1       8.098  22.209  53.124  1.00  0.00     0.019 A 
HETATM   22  C   UNL     1       8.026  21.824  54.461  1.00  0.00     0.011 A 
HETATM   23 BR   UNL     1       8.685  20.133  54.989  1.00  0.00    -0.051 Br
HETATM   24  C   UNL     1       7.474  22.678  55.412  1.00  0.00     0.019 A 
HETATM   25  C   UNL     1       6.983  23.926  55.021  1.00  0.00     0.010 A 
ENDBRANCH   8  19
BRANCH   5  26
HETATM   26  N   UNL     1       5.064  30.915  55.227  1.00  0.00    -0.229 N 
HETATM   27  H   UNL     1       4.441  31.006  56.017  1.00  0.00     0.174 HD
HETATM   28  H   UNL     1       5.902  31.478  55.272  1.00  0.00     0.174 HD
ENDBRANCH   5  26
TORSDOF 4
ENDMDL
MODEL 5
REMARK VINA RESULT:      -8.5      2.851      4.673
REMARK  4 active torsions:
REMARK  status: ('A' for Active; 'I' for Inactive)
REMARK    1  A    between atoms: O_2  and  C_3 
REMARK    2  A    between atoms: C_5  and  C_6 
REMARK    3  A    between atoms: C_10  and  N_11 
REMARK    4  A    between atoms: C_14  and  C_15 
ROOT
HETATM    1  C   UNL     1       5.087  27.439  56.197  1.00  0.00     0.164 C 
HETATM    2  N   UNL     1       6.202  28.012  56.939  1.00  0.00    -0.074 N 
HETATM    3  C   UNL     1       7.501  27.589  56.834  1.00  0.00     0.736 A 
HETATM    4  N   UNL     1       8.253  28.352  57.584  1.00  0.00     0.131 NA
HETATM    5  C   UNL     1       7.354  29.195  58.168  1.00  0.00     0.753 A 
HETATM    6  N   UNL     1       6.085  29.040  57.794  1.00  0.00     0.037 NA
HETATM    7  N   UNL     1       7.837  26.546  56.049  1.00  0.00    -0.214 N 
HETATM    8  C   UNL     1       6.879  26.039  55.073  1.00  0.00     0.135 C 
HETATM    9  C   UNL     1       5.464  26.035  55.684  1.00  0.00     0.063 C 
HETATM   10  H   UNL     1       8.821  26.441  55.814  1.00  0.00     0.178 HD
ENDROOT
BRANCH   1  11
HETATM   11  C   UNL     1       4.607  28.335  55.058  1.00  0.00    -0.030 A 
HETATM   12  C   UNL     1       4.476  27.880  53.730  1.00  0.00     0.046 A 
HETATM   13  C   UNL     1       3.966  28.712  52.730  1.00  0.00     0.068 A 
HETATM   14  C   UNL     1       3.595  30.017  53.051  1.00  0.00     0.037 A 
HETATM   15  C   UNL     1       3.723  30.489  54.356  1.00  0.00     0.003 A 
HETATM   16  C   UNL     1       4.219  29.653  55.354  1.00  0.00     0.009 A 
BRANCH  13  17
HETATM   17  O   UNL     1       3.777  28.369  51.419  1.00  0.00    -0.356 OA
HETATM   18  C   UNL     1       4.942  28.209  50.618  1.00  0.00     0.210 C 
ENDBRANCH  13  17
ENDBRANCH   1  11
BRANCH   8  19
HETATM   19  C   UNL     1       7.266  24.649  54.602  1.00  0.00    -0.035 A 
HETATM   20  C   UNL     1       7.308  23.548  55.476  1.00  0.00     0.010 A 
HETATM   21  C   UNL     1       7.656  22.279  55.008  1.00  0.00     0.019 A 
HETATM   22  C   UNL     1       7.950  22.094  53.659  1.00  0.00     0.011 A 
HETATM   23 BR   UNL     1       8.419  20.377  53.025  1.00  0.00    -0.051 Br
HETATM   24  C   UNL     1       7.897  23.168  52.773  1.00  0.00     0.019 A 
HETATM   25  C   UNL     1       7.555  24.438  53.242  1.00  0.00     0.010 A 
ENDBRANCH   8  19
BRANCH   5  26
HETATM   26  N   UNL     1       7.800  30.114  59.017  1.00  0.00    -0.229 N 
HETATM   27  H   UNL     1       8.367  29.790  59.788  1.00  0.00     0.174 HD
HETATM   28  H   UNL     1       8.072  31.006  58.627  1.00  0.00     0.174 HD
ENDBRANCH   5  26
TORSDOF 4
ENDMDL
MODEL 6
REMARK VINA RESULT:      -8.4      2.581      3.766
REMARK  4 active torsions:
REMARK  status: ('A' for Active; 'I' for Inactive)
REMARK    1  A    between atoms: O_2  and  C_3 
REMARK    2  A    between atoms: C_5  and  C_6 
REMARK    3  A    between atoms: C_10  and  N_11 
REMARK    4  A    between atoms: C_14  and  C_15 
ROOT
HETATM    1  C   UNL     1       6.905  28.081  53.591  1.00  0.00     0.164 C 
HETATM    2  N   UNL     1       6.129  28.044  52.359  1.00  0.00    -0.074 N 
HETATM    3  C   UNL     1       5.618  26.904  51.798  1.00  0.00     0.736 A 
HETATM    4  N   UNL     1       4.927  27.230  50.737  1.00  0.00     0.131 NA
HETATM    5  C   UNL     1       5.090  28.583  50.666  1.00  0.00     0.753 A 
HETATM    6  N   UNL     1       5.804  29.134  51.644  1.00  0.00     0.037 NA
HETATM    7  N   UNL     1       5.851  25.692  52.341  1.00  0.00    -0.214 N 
HETATM    8  C   UNL     1       6.396  25.598  53.691  1.00  0.00     0.135 C 
HETATM    9  C   UNL     1       7.473  26.681  53.894  1.00  0.00     0.063 C 
HETATM   10  H   UNL     1       5.252  24.927  52.040  1.00  0.00     0.178 HD
ENDROOT
BRANCH   1  11
HETATM   11  C   UNL     1       6.113  28.627  54.777  1.00  0.00    -0.030 A 
HETATM   12  C   UNL     1       6.730  29.164  55.926  1.00  0.00     0.046 A 
HETATM   13  C   UNL     1       5.970  29.718  56.959  1.00  0.00     0.068 A 
HETATM   14  C   UNL     1       4.579  29.724  56.857  1.00  0.00     0.037 A 
HETATM   15  C   UNL     1       3.950  29.191  55.734  1.00  0.00     0.003 A 
HETATM   16  C   UNL     1       4.710  28.652  54.698  1.00  0.00     0.009 A 
BRANCH  13  17
HETATM   17  O   UNL     1       6.462  30.283  58.104  1.00  0.00    -0.356 OA
HETATM   18  C   UNL     1       7.866  30.511  58.161  1.00  0.00     0.210 C 
ENDBRANCH  13  17
ENDBRANCH   1  11
BRANCH   8  19
HETATM   19  C   UNL     1       6.966  24.215  53.951  1.00  0.00    -0.035 A 
HETATM   20  C   UNL     1       7.466  23.405  52.918  1.00  0.00     0.010 A 
HETATM   21  C   UNL     1       7.996  22.142  53.193  1.00  0.00     0.019 A 
HETATM   22  C   UNL     1       8.046  21.684  54.507  1.00  0.00     0.011 A 
HETATM   23 BR   UNL     1       8.764  19.976  54.882  1.00  0.00    -0.051 Br
HETATM   24  C   UNL     1       7.572  22.478  55.549  1.00  0.00     0.019 A 
HETATM   25  C   UNL     1       7.037  23.738  55.272  1.00  0.00     0.010 A 
ENDBRANCH   8  19
BRANCH   5  26
HETATM   26  N   UNL     1       4.507  29.243  49.671  1.00  0.00    -0.229 N 
HETATM   27  H   UNL     1       4.068  28.690  48.948  1.00  0.00     0.174 HD
HETATM   28  H   UNL     1       4.028  30.100  49.908  1.00  0.00     0.174 HD
ENDBRANCH   5  26
TORSDOF 4
ENDMDL
MODEL 7
REMARK VINA RESULT:      -8.3      4.080      5.984
REMARK  4 active torsions:
REMARK  status: ('A' for Active; 'I' for Inactive)
REMARK    1  A    between atoms: O_2  and  C_3 
REMARK    2  A    between atoms: C_5  and  C_6 
REMARK    3  A    between atoms: C_10  and  N_11 
REMARK    4  A    between atoms: C_14  and  C_15 
ROOT
HETATM    1  C   UNL     1       5.615  25.145  54.645  1.00  0.00     0.164 C 
HETATM    2  N   UNL     1       6.696  24.255  54.245  1.00  0.00    -0.074 N 
HETATM    3  C   UNL     1       7.341  24.312  53.039  1.00  0.00     0.736 A 
HETATM    4  N   UNL     1       8.295  23.417  53.028  1.00  0.00     0.131 NA
HETATM    5  C   UNL     1       8.155  22.803  54.238  1.00  0.00     0.753 A 
HETATM    6  N   UNL     1       7.201  23.289  55.030  1.00  0.00     0.037 NA
HETATM    7  N   UNL     1       6.972  25.195  52.088  1.00  0.00    -0.214 N 
HETATM    8  C   UNL     1       6.081  26.297  52.434  1.00  0.00     0.135 C 
HETATM    9  C   UNL     1       4.987  25.800  53.399  1.00  0.00     0.063 C 
HETATM   10  H   UNL     1       7.631  25.365  51.333  1.00  0.00     0.178 HD
ENDROOT
BRANCH   1  11
HETATM   11  C   UNL     1       6.054  26.196  55.662  1.00  0.00    -0.030 A 
HETATM   12  C   UNL     1       7.403  26.397  56.020  1.00  0.00     0.046 A 
HETATM   13  C   UNL     1       7.770  27.416  56.903  1.00  0.00     0.068 A 
HETATM   14  C   UNL     1       6.783  28.236  57.448  1.00  0.00     0.037 A 
HETATM   15  C   UNL     1       5.443  28.050  57.113  1.00  0.00     0.003 A 
HETATM   16  C   UNL     1       5.081  27.041  56.222  1.00  0.00     0.009 A 
BRANCH  13  17
HETATM   17  O   UNL     1       9.045  27.713  57.301  1.00  0.00    -0.356 OA
HETATM   18  C   UNL     1       9.515  29.029  57.037  1.00  0.00     0.210 C 
ENDBRANCH  13  17
ENDBRANCH   1  11
BRANCH   8  19
HETATM   19  C   UNL     1       5.463  26.907  51.188  1.00  0.00    -0.035 A 
HETATM   20  C   UNL     1       4.900  26.119  50.170  1.00  0.00     0.010 A 
HETATM   21  C   UNL     1       4.328  26.713  49.042  1.00  0.00     0.019 A 
HETATM   22  C   UNL     1       4.299  28.101  48.930  1.00  0.00     0.011 A 
HETATM   23 BR   UNL     1       3.523  28.905  47.406  1.00  0.00    -0.051 Br
HETATM   24  C   UNL     1       4.835  28.901  49.936  1.00  0.00     0.019 A 
HETATM   25  C   UNL     1       5.413  28.306  51.060  1.00  0.00     0.010 A 
ENDBRANCH   8  19
BRANCH   5  26
HETATM   26  N   UNL     1       8.986  21.814  54.549  1.00  0.00    -0.229 N 
HETATM   27  H   UNL     1       8.865  20.940  54.057  1.00  0.00     0.174 HD
HETATM   28  H   UNL     1       9.944  22.065  54.752  1.00  0.00     0.174 HD
ENDBRANCH   5  26
TORSDOF 4
ENDMDL
MODEL 8
REMARK VINA RESULT:      -8.1      3.791      4.839
REMARK  4 active torsions:
REMARK  status: ('A' for Active; 'I' for Inactive)
REMARK    1  A    between atoms: O_2  and  C_3 
REMARK    2  A    between atoms: C_5  and  C_6 
REMARK    3  A    between atoms: C_10  and  N_11 
REMARK    4  A    between atoms: C_14  and  C_15 
ROOT
HETATM    1  C   UNL     1       6.468  27.872  52.950  1.00  0.00     0.164 C 
HETATM    2  N   UNL     1       5.781  27.607  51.693  1.00  0.00    -0.074 N 
HETATM    3  C   UNL     1       5.407  26.362  51.261  1.00  0.00     0.736 A 
HETATM    4  N   UNL     1       4.762  26.485  50.131  1.00  0.00     0.131 NA
HETATM    5  C   UNL     1       4.813  27.827  49.890  1.00  0.00     0.753 A 
HETATM    6  N   UNL     1       5.413  28.562  50.824  1.00  0.00     0.037 NA
HETATM    7  N   UNL     1       5.706  25.256  51.972  1.00  0.00    -0.214 N 
HETATM    8  C   UNL     1       6.167  25.385  53.349  1.00  0.00     0.135 C 
HETATM    9  C   UNL     1       7.133  26.580  53.466  1.00  0.00     0.063 C 
HETATM   10  H   UNL     1       5.195  24.407  51.743  1.00  0.00     0.178 HD
ENDROOT
BRANCH   1  11
HETATM   11  C   UNL     1       5.556  28.488  54.009  1.00  0.00    -0.030 A 
HETATM   12  C   UNL     1       4.663  29.542  53.728  1.00  0.00     0.046 A 
HETATM   13  C   UNL     1       3.795  30.031  54.709  1.00  0.00     0.068 A 
HETATM   14  C   UNL     1       3.826  29.475  55.987  1.00  0.00     0.037 A 
HETATM   15  C   UNL     1       4.707  28.438  56.287  1.00  0.00     0.003 A 
HETATM   16  C   UNL     1       5.562  27.943  55.304  1.00  0.00     0.009 A 
BRANCH  13  17
HETATM   17  O   UNL     1       2.877  31.031  54.542  1.00  0.00    -0.356 OA
HETATM   18  C   UNL     1       3.227  32.089  53.658  1.00  0.00     0.210 C 
ENDBRANCH  13  17
ENDBRANCH   1  11
BRANCH   8  19
HETATM   19  C   UNL     1       6.834  24.106  53.821  1.00  0.00    -0.035 A 
HETATM   20  C   UNL     1       7.385  23.175  52.924  1.00  0.00     0.010 A 
HETATM   21  C   UNL     1       8.004  22.012  53.392  1.00  0.00     0.019 A 
HETATM   22  C   UNL     1       8.092  21.779  54.762  1.00  0.00     0.011 A 
HETATM   23 BR   UNL     1       8.931  20.208  55.396  1.00  0.00    -0.051 Br
HETATM   24  C   UNL     1       7.569  22.697  55.669  1.00  0.00     0.019 A 
HETATM   25  C   UNL     1       6.944  23.855  55.201  1.00  0.00     0.010 A 
ENDBRANCH   8  19
BRANCH   5  26
HETATM   26  N   UNL     1       4.243  28.298  48.786  1.00  0.00    -0.229 N 
HETATM   27  H   UNL     1       4.856  28.674  48.076  1.00  0.00     0.174 HD
HETATM   28  H   UNL     1       3.436  27.799  48.438  1.00  0.00     0.174 HD
ENDBRANCH   5  26
TORSDOF 4
ENDMDL
MODEL 9
REMARK VINA RESULT:      -7.6      5.902      8.884
REMARK  4 active torsions:
REMARK  status: ('A' for Active; 'I' for Inactive)
REMARK    1  A    between atoms: O_2  and  C_3 
REMARK    2  A    between atoms: C_5  and  C_6 
REMARK    3  A    between atoms: C_10  and  N_11 
REMARK    4  A    between atoms: C_14  and  C_15 
ROOT
HETATM    1  C   UNL     1       5.591  34.618  61.896  1.00  0.00     0.164 C 
HETATM    2  N   UNL     1       4.277  34.216  61.413  1.00  0.00    -0.074 N 
HETATM    3  C   UNL     1       4.041  33.113  60.636  1.00  0.00     0.736 A 
HETATM    4  N   UNL     1       2.754  33.009  60.431  1.00  0.00     0.131 NA
HETATM    5  C   UNL     1       2.251  34.107  61.065  1.00  0.00     0.753 A 
HETATM    6  N   UNL     1       3.140  34.871  61.697  1.00  0.00     0.037 NA
HETATM    7  N   UNL     1       5.052  32.327  60.210  1.00  0.00    -0.214 N 
HETATM    8  C   UNL     1       6.374  32.464  60.810  1.00  0.00     0.135 C 
HETATM    9  C   UNL     1       6.690  33.954  61.043  1.00  0.00     0.063 C 
HETATM   10  H   UNL     1       4.805  31.404  59.862  1.00  0.00     0.178 HD
ENDROOT
BRANCH   1  11
HETATM   11  C   UNL     1       5.792  34.329  63.382  1.00  0.00    -0.030 A 
HETATM   12  C   UNL     1       4.768  34.492  64.338  1.00  0.00     0.046 A 
HETATM   13  C   UNL     1       4.972  34.150  65.678  1.00  0.00     0.068 A 
HETATM   14  C   UNL     1       6.214  33.653  66.075  1.00  0.00     0.037 A 
HETATM   15  C   UNL     1       7.241  33.491  65.147  1.00  0.00     0.003 A 
HETATM   16  C   UNL     1       7.031  33.821  63.809  1.00  0.00     0.009 A 
BRANCH  13  17
HETATM   17  O   UNL     1       4.047  34.247  66.681  1.00  0.00    -0.356 OA
HETATM   18  C   UNL     1       3.124  35.327  66.607  1.00  0.00     0.210 C 
ENDBRANCH  13  17
ENDBRANCH   1  11
BRANCH   8  19
HETATM   19  C   UNL     1       7.436  31.819  59.937  1.00  0.00    -0.035 A 
HETATM   20  C   UNL     1       7.133  30.792  59.027  1.00  0.00     0.010 A 
HETATM   21  C   UNL     1       8.132  30.227  58.229  1.00  0.00     0.019 A 
HETATM   22  C   UNL     1       9.439  30.697  58.322  1.00  0.00     0.011 A 
HETATM   23 BR   UNL     1      10.791  29.937  57.241  1.00  0.00    -0.051 Br
HETATM   24  C   UNL     1       9.758  31.727  59.204  1.00  0.00     0.019 A 
HETATM   25  C   UNL     1       8.761  32.286  60.007  1.00  0.00     0.010 A 
ENDBRANCH   8  19
BRANCH   5  26
HETATM   26  N   UNL     1       0.938  34.311  61.042  1.00  0.00    -0.229 N 
HETATM   27  H   UNL     1       0.598  35.165  61.461  1.00  0.00     0.174 HD
HETATM   28  H   UNL     1       0.442  34.010  60.214  1.00  0.00     0.174 HD
ENDBRANCH   5  26
TORSDOF 4
ENDMDL
MODEL 10
REMARK VINA RESULT:      -7.5      4.399      7.254
REMARK  4 active torsions:
REMARK  status: ('A' for Active; 'I' for Inactive)
REMARK    1  A    between atoms: O_2  and  C_3 
REMARK    2  A    between atoms: C_5  and  C_6 
REMARK    3  A    between atoms: C_10  and  N_11 
REMARK    4  A    between atoms: C_14  and  C_15 
ROOT
HETATM    1  C   UNL     1       4.990  26.333  53.673  1.00  0.00     0.164 C 
HETATM    2  N   UNL     1       5.208  26.985  52.388  1.00  0.00    -0.074 N 
HETATM    3  C   UNL     1       5.659  28.269  52.237  1.00  0.00     0.736 A 
HETATM    4  N   UNL     1       5.800  28.518  50.962  1.00  0.00     0.131 NA
HETATM    5  C   UNL     1       5.371  27.365  50.372  1.00  0.00     0.753 A 
HETATM    6  N   UNL     1       5.012  26.388  51.202  1.00  0.00     0.037 NA
HETATM    7  N   UNL     1       5.892  29.060  53.305  1.00  0.00    -0.214 N 
HETATM    8  C   UNL     1       5.953  28.472  54.639  1.00  0.00     0.135 C 
HETATM    9  C   UNL     1       4.862  27.394  54.784  1.00  0.00     0.063 C 
HETATM   10  H   UNL     1       6.456  29.892  53.150  1.00  0.00     0.178 HD
ENDROOT
BRANCH   1  11
HETATM   11  C   UNL     1       6.068  25.306  54.009  1.00  0.00    -0.030 A 
HETATM   12  C   UNL     1       6.360  24.204  53.178  1.00  0.00     0.046 A 
HETATM   13  C   UNL     1       7.402  23.326  53.487  1.00  0.00     0.068 A 
HETATM   14  C   UNL     1       8.154  23.536  54.642  1.00  0.00     0.037 A 
HETATM   15  C   UNL     1       7.877  24.614  55.481  1.00  0.00     0.003 A 
HETATM   16  C   UNL     1       6.846  25.496  55.164  1.00  0.00     0.009 A 
BRANCH  13  17
HETATM   17  O   UNL     1       7.785  22.242  52.744  1.00  0.00    -0.356 OA
HETATM   18  C   UNL     1       8.729  21.356  53.333  1.00  0.00     0.210 C 
ENDBRANCH  13  17
ENDBRANCH   1  11
BRANCH   8  19
HETATM   19  C   UNL     1       5.804  29.538  55.709  1.00  0.00    -0.035 A 
HETATM   20  C   UNL     1       6.598  29.550  56.869  1.00  0.00     0.010 A 
HETATM   21  C   UNL     1       6.444  30.552  57.829  1.00  0.00     0.019 A 
HETATM   22  C   UNL     1       5.506  31.562  57.631  1.00  0.00     0.011 A 
HETATM   23 BR   UNL     1       5.298  32.921  58.929  1.00  0.00    -0.051 Br
HETATM   24  C   UNL     1       4.721  31.580  56.481  1.00  0.00     0.019 A 
HETATM   25  C   UNL     1       4.871  30.573  55.524  1.00  0.00     0.010 A 
ENDBRANCH   8  19
BRANCH   5  26
HETATM   26  N   UNL     1       5.378  27.287  49.046  1.00  0.00    -0.229 N 
HETATM   27  H   UNL     1       6.268  27.116  48.600  1.00  0.00     0.174 HD
HETATM   28  H   UNL     1       4.584  26.840  48.609  1.00  0.00     0.174 HD
ENDBRANCH   5  26
TORSDOF 4
ENDMDL
