MODEL 1
REMARK VINA RESULT:      -8.8      0.000      0.000
REMARK  4 active torsions:
REMARK  status: ('A' for Active; 'I' for Inactive)
REMARK    1  A    between atoms: C_9  and  C_10 
REMARK       I    between atoms: C_10  and  N_11 
REMARK    2  A    between atoms: N_11  and  C_12 
REMARK    3  A    between atoms: C_12  and  C_13 
REMARK    4  A    between atoms: C_14  and  O_15 
ROOT
HETATM    1  C   UNL     1       7.569  25.986  55.256  1.00  0.00     0.273 C 
HETATM    2  N   UNL     1       7.202  27.065  56.029  1.00  0.00    -0.347 N 
HETATM    3  O   UNL     1       7.648  26.015  54.031  1.00  0.00    -0.266 OA
HETATM    4  H   UNL     1       7.343  26.926  57.026  1.00  0.00     0.163 HD
ENDROOT
BRANCH   1   5
HETATM    5  C   UNL     1       7.873  24.785  56.052  1.00  0.00     0.157 A 
HETATM    6  C   UNL     1       7.974  23.441  55.585  1.00  0.00     0.029 A 
HETATM    7  C   UNL     1       7.825  22.782  54.348  1.00  0.00     0.023 A 
HETATM    8  C   UNL     1       8.295  22.691  56.709  1.00  0.00     0.063 A 
HETATM    9  C   UNL     1       7.998  21.388  54.282  1.00  0.00    -0.061 A 
HETATM   10  C   UNL     1       7.822  20.662  52.978  1.00  0.00     0.048 C 
HETATM   11  C   UNL     1       8.327  20.671  55.438  1.00  0.00     0.009 A 
HETATM   12  C   UNL     1       8.484  21.307  56.676  1.00  0.00     0.032 A 
HETATM   13  N   UNL     1       8.363  23.591  57.736  1.00  0.00    -0.277 N 
HETATM   14  H   UNL     1       8.580  23.397  58.706  1.00  0.00     0.189 HD
HETATM   15  N   UNL     1       8.103  24.861  57.382  1.00  0.00    -0.168 NA
ENDBRANCH   1   5
BRANCH   2  16
HETATM   16  C   UNL     1       7.116  28.420  55.516  1.00  0.00     0.116 C 
HETATM   17  C   UNL     1       5.843  28.645  54.687  1.00  0.00     0.037 C 
BRANCH  16  18
HETATM   18  C   UNL     1       7.237  29.402  56.678  1.00  0.00    -0.003 A 
HETATM   19  C   UNL     1       8.445  29.526  57.399  1.00  0.00     0.076 A 
HETATM   20  C   UNL     1       8.531  30.431  58.464  1.00  0.00     0.037 A 
HETATM   21  C   UNL     1       7.424  31.193  58.841  1.00  0.00     0.003 A 
HETATM   22  C   UNL     1       6.219  31.052  58.162  1.00  0.00     0.001 A 
HETATM   23  C   UNL     1       6.125  30.160  57.096  1.00  0.00     0.012 A 
BRANCH  19  24
HETATM   24  O   UNL     1       9.483  28.734  56.982  1.00  0.00    -0.355 OA
HETATM   25  C   UNL     1      10.721  29.375  56.702  1.00  0.00     0.210 C 
ENDBRANCH  19  24
ENDBRANCH  16  18
ENDBRANCH   2  16
TORSDOF 4
ENDMDL
MODEL 2
REMARK VINA RESULT:      -8.8      1.378      2.001
REMARK  4 active torsions:
REMARK  status: ('A' for Active; 'I' for Inactive)
REMARK    1  A    between atoms: C_9  and  C_10 
REMARK       I    between atoms: C_10  and  N_11 
REMARK    2  A    between atoms: N_11  and  C_12 
REMARK    3  A    between atoms: C_12  and  C_13 
REMARK    4  A    between atoms: C_14  and  O_15 
ROOT
HETATM    1  C   UNL     1       7.098  27.596  56.402  1.00  0.00     0.273 C 
HETATM    2  N   UNL     1       6.942  28.494  57.434  1.00  0.00    -0.347 N 
HETATM    3  O   UNL     1       6.886  27.863  55.223  1.00  0.00    -0.266 OA
HETATM    4  H   UNL     1       7.313  28.170  58.323  1.00  0.00     0.163 HD
ENDROOT
BRANCH   1   5
HETATM    5  C   UNL     1       7.563  26.274  56.855  1.00  0.00     0.157 A 
HETATM    6  C   UNL     1       7.769  25.109  56.057  1.00  0.00     0.029 A 
HETATM    7  C   UNL     1       7.615  24.770  54.698  1.00  0.00     0.023 A 
HETATM    8  C   UNL     1       8.225  24.141  56.942  1.00  0.00     0.063 A 
HETATM    9  C   UNL     1       7.920  23.465  54.272  1.00  0.00    -0.061 A 
HETATM   10  C   UNL     1       7.742  23.075  52.833  1.00  0.00     0.048 C 
HETATM   11  C   UNL     1       8.382  22.521  55.197  1.00  0.00     0.009 A 
HETATM   12  C   UNL     1       8.546  22.839  56.551  1.00  0.00     0.032 A 
HETATM   13  N   UNL     1       8.262  24.756  58.163  1.00  0.00    -0.277 N 
HETATM   14  H   UNL     1       8.552  24.350  59.044  1.00  0.00     0.189 HD
HETATM   15  N   UNL     1       7.859  26.038  58.154  1.00  0.00    -0.168 NA
ENDBRANCH   1   5
BRANCH   2  16
HETATM   16  C   UNL     1       6.758  29.919  57.230  1.00  0.00     0.116 C 
HETATM   17  C   UNL     1       5.282  30.333  57.327  1.00  0.00     0.037 C 
BRANCH  16  18
HETATM   18  C   UNL     1       7.645  30.683  58.211  1.00  0.00    -0.003 A 
HETATM   19  C   UNL     1       9.051  30.591  58.138  1.00  0.00     0.076 A 
HETATM   20  C   UNL     1       9.844  31.298  59.051  1.00  0.00     0.037 A 
HETATM   21  C   UNL     1       9.255  32.070  60.054  1.00  0.00     0.003 A 
HETATM   22  C   UNL     1       7.871  32.137  60.158  1.00  0.00     0.001 A 
HETATM   23  C   UNL     1       7.074  31.443  59.250  1.00  0.00     0.012 A 
BRANCH  19  24
HETATM   24  O   UNL     1       9.557  29.802  57.137  1.00  0.00    -0.355 OA
HETATM   25  C   UNL     1      10.972  29.721  57.022  1.00  0.00     0.210 C 
ENDBRANCH  19  24
ENDBRANCH  16  18
ENDBRANCH   2  16
TORSDOF 4
ENDMDL
MODEL 3
REMARK VINA RESULT:      -8.5      2.040      7.233
REMARK  4 active torsions:
REMARK  status: ('A' for Active; 'I' for Inactive)
REMARK    1  A    between atoms: C_9  and  C_10 
REMARK       I    between atoms: C_10  and  N_11 
REMARK    2  A    between atoms: N_11  and  C_12 
REMARK    3  A    between atoms: C_12  and  C_13 
REMARK    4  A    between atoms: C_14  and  O_15 
ROOT
HETATM    1  C   UNL     1       6.941  28.006  55.620  1.00  0.00     0.273 C 
HETATM    2  N   UNL     1       7.113  26.910  54.803  1.00  0.00    -0.347 N 
HETATM    3  O   UNL     1       5.873  28.311  56.141  1.00  0.00    -0.266 OA
HETATM    4  H   UNL     1       8.084  26.705  54.586  1.00  0.00     0.163 HD
ENDROOT
BRANCH   1   5
HETATM    5  C   UNL     1       8.181  28.776  55.818  1.00  0.00     0.157 A 
HETATM    6  C   UNL     1       8.585  29.476  56.993  1.00  0.00     0.029 A 
HETATM    7  C   UNL     1       8.040  29.716  58.270  1.00  0.00     0.023 A 
HETATM    8  C   UNL     1       9.827  30.016  56.683  1.00  0.00     0.063 A 
HETATM    9  C   UNL     1       8.758  30.496  59.193  1.00  0.00    -0.061 A 
HETATM   10  C   UNL     1       8.185  30.783  60.552  1.00  0.00     0.048 C 
HETATM   11  C   UNL     1      10.009  31.017  58.841  1.00  0.00     0.009 A 
HETATM   12  C   UNL     1      10.571  30.786  57.580  1.00  0.00     0.032 A 
HETATM   13  N   UNL     1      10.080  29.623  55.397  1.00  0.00    -0.277 N 
HETATM   14  H   UNL     1      10.902  29.833  54.844  1.00  0.00     0.189 HD
HETATM   15  N   UNL     1       9.106  28.885  54.838  1.00  0.00    -0.168 NA
ENDBRANCH   1   5
BRANCH   2  16
HETATM   16  C   UNL     1       6.127  25.853  54.669  1.00  0.00     0.116 C 
HETATM   17  C   UNL     1       5.123  26.136  53.542  1.00  0.00     0.037 C 
BRANCH  16  18
HETATM   18  C   UNL     1       6.847  24.519  54.489  1.00  0.00    -0.003 A 
HETATM   19  C   UNL     1       7.462  23.874  55.584  1.00  0.00     0.076 A 
HETATM   20  C   UNL     1       8.120  22.653  55.393  1.00  0.00     0.037 A 
HETATM   21  C   UNL     1       8.201  22.080  54.123  1.00  0.00     0.003 A 
HETATM   22  C   UNL     1       7.632  22.725  53.031  1.00  0.00     0.001 A 
HETATM   23  C   UNL     1       6.968  23.937  53.212  1.00  0.00     0.012 A 
BRANCH  19  24
HETATM   24  O   UNL     1       7.356  24.504  56.797  1.00  0.00    -0.355 OA
HETATM   25  C   UNL     1       8.564  24.900  57.434  1.00  0.00     0.210 C 
ENDBRANCH  19  24
ENDBRANCH  16  18
ENDBRANCH   2  16
TORSDOF 4
ENDMDL
MODEL 4
REMARK VINA RESULT:      -8.3      1.951      6.904
REMARK  4 active torsions:
REMARK  status: ('A' for Active; 'I' for Inactive)
REMARK    1  A    between atoms: C_9  and  C_10 
REMARK       I    between atoms: C_10  and  N_11 
REMARK    2  A    between atoms: N_11  and  C_12 
REMARK    3  A    between atoms: C_12  and  C_13 
REMARK    4  A    between atoms: C_14  and  O_15 
ROOT
HETATM    1  C   UNL     1       6.120  26.506  54.279  1.00  0.00     0.273 C 
HETATM    2  N   UNL     1       7.072  25.511  54.292  1.00  0.00    -0.347 N 
HETATM    3  O   UNL     1       5.396  26.750  53.319  1.00  0.00    -0.266 OA
HETATM    4  H   UNL     1       7.470  25.332  55.210  1.00  0.00     0.163 HD
ENDROOT
BRANCH   1   5
HETATM    5  C   UNL     1       6.048  27.249  55.549  1.00  0.00     0.157 A 
HETATM    6  C   UNL     1       7.051  28.088  56.119  1.00  0.00     0.029 A 
HETATM    7  C   UNL     1       8.358  28.486  55.772  1.00  0.00     0.023 A 
HETATM    8  C   UNL     1       6.495  28.566  57.298  1.00  0.00     0.063 A 
HETATM    9  C   UNL     1       9.067  29.349  56.626  1.00  0.00    -0.061 A 
HETATM   10  C   UNL     1      10.469  29.769  56.288  1.00  0.00     0.048 C 
HETATM   11  C   UNL     1       8.467  29.812  57.803  1.00  0.00     0.009 A 
HETATM   12  C   UNL     1       7.168  29.432  58.164  1.00  0.00     0.032 A 
HETATM   13  N   UNL     1       5.248  28.009  57.361  1.00  0.00    -0.277 N 
HETATM   14  H   UNL     1       4.555  28.141  58.088  1.00  0.00     0.189 HD
HETATM   15  N   UNL     1       4.946  27.199  56.332  1.00  0.00    -0.168 NA
ENDBRANCH   1   5
BRANCH   2  16
HETATM   16  C   UNL     1       7.156  24.475  53.279  1.00  0.00     0.116 C 
HETATM   17  C   UNL     1       8.004  24.911  52.074  1.00  0.00     0.037 C 
BRANCH  16  18
HETATM   18  C   UNL     1       7.670  23.189  53.920  1.00  0.00    -0.003 A 
HETATM   19  C   UNL     1       8.309  23.213  55.178  1.00  0.00     0.076 A 
HETATM   20  C   UNL     1       8.776  22.020  55.745  1.00  0.00     0.037 A 
HETATM   21  C   UNL     1       8.641  20.809  55.064  1.00  0.00     0.003 A 
HETATM   22  C   UNL     1       8.046  20.779  53.809  1.00  0.00     0.001 A 
HETATM   23  C   UNL     1       7.572  21.960  53.239  1.00  0.00     0.012 A 
BRANCH  19  24
HETATM   24  O   UNL     1       8.420  24.440  55.779  1.00  0.00    -0.355 OA
HETATM   25  C   UNL     1       8.767  24.461  57.158  1.00  0.00     0.210 C 
ENDBRANCH  19  24
ENDBRANCH  16  18
ENDBRANCH   2  16
TORSDOF 4
ENDMDL
MODEL 5
REMARK VINA RESULT:      -8.2      2.496      6.987
REMARK  4 active torsions:
REMARK  status: ('A' for Active; 'I' for Inactive)
REMARK    1  A    between atoms: C_9  and  C_10 
REMARK       I    between atoms: C_10  and  N_11 
REMARK    2  A    between atoms: N_11  and  C_12 
REMARK    3  A    between atoms: C_12  and  C_13 
REMARK    4  A    between atoms: C_14  and  O_15 
ROOT
HETATM    1  C   UNL     1       7.208  26.668  56.269  1.00  0.00     0.273 C 
HETATM    2  N   UNL     1       7.203  25.302  56.094  1.00  0.00    -0.347 N 
HETATM    3  O   UNL     1       8.175  27.303  56.678  1.00  0.00    -0.266 OA
HETATM    4  H   UNL     1       6.388  24.952  55.598  1.00  0.00     0.163 HD
ENDROOT
BRANCH   1   5
HETATM    5  C   UNL     1       5.929  27.300  55.902  1.00  0.00     0.157 A 
HETATM    6  C   UNL     1       5.451  27.585  54.589  1.00  0.00     0.029 A 
HETATM    7  C   UNL     1       5.938  27.429  53.275  1.00  0.00     0.023 A 
HETATM    8  C   UNL     1       4.200  28.157  54.776  1.00  0.00     0.063 A 
HETATM    9  C   UNL     1       5.153  27.858  52.191  1.00  0.00    -0.061 A 
HETATM   10  C   UNL     1       5.661  27.722  50.784  1.00  0.00     0.048 C 
HETATM   11  C   UNL     1       3.894  28.425  52.424  1.00  0.00     0.009 A 
HETATM   12  C   UNL     1       3.390  28.585  53.721  1.00  0.00     0.032 A 
HETATM   13  N   UNL     1       4.012  28.180  56.130  1.00  0.00    -0.277 N 
HETATM   14  H   UNL     1       3.203  28.527  56.630  1.00  0.00     0.189 HD
HETATM   15  N   UNL     1       5.037  27.683  56.843  1.00  0.00    -0.168 NA
ENDBRANCH   1   5
BRANCH   2  16
HETATM   16  C   UNL     1       8.406  24.490  56.125  1.00  0.00     0.116 C 
HETATM   17  C   UNL     1       8.824  24.128  57.558  1.00  0.00     0.037 C 
BRANCH  16  18
HETATM   18  C   UNL     1       8.199  23.258  55.248  1.00  0.00    -0.003 A 
HETATM   19  C   UNL     1       7.986  23.386  53.858  1.00  0.00     0.076 A 
HETATM   20  C   UNL     1       7.794  22.241  53.075  1.00  0.00     0.037 A 
HETATM   21  C   UNL     1       7.783  20.973  53.659  1.00  0.00     0.003 A 
HETATM   22  C   UNL     1       7.954  20.838  55.032  1.00  0.00     0.001 A 
HETATM   23  C   UNL     1       8.153  21.971  55.819  1.00  0.00     0.012 A 
BRANCH  19  24
HETATM   24  O   UNL     1       7.994  24.662  53.359  1.00  0.00    -0.355 OA
HETATM   25  C   UNL     1       7.909  24.810  51.947  1.00  0.00     0.210 C 
ENDBRANCH  19  24
ENDBRANCH  16  18
ENDBRANCH   2  16
TORSDOF 4
ENDMDL
MODEL 6
REMARK VINA RESULT:      -8.2      1.755      7.699
REMARK  4 active torsions:
REMARK  status: ('A' for Active; 'I' for Inactive)
REMARK    1  A    between atoms: C_9  and  C_10 
REMARK       I    between atoms: C_10  and  N_11 
REMARK    2  A    between atoms: N_11  and  C_12 
REMARK    3  A    between atoms: C_12  and  C_13 
REMARK    4  A    between atoms: C_14  and  O_15 
ROOT
HETATM    1  C   UNL     1       7.368  26.334  56.407  1.00  0.00     0.273 C 
HETATM    2  N   UNL     1       7.282  24.994  56.098  1.00  0.00    -0.347 N 
HETATM    3  O   UNL     1       8.333  26.848  56.965  1.00  0.00    -0.266 OA
HETATM    4  H   UNL     1       6.499  24.759  55.495  1.00  0.00     0.163 HD
ENDROOT
BRANCH   1   5
HETATM    5  C   UNL     1       6.183  27.099  55.985  1.00  0.00     0.157 A 
HETATM    6  C   UNL     1       5.779  28.389  56.442  1.00  0.00     0.029 A 
HETATM    7  C   UNL     1       6.258  29.332  57.372  1.00  0.00     0.023 A 
HETATM    8  C   UNL     1       4.619  28.676  55.733  1.00  0.00     0.063 A 
HETATM    9  C   UNL     1       5.553  30.534  57.565  1.00  0.00    -0.061 A 
HETATM   10  C   UNL     1       6.033  31.544  58.567  1.00  0.00     0.048 C 
HETATM   11  C   UNL     1       4.392  30.786  56.825  1.00  0.00     0.009 A 
HETATM   12  C   UNL     1       3.901  29.864  55.892  1.00  0.00     0.032 A 
HETATM   13  N   UNL     1       4.409  27.589  54.930  1.00  0.00    -0.277 N 
HETATM   14  H   UNL     1       3.652  27.453  54.271  1.00  0.00     0.189 HD
HETATM   15  N   UNL     1       5.322  26.612  55.063  1.00  0.00    -0.168 NA
ENDBRANCH   1   5
BRANCH   2  16
HETATM   16  C   UNL     1       8.414  24.087  56.161  1.00  0.00     0.116 C 
HETATM   17  C   UNL     1       8.640  23.542  57.579  1.00  0.00     0.037 C 
BRANCH  16  18
HETATM   18  C   UNL     1       8.222  22.977  55.131  1.00  0.00    -0.003 A 
HETATM   19  C   UNL     1       8.075  23.279  53.760  1.00  0.00     0.076 A 
HETATM   20  C   UNL     1       7.896  22.243  52.834  1.00  0.00     0.037 A 
HETATM   21  C   UNL     1       7.831  20.915  53.258  1.00  0.00     0.003 A 
HETATM   22  C   UNL     1       7.937  20.609  54.609  1.00  0.00     0.001 A 
HETATM   23  C   UNL     1       8.123  21.632  55.538  1.00  0.00     0.012 A 
BRANCH  19  24
HETATM   24  O   UNL     1       8.133  24.606  53.422  1.00  0.00    -0.355 OA
HETATM   25  C   UNL     1       7.739  24.960  52.102  1.00  0.00     0.210 C 
ENDBRANCH  19  24
ENDBRANCH  16  18
ENDBRANCH   2  16
TORSDOF 4
ENDMDL
MODEL 7
REMARK VINA RESULT:      -8.0      1.731      3.186
REMARK  4 active torsions:
REMARK  status: ('A' for Active; 'I' for Inactive)
REMARK    1  A    between atoms: C_9  and  C_10 
REMARK       I    between atoms: C_10  and  N_11 
REMARK    2  A    between atoms: N_11  and  C_12 
REMARK    3  A    between atoms: C_12  and  C_13 
REMARK    4  A    between atoms: C_14  and  O_15 
ROOT
HETATM    1  C   UNL     1       8.127  25.882  57.427  1.00  0.00     0.273 C 
HETATM    2  N   UNL     1       8.607  26.934  56.678  1.00  0.00    -0.347 N 
HETATM    3  O   UNL     1       7.649  26.004  58.552  1.00  0.00    -0.266 OA
HETATM    4  H   UNL     1       8.815  26.692  55.713  1.00  0.00     0.163 HD
ENDROOT
BRANCH   1   5
HETATM    5  C   UNL     1       8.233  24.587  56.735  1.00  0.00     0.157 A 
HETATM    6  C   UNL     1       8.018  24.327  55.349  1.00  0.00     0.029 A 
HETATM    7  C   UNL     1       7.644  25.084  54.220  1.00  0.00     0.023 A 
HETATM    8  C   UNL     1       8.258  22.968  55.194  1.00  0.00     0.063 A 
HETATM    9  C   UNL     1       7.518  24.449  52.972  1.00  0.00    -0.061 A 
HETATM   10  C   UNL     1       7.099  25.231  51.761  1.00  0.00     0.048 C 
HETATM   11  C   UNL     1       7.775  23.077  52.860  1.00  0.00     0.009 A 
HETATM   12  C   UNL     1       8.153  22.308  53.967  1.00  0.00     0.032 A 
HETATM   13  N   UNL     1       8.588  22.516  56.442  1.00  0.00    -0.277 N 
HETATM   14  H   UNL     1       8.831  21.568  56.705  1.00  0.00     0.189 HD
HETATM   15  N   UNL     1       8.571  23.459  57.399  1.00  0.00    -0.168 NA
ENDBRANCH   1   5
BRANCH   2  16
HETATM   16  C   UNL     1       8.373  28.326  57.016  1.00  0.00     0.116 C 
HETATM   17  C   UNL     1       9.604  29.203  56.742  1.00  0.00     0.037 C 
BRANCH  16  18
HETATM   18  C   UNL     1       7.130  28.816  56.279  1.00  0.00    -0.003 A 
HETATM   19  C   UNL     1       6.259  29.755  56.872  1.00  0.00     0.076 A 
HETATM   20  C   UNL     1       5.122  30.187  56.177  1.00  0.00     0.037 A 
HETATM   21  C   UNL     1       4.824  29.675  54.914  1.00  0.00     0.003 A 
HETATM   22  C   UNL     1       5.654  28.723  54.336  1.00  0.00     0.001 A 
HETATM   23  C   UNL     1       6.792  28.292  55.015  1.00  0.00     0.012 A 
BRANCH  19  24
HETATM   24  O   UNL     1       6.607  30.200  58.121  1.00  0.00    -0.355 OA
HETATM   25  C   UNL     1       6.442  31.587  58.389  1.00  0.00     0.210 C 
ENDBRANCH  19  24
ENDBRANCH  16  18
ENDBRANCH   2  16
TORSDOF 4
ENDMDL
MODEL 8
REMARK VINA RESULT:      -7.9      2.607      6.888
REMARK  4 active torsions:
REMARK  status: ('A' for Active; 'I' for Inactive)
REMARK    1  A    between atoms: C_9  and  C_10 
REMARK       I    between atoms: C_10  and  N_11 
REMARK    2  A    between atoms: N_11  and  C_12 
REMARK    3  A    between atoms: C_12  and  C_13 
REMARK    4  A    between atoms: C_14  and  O_15 
ROOT
HETATM    1  C   UNL     1       5.098  28.803  54.932  1.00  0.00     0.273 C 
HETATM    2  N   UNL     1       5.936  27.819  54.456  1.00  0.00    -0.347 N 
HETATM    3  O   UNL     1       4.097  29.197  54.341  1.00  0.00    -0.266 OA
HETATM    4  H   UNL     1       6.620  27.496  55.133  1.00  0.00     0.163 HD
ENDROOT
BRANCH   1   5
HETATM    5  C   UNL     1       5.519  29.333  56.240  1.00  0.00     0.157 A 
HETATM    6  C   UNL     1       6.853  29.536  56.702  1.00  0.00     0.029 A 
HETATM    7  C   UNL     1       8.148  29.325  56.189  1.00  0.00     0.023 A 
HETATM    8  C   UNL     1       6.717  30.068  57.978  1.00  0.00     0.063 A 
HETATM    9  C   UNL     1       9.267  29.650  56.977  1.00  0.00    -0.061 A 
HETATM   10  C   UNL     1      10.656  29.412  56.458  1.00  0.00     0.048 C 
HETATM   11  C   UNL     1       9.084  30.189  58.256  1.00  0.00     0.009 A 
HETATM   12  C   UNL     1       7.806  30.412  58.783  1.00  0.00     0.032 A 
HETATM   13  N   UNL     1       5.369  30.148  58.193  1.00  0.00    -0.277 N 
HETATM   14  H   UNL     1       4.901  30.495  59.022  1.00  0.00     0.189 HD
HETATM   15  N   UNL     1       4.614  29.703  57.175  1.00  0.00    -0.168 NA
ENDBRANCH   1   5
BRANCH   2  16
HETATM   16  C   UNL     1       5.599  26.959  53.336  1.00  0.00     0.116 C 
HETATM   17  C   UNL     1       5.807  27.659  51.985  1.00  0.00     0.037 C 
BRANCH  16  18
HETATM   18  C   UNL     1       6.391  25.659  53.449  1.00  0.00    -0.003 A 
HETATM   19  C   UNL     1       6.291  24.848  54.600  1.00  0.00     0.076 A 
HETATM   20  C   UNL     1       7.031  23.661  54.682  1.00  0.00     0.037 A 
HETATM   21  C   UNL     1       7.891  23.287  53.649  1.00  0.00     0.003 A 
HETATM   22  C   UNL     1       8.025  24.097  52.527  1.00  0.00     0.001 A 
HETATM   23  C   UNL     1       7.288  25.276  52.432  1.00  0.00     0.012 A 
BRANCH  19  24
HETATM   24  O   UNL     1       5.440  25.288  55.580  1.00  0.00    -0.355 OA
HETATM   25  C   UNL     1       5.894  25.200  56.925  1.00  0.00     0.210 C 
ENDBRANCH  19  24
ENDBRANCH  16  18
ENDBRANCH   2  16
TORSDOF 4
ENDMDL
MODEL 9
REMARK VINA RESULT:      -7.9      3.634      8.637
REMARK  4 active torsions:
REMARK  status: ('A' for Active; 'I' for Inactive)
REMARK    1  A    between atoms: C_9  and  C_10 
REMARK       I    between atoms: C_10  and  N_11 
REMARK    2  A    between atoms: N_11  and  C_12 
REMARK    3  A    between atoms: C_12  and  C_13 
REMARK    4  A    between atoms: C_14  and  O_15 
ROOT
HETATM    1  C   UNL     1       7.633  30.774  58.706  1.00  0.00     0.273 C 
HETATM    2  N   UNL     1       8.468  29.937  57.999  1.00  0.00    -0.347 N 
HETATM    3  O   UNL     1       6.658  31.340  58.219  1.00  0.00    -0.266 OA
HETATM    4  H   UNL     1       9.125  29.423  58.580  1.00  0.00     0.163 HD
ENDROOT
BRANCH   1   5
HETATM    5  C   UNL     1       8.020  30.914  60.120  1.00  0.00     0.157 A 
HETATM    6  C   UNL     1       7.543  31.880  61.055  1.00  0.00     0.029 A 
HETATM    7  C   UNL     1       6.647  32.967  61.024  1.00  0.00     0.023 A 
HETATM    8  C   UNL     1       8.192  31.580  62.246  1.00  0.00     0.063 A 
HETATM    9  C   UNL     1       6.436  33.723  62.191  1.00  0.00    -0.061 A 
HETATM   10  C   UNL     1       5.502  34.899  62.175  1.00  0.00     0.048 C 
HETATM   11  C   UNL     1       7.107  33.383  63.372  1.00  0.00     0.009 A 
HETATM   12  C   UNL     1       7.998  32.304  63.425  1.00  0.00     0.032 A 
HETATM   13  N   UNL     1       8.984  30.502  61.964  1.00  0.00    -0.277 N 
HETATM   14  H   UNL     1       9.599  30.011  62.602  1.00  0.00     0.189 HD
HETATM   15  N   UNL     1       8.918  30.079  60.690  1.00  0.00    -0.168 NA
ENDBRANCH   1   5
BRANCH   2  16
HETATM   16  C   UNL     1       8.153  29.426  56.678  1.00  0.00     0.116 C 
HETATM   17  C   UNL     1       9.392  29.356  55.774  1.00  0.00     0.037 C 
BRANCH  16  18
HETATM   18  C   UNL     1       7.455  28.076  56.819  1.00  0.00    -0.003 A 
HETATM   19  C   UNL     1       6.096  27.924  56.471  1.00  0.00     0.076 A 
HETATM   20  C   UNL     1       5.476  26.676  56.612  1.00  0.00     0.037 A 
HETATM   21  C   UNL     1       6.181  25.585  57.123  1.00  0.00     0.003 A 
HETATM   22  C   UNL     1       7.510  25.733  57.504  1.00  0.00     0.001 A 
HETATM   23  C   UNL     1       8.138  26.969  57.360  1.00  0.00     0.012 A 
BRANCH  19  24
HETATM   24  O   UNL     1       5.463  29.042  55.992  1.00  0.00    -0.355 OA
HETATM   25  C   UNL     1       4.061  29.142  56.210  1.00  0.00     0.210 C 
ENDBRANCH  19  24
ENDBRANCH  16  18
ENDBRANCH   2  16
TORSDOF 4
ENDMDL
MODEL 10
REMARK VINA RESULT:      -7.8      5.077      9.119
REMARK  4 active torsions:
REMARK  status: ('A' for Active; 'I' for Inactive)
REMARK    1  A    between atoms: C_9  and  C_10 
REMARK       I    between atoms: C_10  and  N_11 
REMARK    2  A    between atoms: N_11  and  C_12 
REMARK    3  A    between atoms: C_12  and  C_13 
REMARK    4  A    between atoms: C_14  and  O_15 
ROOT
HETATM    1  C   UNL     1       3.990  32.036  60.121  1.00  0.00     0.273 C 
HETATM    2  N   UNL     1       5.043  31.846  59.253  1.00  0.00    -0.347 N 
HETATM    3  O   UNL     1       2.810  31.922  59.802  1.00  0.00    -0.266 OA
HETATM    4  H   UNL     1       5.952  31.816  59.707  1.00  0.00     0.163 HD
ENDROOT
BRANCH   1   5
HETATM    5  C   UNL     1       4.424  32.378  61.486  1.00  0.00     0.157 A 
HETATM    6  C   UNL     1       5.759  32.394  61.991  1.00  0.00     0.029 A 
HETATM    7  C   UNL     1       7.041  32.107  61.480  1.00  0.00     0.023 A 
HETATM    8  C   UNL     1       5.640  32.800  63.314  1.00  0.00     0.063 A 
HETATM    9  C   UNL     1       8.163  32.232  62.319  1.00  0.00    -0.061 A 
HETATM   10  C   UNL     1       9.535  31.910  61.802  1.00  0.00     0.048 C 
HETATM   11  C   UNL     1       7.998  32.648  63.645  1.00  0.00     0.009 A 
HETATM   12  C   UNL     1       6.734  32.943  64.170  1.00  0.00     0.032 A 
HETATM   13  N   UNL     1       4.301  32.993  63.513  1.00  0.00    -0.277 N 
HETATM   14  H   UNL     1       3.847  33.296  64.366  1.00  0.00     0.189 HD
HETATM   15  N   UNL     1       3.535  32.737  62.439  1.00  0.00    -0.168 NA
ENDBRANCH   1   5
BRANCH   2  16
HETATM   16  C   UNL     1       4.896  31.245  57.940  1.00  0.00     0.116 C 
HETATM   17  C   UNL     1       4.907  32.295  56.819  1.00  0.00     0.037 C 
BRANCH  16  18
HETATM   18  C   UNL     1       5.973  30.180  57.755  1.00  0.00    -0.003 A 
HETATM   19  C   UNL     1       5.695  28.981  57.063  1.00  0.00     0.076 A 
HETATM   20  C   UNL     1       6.698  28.016  56.910  1.00  0.00     0.037 A 
HETATM   21  C   UNL     1       7.965  28.215  57.461  1.00  0.00     0.003 A 
HETATM   22  C   UNL     1       8.239  29.374  58.176  1.00  0.00     0.001 A 
HETATM   23  C   UNL     1       7.249  30.344  58.328  1.00  0.00     0.012 A 
BRANCH  19  24
HETATM   24  O   UNL     1       4.425  28.850  56.565  1.00  0.00    -0.355 OA
HETATM   25  C   UNL     1       4.289  28.294  55.262  1.00  0.00     0.210 C 
ENDBRANCH  19  24
ENDBRANCH  16  18
ENDBRANCH   2  16
TORSDOF 4
ENDMDL
