MODEL 1
REMARK VINA RESULT:      -8.0      0.000      0.000
REMARK  3 active torsions:
REMARK  status: ('A' for Active; 'I' for Inactive)
REMARK       I    between atoms: C_2  and  N_3 
REMARK    1  A    between atoms: N_3  and  C_4 
REMARK    2  A    between atoms: C_9  and  N_10 
REMARK       I    between atoms: N_10  and  C_11 
REMARK    3  A    between atoms: C_11  and  C_12 
ROOT
HETATM    1  C   UNL     1       5.808  27.893  52.080  1.00  0.00     0.156 A 
HETATM    2  N   UNL     1       5.387  28.939  51.317  1.00  0.00    -0.241 NA
HETATM    3  C   UNL     1       4.816  28.672  50.127  1.00  0.00     0.119 A 
HETATM    4  C   UNL     1       4.636  27.396  49.645  1.00  0.00     0.022 A 
HETATM    5  C   UNL     1       5.071  26.331  50.429  1.00  0.00     0.035 A 
HETATM    6  C   UNL     1       5.680  26.549  51.673  1.00  0.00     0.081 A 
ENDROOT
BRANCH   6   7
HETATM    7  N   UNL     1       6.115  25.461  52.471  1.00  0.00    -0.320 N 
HETATM    8  C   UNL     1       7.395  24.951  52.592  1.00  0.00     0.256 C 
HETATM    9  O   UNL     1       8.416  25.420  52.101  1.00  0.00    -0.267 OA
HETATM   10  H   UNL     1       5.403  25.060  53.079  1.00  0.00     0.169 HD
BRANCH   8  11
HETATM   11  C   UNL     1       7.534  23.729  53.440  1.00  0.00     0.032 A 
HETATM   12  C   UNL     1       7.831  22.471  52.900  1.00  0.00     0.018 A 
HETATM   13  C   UNL     1       7.980  21.362  53.741  1.00  0.00     0.025 A 
HETATM   14  C   UNL     1       7.846  21.512  55.120  1.00  0.00     0.034 A 
HETATM   15 CL   UNL     1       8.039  20.147  56.150  1.00  0.00    -0.084 Cl
HETATM   16  C   UNL     1       7.568  22.762  55.671  1.00  0.00     0.025 A 
HETATM   17  C   UNL     1       7.416  23.869  54.831  1.00  0.00     0.018 A 
ENDBRANCH   8  11
ENDBRANCH   6   7
BRANCH   1  18
HETATM   18  N   UNL     1       6.366  28.405  53.261  1.00  0.00    -0.310 N 
HETATM   19  C   UNL     1       6.227  28.060  54.574  1.00  0.00     0.219 C 
HETATM   20  C   UNL     1       7.054  28.915  55.501  1.00  0.00     0.117 C 
HETATM   21  O   UNL     1       5.497  27.181  55.020  1.00  0.00    -0.274 OA
HETATM   22  H   UNL     1       6.965  29.189  53.034  1.00  0.00     0.170 HD
ENDBRANCH   1  18
TORSDOF 3
ENDMDL
MODEL 2
REMARK VINA RESULT:      -8.0      2.069      4.347
REMARK  3 active torsions:
REMARK  status: ('A' for Active; 'I' for Inactive)
REMARK       I    between atoms: C_2  and  N_3 
REMARK    1  A    between atoms: N_3  and  C_4 
REMARK    2  A    between atoms: C_9  and  N_10 
REMARK       I    between atoms: N_10  and  C_11 
REMARK    3  A    between atoms: C_11  and  C_12 
ROOT
HETATM    1  C   UNL     1       6.948  28.667  55.555  1.00  0.00     0.156 A 
HETATM    2  N   UNL     1       6.843  29.884  56.153  1.00  0.00    -0.241 NA
HETATM    3  C   UNL     1       7.257  30.006  57.430  1.00  0.00     0.119 A 
HETATM    4  C   UNL     1       7.780  28.962  58.156  1.00  0.00     0.022 A 
HETATM    5  C   UNL     1       7.881  27.719  57.538  1.00  0.00     0.035 A 
HETATM    6  C   UNL     1       7.459  27.531  56.214  1.00  0.00     0.081 A 
ENDROOT
BRANCH   6   7
HETATM    7  N   UNL     1       7.572  26.265  55.588  1.00  0.00    -0.320 N 
HETATM    8  C   UNL     1       6.932  25.086  55.928  1.00  0.00     0.256 C 
HETATM    9  O   UNL     1       6.064  24.948  56.782  1.00  0.00    -0.267 OA
HETATM   10  H   UNL     1       8.139  26.250  54.742  1.00  0.00     0.169 HD
BRANCH   8  11
HETATM   11  C   UNL     1       7.324  23.880  55.139  1.00  0.00     0.032 A 
HETATM   12  C   UNL     1       7.561  22.635  55.739  1.00  0.00     0.018 A 
HETATM   13  C   UNL     1       7.897  21.528  54.952  1.00  0.00     0.025 A 
HETATM   14  C   UNL     1       7.982  21.659  53.567  1.00  0.00     0.034 A 
HETATM   15 CL   UNL     1       8.387  20.292  52.603  1.00  0.00    -0.084 Cl
HETATM   16  C   UNL     1       7.731  22.886  52.957  1.00  0.00     0.025 A 
HETATM   17  C   UNL     1       7.399  23.994  53.742  1.00  0.00     0.018 A 
ENDBRANCH   8  11
ENDBRANCH   6   7
BRANCH   1  18
HETATM   18  N   UNL     1       6.461  28.777  54.243  1.00  0.00    -0.310 N 
HETATM   19  C   UNL     1       5.545  28.056  53.534  1.00  0.00     0.219 C 
HETATM   20  C   UNL     1       5.345  28.571  52.130  1.00  0.00     0.117 C 
HETATM   21  O   UNL     1       4.940  27.064  53.926  1.00  0.00    -0.274 OA
HETATM   22  H   UNL     1       6.928  29.545  53.778  1.00  0.00     0.170 HD
ENDBRANCH   1  18
TORSDOF 3
ENDMDL
MODEL 3
REMARK VINA RESULT:      -7.8      2.808      4.038
REMARK  3 active torsions:
REMARK  status: ('A' for Active; 'I' for Inactive)
REMARK       I    between atoms: C_2  and  N_3 
REMARK    1  A    between atoms: N_3  and  C_4 
REMARK    2  A    between atoms: C_9  and  N_10 
REMARK       I    between atoms: N_10  and  C_11 
REMARK    3  A    between atoms: C_11  and  C_12 
ROOT
HETATM    1  C   UNL     1       6.547  29.252  56.183  1.00  0.00     0.156 A 
HETATM    2  N   UNL     1       6.075  30.476  56.545  1.00  0.00    -0.241 NA
HETATM    3  C   UNL     1       4.744  30.682  56.517  1.00  0.00     0.119 A 
HETATM    4  C   UNL     1       3.839  29.716  56.142  1.00  0.00     0.022 A 
HETATM    5  C   UNL     1       4.329  28.467  55.771  1.00  0.00     0.035 A 
HETATM    6  C   UNL     1       5.705  28.198  55.773  1.00  0.00     0.081 A 
ENDROOT
BRANCH   6   7
HETATM    7  N   UNL     1       6.197  26.922  55.401  1.00  0.00    -0.320 N 
HETATM    8  C   UNL     1       7.093  26.615  54.394  1.00  0.00     0.256 C 
HETATM    9  O   UNL     1       7.709  27.414  53.697  1.00  0.00    -0.267 OA
HETATM   10  H   UNL     1       5.903  26.154  56.003  1.00  0.00     0.169 HD
BRANCH   8  11
HETATM   11  C   UNL     1       7.354  25.161  54.172  1.00  0.00     0.032 A 
HETATM   12  C   UNL     1       7.177  24.204  55.182  1.00  0.00     0.018 A 
HETATM   13  C   UNL     1       7.406  22.850  54.914  1.00  0.00     0.025 A 
HETATM   14  C   UNL     1       7.798  22.449  53.638  1.00  0.00     0.034 A 
HETATM   15 CL   UNL     1       8.070  20.781  53.312  1.00  0.00    -0.084 Cl
HETATM   16  C   UNL     1       7.960  23.388  52.621  1.00  0.00     0.025 A 
HETATM   17  C   UNL     1       7.734  24.741  52.888  1.00  0.00     0.018 A 
ENDBRANCH   8  11
ENDBRANCH   6   7
BRANCH   1  18
HETATM   18  N   UNL     1       7.946  29.269  56.287  1.00  0.00    -0.310 N 
HETATM   19  C   UNL     1       8.795  29.186  57.352  1.00  0.00     0.219 C 
HETATM   20  C   UNL     1      10.249  29.242  56.955  1.00  0.00     0.117 C 
HETATM   21  O   UNL     1       8.474  29.109  58.533  1.00  0.00    -0.274 OA
HETATM   22  H   UNL     1       8.346  29.383  55.364  1.00  0.00     0.170 HD
ENDBRANCH   1  18
TORSDOF 3
ENDMDL
MODEL 4
REMARK VINA RESULT:      -7.7     10.937     13.900
REMARK  3 active torsions:
REMARK  status: ('A' for Active; 'I' for Inactive)
REMARK       I    between atoms: C_2  and  N_3 
REMARK    1  A    between atoms: N_3  and  C_4 
REMARK    2  A    between atoms: C_9  and  N_10 
REMARK       I    between atoms: N_10  and  C_11 
REMARK    3  A    between atoms: C_11  and  C_12 
ROOT
HETATM    1  C   UNL     1       4.615  34.018  65.531  1.00  0.00     0.156 A 
HETATM    2  N   UNL     1       4.028  34.368  66.708  1.00  0.00    -0.241 NA
HETATM    3  C   UNL     1       4.814  34.526  67.791  1.00  0.00     0.119 A 
HETATM    4  C   UNL     1       6.179  34.353  67.765  1.00  0.00     0.022 A 
HETATM    5  C   UNL     1       6.771  33.993  66.558  1.00  0.00     0.035 A 
HETATM    6  C   UNL     1       6.002  33.806  65.400  1.00  0.00     0.081 A 
ENDROOT
BRANCH   6   7
HETATM    7  N   UNL     1       6.612  33.446  64.173  1.00  0.00    -0.320 N 
HETATM    8  C   UNL     1       6.267  32.414  63.320  1.00  0.00     0.256 C 
HETATM    9  O   UNL     1       5.292  31.676  63.425  1.00  0.00    -0.267 OA
HETATM   10  H   UNL     1       7.347  34.075  63.855  1.00  0.00     0.169 HD
BRANCH   8  11
HETATM   11  C   UNL     1       7.158  32.216  62.138  1.00  0.00     0.032 A 
HETATM   12  C   UNL     1       6.672  32.214  60.823  1.00  0.00     0.018 A 
HETATM   13  C   UNL     1       7.553  32.055  59.748  1.00  0.00     0.025 A 
HETATM   14  C   UNL     1       8.919  31.912  59.983  1.00  0.00     0.034 A 
HETATM   15 CL   UNL     1      10.000  31.725  58.657  1.00  0.00    -0.084 Cl
HETATM   16  C   UNL     1       9.418  31.930  61.285  1.00  0.00     0.025 A 
HETATM   17  C   UNL     1       8.538  32.086  62.359  1.00  0.00     0.018 A 
ENDBRANCH   8  11
ENDBRANCH   6   7
BRANCH   1  18
HETATM   18  N   UNL     1       3.614  33.910  64.554  1.00  0.00    -0.310 N 
HETATM   19  C   UNL     1       3.146  34.777  63.610  1.00  0.00     0.219 C 
HETATM   20  C   UNL     1       2.041  34.193  62.765  1.00  0.00     0.117 C 
HETATM   21  O   UNL     1       3.517  35.934  63.439  1.00  0.00    -0.274 OA
HETATM   22  H   UNL     1       3.180  32.998  64.621  1.00  0.00     0.170 HD
ENDBRANCH   1  18
TORSDOF 3
ENDMDL
MODEL 5
REMARK VINA RESULT:      -7.6      2.268      3.961
REMARK  3 active torsions:
REMARK  status: ('A' for Active; 'I' for Inactive)
REMARK       I    between atoms: C_2  and  N_3 
REMARK    1  A    between atoms: N_3  and  C_4 
REMARK    2  A    between atoms: C_9  and  N_10 
REMARK       I    between atoms: N_10  and  C_11 
REMARK    3  A    between atoms: C_11  and  C_12 
ROOT
HETATM    1  C   UNL     1       4.248  27.722  49.937  1.00  0.00     0.156 A 
HETATM    2  N   UNL     1       3.690  28.819  49.356  1.00  0.00    -0.241 NA
HETATM    3  C   UNL     1       4.085  30.036  49.777  1.00  0.00     0.119 A 
HETATM    4  C   UNL     1       5.025  30.224  50.764  1.00  0.00     0.022 A 
HETATM    5  C   UNL     1       5.590  29.098  51.355  1.00  0.00     0.035 A 
HETATM    6  C   UNL     1       5.211  27.806  50.963  1.00  0.00     0.081 A 
ENDROOT
BRANCH   6   7
HETATM    7  N   UNL     1       5.795  26.663  51.564  1.00  0.00    -0.320 N 
HETATM    8  C   UNL     1       5.601  26.181  52.846  1.00  0.00     0.256 C 
HETATM    9  O   UNL     1       4.799  26.606  53.671  1.00  0.00    -0.267 OA
HETATM   10  H   UNL     1       6.369  26.095  50.944  1.00  0.00     0.169 HD
BRANCH   8  11
HETATM   11  C   UNL     1       6.431  25.002  53.233  1.00  0.00     0.032 A 
HETATM   12  C   UNL     1       7.319  24.384  52.341  1.00  0.00     0.018 A 
HETATM   13  C   UNL     1       8.097  23.299  52.763  1.00  0.00     0.025 A 
HETATM   14  C   UNL     1       7.999  22.841  54.075  1.00  0.00     0.034 A 
HETATM   15 CL   UNL     1       8.964  21.513  54.591  1.00  0.00    -0.084 Cl
HETATM   16  C   UNL     1       7.134  23.458  54.977  1.00  0.00     0.025 A 
HETATM   17  C   UNL     1       6.354  24.540  54.556  1.00  0.00     0.018 A 
ENDBRANCH   8  11
ENDBRANCH   6   7
BRANCH   1  18
HETATM   18  N   UNL     1       3.690  26.578  49.347  1.00  0.00    -0.310 N 
HETATM   19  C   UNL     1       3.863  25.988  48.128  1.00  0.00     0.219 C 
HETATM   20  C   UNL     1       3.033  24.741  47.951  1.00  0.00     0.117 C 
HETATM   21  O   UNL     1       4.575  26.397  47.218  1.00  0.00    -0.274 OA
HETATM   22  H   UNL     1       3.028  26.161  49.990  1.00  0.00     0.170 HD
ENDBRANCH   1  18
TORSDOF 3
ENDMDL
MODEL 6
REMARK VINA RESULT:      -7.4      1.974      2.215
REMARK  3 active torsions:
REMARK  status: ('A' for Active; 'I' for Inactive)
REMARK       I    between atoms: C_2  and  N_3 
REMARK    1  A    between atoms: N_3  and  C_4 
REMARK    2  A    between atoms: C_9  and  N_10 
REMARK       I    between atoms: N_10  and  C_11 
REMARK    3  A    between atoms: C_11  and  C_12 
ROOT
HETATM    1  C   UNL     1       5.713  28.398  54.768  1.00  0.00     0.156 A 
HETATM    2  N   UNL     1       5.096  29.603  54.628  1.00  0.00    -0.241 NA
HETATM    3  C   UNL     1       4.040  29.687  53.796  1.00  0.00     0.119 A 
HETATM    4  C   UNL     1       3.554  28.616  53.083  1.00  0.00     0.022 A 
HETATM    5  C   UNL     1       4.191  27.387  53.229  1.00  0.00     0.035 A 
HETATM    6  C   UNL     1       5.300  27.242  54.075  1.00  0.00     0.081 A 
ENDROOT
BRANCH   6   7
HETATM    7  N   UNL     1       5.940  25.986  54.225  1.00  0.00    -0.320 N 
HETATM    8  C   UNL     1       6.745  25.326  53.315  1.00  0.00     0.256 C 
HETATM    9  O   UNL     1       7.137  25.761  52.237  1.00  0.00    -0.267 OA
HETATM   10  H   UNL     1       5.848  25.562  55.146  1.00  0.00     0.169 HD
BRANCH   8  11
HETATM   11  C   UNL     1       7.205  23.963  53.718  1.00  0.00     0.032 A 
HETATM   12  C   UNL     1       7.737  23.048  52.798  1.00  0.00     0.018 A 
HETATM   13  C   UNL     1       8.181  21.794  53.231  1.00  0.00     0.025 A 
HETATM   14  C   UNL     1       8.107  21.458  54.582  1.00  0.00     0.034 A 
HETATM   15 CL   UNL     1       8.662  19.917  55.111  1.00  0.00    -0.084 Cl
HETATM   16  C   UNL     1       7.597  22.365  55.509  1.00  0.00     0.025 A 
HETATM   17  C   UNL     1       7.150  23.617  55.076  1.00  0.00     0.018 A 
ENDBRANCH   8  11
ENDBRANCH   6   7
BRANCH   1  18
HETATM   18  N   UNL     1       6.774  28.547  55.673  1.00  0.00    -0.310 N 
HETATM   19  C   UNL     1       7.143  27.853  56.789  1.00  0.00     0.219 C 
HETATM   20  C   UNL     1       8.390  28.397  57.440  1.00  0.00     0.117 C 
HETATM   21  O   UNL     1       6.548  26.900  57.281  1.00  0.00    -0.274 OA
HETATM   22  H   UNL     1       7.329  29.350  55.405  1.00  0.00     0.170 HD
ENDBRANCH   1  18
TORSDOF 3
ENDMDL
MODEL 7
REMARK VINA RESULT:      -7.4      3.344      6.201
REMARK  3 active torsions:
REMARK  status: ('A' for Active; 'I' for Inactive)
REMARK       I    between atoms: C_2  and  N_3 
REMARK    1  A    between atoms: N_3  and  C_4 
REMARK    2  A    between atoms: C_9  and  N_10 
REMARK       I    between atoms: N_10  and  C_11 
REMARK    3  A    between atoms: C_11  and  C_12 
ROOT
HETATM    1  C   UNL     1       8.371  22.678  54.956  1.00  0.00     0.156 A 
HETATM    2  N   UNL     1       9.123  21.611  55.339  1.00  0.00    -0.241 NA
HETATM    3  C   UNL     1       9.137  20.521  54.547  1.00  0.00     0.119 A 
HETATM    4  C   UNL     1       8.429  20.435  53.371  1.00  0.00     0.022 A 
HETATM    5  C   UNL     1       7.661  21.529  52.986  1.00  0.00     0.035 A 
HETATM    6  C   UNL     1       7.602  22.687  53.775  1.00  0.00     0.081 A 
ENDROOT
BRANCH   6   7
HETATM    7  N   UNL     1       6.823  23.801  53.374  1.00  0.00    -0.320 N 
HETATM    8  C   UNL     1       7.230  24.912  52.657  1.00  0.00     0.256 C 
HETATM    9  O   UNL     1       8.331  25.087  52.146  1.00  0.00    -0.267 OA
HETATM   10  H   UNL     1       5.828  23.730  53.582  1.00  0.00     0.169 HD
BRANCH   8  11
HETATM   11  C   UNL     1       6.201  25.978  52.464  1.00  0.00     0.032 A 
HETATM   12  C   UNL     1       5.796  26.408  51.193  1.00  0.00     0.018 A 
HETATM   13  C   UNL     1       4.806  27.389  51.066  1.00  0.00     0.025 A 
HETATM   14  C   UNL     1       4.212  27.931  52.205  1.00  0.00     0.034 A 
HETATM   15 CL   UNL     1       2.990  29.131  52.043  1.00  0.00    -0.084 Cl
HETATM   16  C   UNL     1       4.594  27.499  53.474  1.00  0.00     0.025 A 
HETATM   17  C   UNL     1       5.585  26.521  53.602  1.00  0.00     0.018 A 
ENDBRANCH   8  11
ENDBRANCH   6   7
BRANCH   1  18
HETATM   18  N   UNL     1       8.508  23.685  55.923  1.00  0.00    -0.310 N 
HETATM   19  C   UNL     1       7.602  24.473  56.571  1.00  0.00     0.219 C 
HETATM   20  C   UNL     1       8.240  25.424  57.553  1.00  0.00     0.117 C 
HETATM   21  O   UNL     1       6.388  24.481  56.394  1.00  0.00    -0.274 OA
HETATM   22  H   UNL     1       9.490  23.819  56.128  1.00  0.00     0.170 HD
ENDBRANCH   1  18
TORSDOF 3
ENDMDL
MODEL 8
REMARK VINA RESULT:      -7.3      3.644      5.498
REMARK  3 active torsions:
REMARK  status: ('A' for Active; 'I' for Inactive)
REMARK       I    between atoms: C_2  and  N_3 
REMARK    1  A    between atoms: N_3  and  C_4 
REMARK    2  A    between atoms: C_9  and  N_10 
REMARK       I    between atoms: N_10  and  C_11 
REMARK    3  A    between atoms: C_11  and  C_12 
ROOT
HETATM    1  C   UNL     1       7.314  29.693  57.564  1.00  0.00     0.156 A 
HETATM    2  N   UNL     1       7.439  30.875  58.227  1.00  0.00    -0.241 NA
HETATM    3  C   UNL     1       8.668  31.259  58.622  1.00  0.00     0.119 A 
HETATM    4  C   UNL     1       9.802  30.516  58.390  1.00  0.00     0.022 A 
HETATM    5  C   UNL     1       9.667  29.307  57.714  1.00  0.00     0.035 A 
HETATM    6  C   UNL     1       8.411  28.853  57.285  1.00  0.00     0.081 A 
ENDROOT
BRANCH   6   7
HETATM    7  N   UNL     1       8.280  27.624  56.591  1.00  0.00    -0.320 N 
HETATM    8  C   UNL     1       8.057  26.366  57.120  1.00  0.00     0.256 C 
HETATM    9  O   UNL     1       7.829  26.099  58.296  1.00  0.00    -0.267 OA
HETATM   10  H   UNL     1       8.280  27.700  55.575  1.00  0.00     0.169 HD
BRANCH   8  11
HETATM   11  C   UNL     1       8.061  25.236  56.144  1.00  0.00     0.032 A 
HETATM   12  C   UNL     1       8.677  24.008  56.419  1.00  0.00     0.018 A 
HETATM   13  C   UNL     1       8.626  22.970  55.482  1.00  0.00     0.025 A 
HETATM   14  C   UNL     1       7.951  23.153  54.277  1.00  0.00     0.034 A 
HETATM   15 CL   UNL     1       7.884  21.871  53.131  1.00  0.00    -0.084 Cl
HETATM   16  C   UNL     1       7.318  24.363  53.998  1.00  0.00     0.025 A 
HETATM   17  C   UNL     1       7.371  25.401  54.933  1.00  0.00     0.018 A 
ENDBRANCH   8  11
ENDBRANCH   6   7
BRANCH   1  18
HETATM   18  N   UNL     1       5.959  29.501  57.255  1.00  0.00    -0.310 N 
HETATM   19  C   UNL     1       5.313  29.164  56.101  1.00  0.00     0.219 C 
HETATM   20  C   UNL     1       3.817  29.066  56.267  1.00  0.00     0.117 C 
HETATM   21  O   UNL     1       5.832  28.981  55.005  1.00  0.00    -0.274 OA
HETATM   22  H   UNL     1       5.401  29.675  58.081  1.00  0.00     0.170 HD
ENDBRANCH   1  18
TORSDOF 3
ENDMDL
MODEL 9
REMARK VINA RESULT:      -7.2      3.407      6.476
REMARK  3 active torsions:
REMARK  status: ('A' for Active; 'I' for Inactive)
REMARK       I    between atoms: C_2  and  N_3 
REMARK    1  A    between atoms: N_3  and  C_4 
REMARK    2  A    between atoms: C_9  and  N_10 
REMARK       I    between atoms: N_10  and  C_11 
REMARK    3  A    between atoms: C_11  and  C_12 
ROOT
HETATM    1  C   UNL     1       7.460  23.432  53.727  1.00  0.00     0.156 A 
HETATM    2  N   UNL     1       7.552  22.226  53.103  1.00  0.00    -0.241 NA
HETATM    3  C   UNL     1       7.969  21.166  53.822  1.00  0.00     0.119 A 
HETATM    4  C   UNL     1       8.305  21.241  55.153  1.00  0.00     0.022 A 
HETATM    5  C   UNL     1       8.211  22.478  55.784  1.00  0.00     0.035 A 
HETATM    6  C   UNL     1       7.791  23.619  55.084  1.00  0.00     0.081 A 
ENDROOT
BRANCH   6   7
HETATM    7  N   UNL     1       7.690  24.874  55.734  1.00  0.00    -0.320 N 
HETATM    8  C   UNL     1       6.591  25.418  56.373  1.00  0.00     0.256 C 
HETATM    9  O   UNL     1       5.519  24.859  56.583  1.00  0.00    -0.267 OA
HETATM   10  H   UNL     1       8.561  25.400  55.794  1.00  0.00     0.169 HD
BRANCH   8  11
HETATM   11  C   UNL     1       6.756  26.811  56.887  1.00  0.00     0.032 A 
HETATM   12  C   UNL     1       7.995  27.314  57.306  1.00  0.00     0.018 A 
HETATM   13  C   UNL     1       8.102  28.637  57.750  1.00  0.00     0.025 A 
HETATM   14  C   UNL     1       6.977  29.459  57.765  1.00  0.00     0.034 A 
HETATM   15 CL   UNL     1       7.116  31.087  58.305  1.00  0.00    -0.084 Cl
HETATM   16  C   UNL     1       5.743  28.976  57.334  1.00  0.00     0.025 A 
HETATM   17  C   UNL     1       5.634  27.654  56.892  1.00  0.00     0.018 A 
ENDBRANCH   8  11
ENDBRANCH   6   7
BRANCH   1  18
HETATM   18  N   UNL     1       7.012  24.379  52.794  1.00  0.00    -0.310 N 
HETATM   19  C   UNL     1       5.799  24.970  52.586  1.00  0.00     0.219 C 
HETATM   20  C   UNL     1       5.808  25.953  51.442  1.00  0.00     0.117 C 
HETATM   21  O   UNL     1       4.766  24.744  53.206  1.00  0.00    -0.274 OA
HETATM   22  H   UNL     1       7.773  24.620  52.172  1.00  0.00     0.170 HD
ENDBRANCH   1  18
TORSDOF 3
ENDMDL
MODEL 10
REMARK VINA RESULT:      -7.2     10.095     13.020
REMARK  3 active torsions:
REMARK  status: ('A' for Active; 'I' for Inactive)
REMARK       I    between atoms: C_2  and  N_3 
REMARK    1  A    between atoms: N_3  and  C_4 
REMARK    2  A    between atoms: C_9  and  N_10 
REMARK       I    between atoms: N_10  and  C_11 
REMARK    3  A    between atoms: C_11  and  C_12 
ROOT
HETATM    1  C   UNL     1       6.122  32.285  60.176  1.00  0.00     0.156 A 
HETATM    2  N   UNL     1       5.930  31.984  58.863  1.00  0.00    -0.241 NA
HETATM    3  C   UNL     1       4.893  32.556  58.221  1.00  0.00     0.119 A 
HETATM    4  C   UNL     1       4.019  33.428  58.827  1.00  0.00     0.022 A 
HETATM    5  C   UNL     1       4.220  33.730  60.171  1.00  0.00     0.035 A 
HETATM    6  C   UNL     1       5.278  33.159  60.892  1.00  0.00     0.081 A 
ENDROOT
BRANCH   6   7
HETATM    7  N   UNL     1       5.482  33.475  62.258  1.00  0.00    -0.320 N 
HETATM    8  C   UNL     1       5.211  32.690  63.364  1.00  0.00     0.256 C 
HETATM    9  O   UNL     1       4.835  31.522  63.355  1.00  0.00    -0.267 OA
HETATM   10  H   UNL     1       5.952  34.362  62.431  1.00  0.00     0.169 HD
BRANCH   8  11
HETATM   11  C   UNL     1       5.442  33.331  64.693  1.00  0.00     0.032 A 
HETATM   12  C   UNL     1       4.389  33.703  65.540  1.00  0.00     0.018 A 
HETATM   13  C   UNL     1       4.660  34.273  66.789  1.00  0.00     0.025 A 
HETATM   14  C   UNL     1       5.979  34.461  67.197  1.00  0.00     0.034 A 
HETATM   15 CL   UNL     1       6.306  35.156  68.737  1.00  0.00    -0.084 Cl
HETATM   16  C   UNL     1       7.035  34.080  66.372  1.00  0.00     0.025 A 
HETATM   17  C   UNL     1       6.766  33.512  65.123  1.00  0.00     0.018 A 
ENDBRANCH   8  11
ENDBRANCH   6   7
BRANCH   1  18
HETATM   18  N   UNL     1       7.247  31.582  60.630  1.00  0.00    -0.310 N 
HETATM   19  C   UNL     1       8.588  31.766  60.450  1.00  0.00     0.219 C 
HETATM   20  C   UNL     1       9.428  30.733  61.160  1.00  0.00     0.117 C 
HETATM   21  O   UNL     1       9.116  32.637  59.767  1.00  0.00    -0.274 OA
HETATM   22  H   UNL     1       6.944  30.787  61.179  1.00  0.00     0.170 HD
ENDBRANCH   1  18
TORSDOF 3
ENDMDL
