MODEL 1
REMARK VINA RESULT:      -8.2      0.000      0.000
REMARK  9 active torsions:
REMARK  status: ('A' for Active; 'I' for Inactive)
REMARK    1  A    between atoms: C_2  and  O_3 
REMARK    2  A    between atoms: O_3  and  C_4 
REMARK    3  A    between atoms: C_4  and  C_5 
REMARK    4  A    between atoms: C_10  and  N_11 
REMARK       I    between atoms: N_11  and  C_12 
REMARK    5  A    between atoms: C_12  and  C_13 
REMARK    6  A    between atoms: C_13  and  N_14 
REMARK    7  A    between atoms: C_16  and  C_17 
REMARK    8  A    between atoms: C_17  and  C_18 
REMARK    9  A    between atoms: C_18  and  O_19 
ROOT
HETATM    1  C   UNL     1       7.244  26.415  54.144  1.00  0.00     0.137 A 
HETATM    2  N   UNL     1       7.706  25.637  55.175  1.00  0.00    -0.349 N 
HETATM    3  H   UNL     1       7.903  25.981  56.106  1.00  0.00     0.166 HD
HETATM    4  C   UNL     1       7.877  24.339  54.764  1.00  0.00     0.045 A 
HETATM    5  C   UNL     1       7.511  24.272  53.415  1.00  0.00     0.021 A 
HETATM    6  C   UNL     1       7.088  25.590  53.035  1.00  0.00     0.080 A 
HETATM    7  C   UNL     1       8.337  23.236  55.497  1.00  0.00     0.032 A 
HETATM    8  C   UNL     1       8.448  22.013  54.834  1.00  0.00     0.026 A 
HETATM    9  C   UNL     1       8.119  21.912  53.488  1.00  0.00     0.035 A 
HETATM   10 CL   UNL     1       8.284  20.398  52.685  1.00  0.00    -0.084 Cl
HETATM   11  C   UNL     1       7.660  23.023  52.770  1.00  0.00     0.040 A 
ENDROOT
BRANCH   6  12
HETATM   12  N   UNL     1       6.611  26.126  51.840  1.00  0.00    -0.323 N 
HETATM   13  C   UNL     1       5.461  25.792  51.171  1.00  0.00     0.248 C 
HETATM   14  O   UNL     1       4.583  25.004  51.515  1.00  0.00    -0.271 OA
HETATM   15  H   UNL     1       7.142  26.940  51.523  1.00  0.00     0.169 HD
BRANCH  13  16
HETATM   16  C   UNL     1       5.256  26.564  49.865  1.00  0.00     0.338 C 
BRANCH  16  17
HETATM   17  N   UNL     1       3.867  27.223  49.839  1.00  0.00    -0.059 N 
HETATM   18  H   UNL     1       3.348  26.642  50.522  1.00  0.00     0.280 HD
HETATM   19  C   UNL     1       3.810  28.635  50.435  1.00  0.00     0.190 C 
HETATM   20  C   UNL     1       2.327  29.007  50.569  1.00  0.00     0.033 C 
HETATM   21  C   UNL     1       1.566  28.889  49.251  1.00  0.00     0.004 C 
HETATM   22  C   UNL     1       1.717  27.496  48.650  1.00  0.00     0.028 C 
HETATM   23  C   UNL     1       3.172  27.073  48.514  1.00  0.00     0.236 C 
BRANCH  19  24
HETATM   24  C   UNL     1       4.643  29.626  49.609  1.00  0.00     0.059 C 
BRANCH  24  25
HETATM   25  C   UNL     1       5.455  30.592  50.465  1.00  0.00     0.166 C 
BRANCH  25  26
HETATM   26  O   UNL     1       6.071  29.832  51.494  1.00  0.00    -0.401 OA
HETATM   27  H   UNL     1       5.899  28.889  51.315  1.00  0.00     0.209 HD
ENDBRANCH  25  26
ENDBRANCH  24  25
ENDBRANCH  19  24
ENDBRANCH  16  17
ENDBRANCH  13  16
ENDBRANCH   6  12
BRANCH   1  28
HETATM   28  C   UNL     1       6.961  27.827  54.248  1.00  0.00     0.312 C 
HETATM   29  O   UNL     1       5.865  28.317  53.998  1.00  0.00    -0.258 OA
BRANCH  28  30
HETATM   30  O   UNL     1       8.068  28.499  54.655  1.00  0.00    -0.317 OA
BRANCH  30  31
HETATM   31  C   UNL     1       7.957  29.180  55.915  1.00  0.00     0.175 C 
HETATM   32  C   UNL     1       8.980  28.647  56.899  1.00  0.00     0.034 C 
ENDBRANCH  30  31
ENDBRANCH  28  30
ENDBRANCH   1  28
TORSDOF 9
ENDMDL
MODEL 2
REMARK VINA RESULT:      -7.9      1.319      2.114
REMARK  9 active torsions:
REMARK  status: ('A' for Active; 'I' for Inactive)
REMARK    1  A    between atoms: C_2  and  O_3 
REMARK    2  A    between atoms: O_3  and  C_4 
REMARK    3  A    between atoms: C_4  and  C_5 
REMARK    4  A    between atoms: C_10  and  N_11 
REMARK       I    between atoms: N_11  and  C_12 
REMARK    5  A    between atoms: C_12  and  C_13 
REMARK    6  A    between atoms: C_13  and  N_14 
REMARK    7  A    between atoms: C_16  and  C_17 
REMARK    8  A    between atoms: C_17  and  C_18 
REMARK    9  A    between atoms: C_18  and  O_19 
ROOT
HETATM    1  C   UNL     1       7.340  26.208  54.521  1.00  0.00     0.137 A 
HETATM    2  N   UNL     1       7.920  25.448  55.504  1.00  0.00    -0.349 N 
HETATM    3  H   UNL     1       8.156  25.790  56.427  1.00  0.00     0.166 HD
HETATM    4  C   UNL     1       8.147  24.169  55.059  1.00  0.00     0.045 A 
HETATM    5  C   UNL     1       7.697  24.098  53.736  1.00  0.00     0.021 A 
HETATM    6  C   UNL     1       7.164  25.391  53.409  1.00  0.00     0.080 A 
HETATM    7  C   UNL     1       8.727  23.089  55.738  1.00  0.00     0.032 A 
HETATM    8  C   UNL     1       8.873  21.886  55.046  1.00  0.00     0.026 A 
HETATM    9  C   UNL     1       8.461  21.783  53.724  1.00  0.00     0.035 A 
HETATM   10 CL   UNL     1       8.670  20.295  52.882  1.00  0.00    -0.084 Cl
HETATM   11  C   UNL     1       7.883  22.871  53.059  1.00  0.00     0.040 A 
ENDROOT
BRANCH   6  12
HETATM   12  N   UNL     1       6.573  25.911  52.258  1.00  0.00    -0.323 N 
HETATM   13  C   UNL     1       5.392  25.530  51.677  1.00  0.00     0.248 C 
HETATM   14  O   UNL     1       4.578  24.702  52.080  1.00  0.00    -0.271 OA
HETATM   15  H   UNL     1       7.043  26.750  51.909  1.00  0.00     0.169 HD
BRANCH  13  16
HETATM   16  C   UNL     1       5.053  26.299  50.397  1.00  0.00     0.338 C 
BRANCH  16  17
HETATM   17  N   UNL     1       5.193  27.812  50.622  1.00  0.00    -0.059 N 
HETATM   18  H   UNL     1       6.062  27.861  51.184  1.00  0.00     0.280 HD
HETATM   19  C   UNL     1       5.518  28.626  49.364  1.00  0.00     0.190 C 
HETATM   20  C   UNL     1       5.885  30.044  49.827  1.00  0.00     0.033 C 
HETATM   21  C   UNL     1       4.795  30.686  50.681  1.00  0.00     0.004 C 
HETATM   22  C   UNL     1       4.440  29.806  51.876  1.00  0.00     0.028 C 
HETATM   23  C   UNL     1       4.089  28.383  51.469  1.00  0.00     0.236 C 
BRANCH  19  24
HETATM   24  C   UNL     1       4.373  28.566  48.344  1.00  0.00     0.059 C 
BRANCH  24  25
HETATM   25  C   UNL     1       4.552  27.469  47.299  1.00  0.00     0.166 C 
BRANCH  25  26
HETATM   26  O   UNL     1       5.932  27.418  46.971  1.00  0.00    -0.401 OA
HETATM   27  H   UNL     1       6.168  28.256  46.532  1.00  0.00     0.209 HD
ENDBRANCH  25  26
ENDBRANCH  24  25
ENDBRANCH  19  24
ENDBRANCH  16  17
ENDBRANCH  13  16
ENDBRANCH   6  12
BRANCH   1  28
HETATM   28  C   UNL     1       6.973  27.596  54.670  1.00  0.00     0.312 C 
HETATM   29  O   UNL     1       5.814  27.997  54.638  1.00  0.00    -0.258 OA
BRANCH  28  30
HETATM   30  O   UNL     1       8.082  28.359  54.846  1.00  0.00    -0.317 OA
BRANCH  30  31
HETATM   31  C   UNL     1       8.060  29.241  55.980  1.00  0.00     0.175 C 
HETATM   32  C   UNL     1       8.717  28.583  57.178  1.00  0.00     0.034 C 
ENDBRANCH  30  31
ENDBRANCH  28  30
ENDBRANCH   1  28
TORSDOF 9
ENDMDL
MODEL 3
REMARK VINA RESULT:      -7.9      1.898      2.887
REMARK  9 active torsions:
REMARK  status: ('A' for Active; 'I' for Inactive)
REMARK    1  A    between atoms: C_2  and  O_3 
REMARK    2  A    between atoms: O_3  and  C_4 
REMARK    3  A    between atoms: C_4  and  C_5 
REMARK    4  A    between atoms: C_10  and  N_11 
REMARK       I    between atoms: N_11  and  C_12 
REMARK    5  A    between atoms: C_12  and  C_13 
REMARK    6  A    between atoms: C_13  and  N_14 
REMARK    7  A    between atoms: C_16  and  C_17 
REMARK    8  A    between atoms: C_17  and  C_18 
REMARK    9  A    between atoms: C_18  and  O_19 
ROOT
HETATM    1  C   UNL     1       6.164  25.467  55.268  1.00  0.00     0.137 A 
HETATM    2  N   UNL     1       6.968  24.867  56.204  1.00  0.00    -0.349 N 
HETATM    3  H   UNL     1       7.141  25.237  57.130  1.00  0.00     0.166 HD
HETATM    4  C   UNL     1       7.511  23.709  55.707  1.00  0.00     0.045 A 
HETATM    5  C   UNL     1       7.043  23.552  54.398  1.00  0.00     0.021 A 
HETATM    6  C   UNL     1       6.169  24.660  54.135  1.00  0.00     0.080 A 
HETATM    7  C   UNL     1       8.387  22.808  56.329  1.00  0.00     0.032 A 
HETATM    8  C   UNL     1       8.822  21.707  55.590  1.00  0.00     0.026 A 
HETATM    9  C   UNL     1       8.399  21.530  54.280  1.00  0.00     0.035 A 
HETATM   10 CL   UNL     1       8.966  20.175  53.380  1.00  0.00    -0.084 Cl
HETATM   11  C   UNL     1       7.524  22.438  53.672  1.00  0.00     0.040 A 
ENDROOT
BRANCH   6  12
HETATM   12  N   UNL     1       5.414  25.031  53.023  1.00  0.00    -0.323 N 
HETATM   13  C   UNL     1       5.871  25.436  51.796  1.00  0.00     0.248 C 
HETATM   14  O   UNL     1       7.033  25.494  51.398  1.00  0.00    -0.271 OA
HETATM   15  H   UNL     1       4.414  24.849  53.137  1.00  0.00     0.169 HD
BRANCH  13  16
HETATM   16  C   UNL     1       4.759  25.796  50.807  1.00  0.00     0.338 C 
BRANCH  16  17
HETATM   17  N   UNL     1       5.170  27.002  49.947  1.00  0.00    -0.059 N 
HETATM   18  H   UNL     1       6.189  26.846  49.842  1.00  0.00     0.280 HD
HETATM   19  C   UNL     1       4.641  26.980  48.507  1.00  0.00     0.190 C 
HETATM   20  C   UNL     1       5.368  28.096  47.744  1.00  0.00     0.033 C 
HETATM   21  C   UNL     1       5.216  29.462  48.409  1.00  0.00     0.004 C 
HETATM   22  C   UNL     1       5.674  29.421  49.863  1.00  0.00     0.028 C 
HETATM   23  C   UNL     1       4.995  28.315  50.658  1.00  0.00     0.236 C 
BRANCH  19  24
HETATM   24  C   UNL     1       3.109  27.076  48.471  1.00  0.00     0.059 C 
BRANCH  24  25
HETATM   25  C   UNL     1       2.450  25.920  47.725  1.00  0.00     0.166 C 
BRANCH  25  26
HETATM   26  O   UNL     1       3.058  25.839  46.445  1.00  0.00    -0.401 OA
HETATM   27  H   UNL     1       2.353  25.886  45.774  1.00  0.00     0.209 HD
ENDBRANCH  25  26
ENDBRANCH  24  25
ENDBRANCH  19  24
ENDBRANCH  16  17
ENDBRANCH  13  16
ENDBRANCH   6  12
BRANCH   1  28
HETATM   28  C   UNL     1       5.445  26.700  55.478  1.00  0.00     0.312 C 
HETATM   29  O   UNL     1       5.051  27.417  54.564  1.00  0.00    -0.258 OA
BRANCH  28  30
HETATM   30  O   UNL     1       5.280  26.928  56.806  1.00  0.00    -0.317 OA
BRANCH  30  31
HETATM   31  C   UNL     1       5.659  28.235  57.267  1.00  0.00     0.175 C 
HETATM   32  C   UNL     1       7.141  28.278  57.584  1.00  0.00     0.034 C 
ENDBRANCH  30  31
ENDBRANCH  28  30
ENDBRANCH   1  28
TORSDOF 9
ENDMDL
MODEL 4
REMARK VINA RESULT:      -7.6      1.661      2.332
REMARK  9 active torsions:
REMARK  status: ('A' for Active; 'I' for Inactive)
REMARK    1  A    between atoms: C_2  and  O_3 
REMARK    2  A    between atoms: O_3  and  C_4 
REMARK    3  A    between atoms: C_4  and  C_5 
REMARK    4  A    between atoms: C_10  and  N_11 
REMARK       I    between atoms: N_11  and  C_12 
REMARK    5  A    between atoms: C_12  and  C_13 
REMARK    6  A    between atoms: C_13  and  N_14 
REMARK    7  A    between atoms: C_16  and  C_17 
REMARK    8  A    between atoms: C_17  and  C_18 
REMARK    9  A    between atoms: C_18  and  O_19 
ROOT
HETATM    1  C   UNL     1       6.539  26.167  54.721  1.00  0.00     0.137 A 
HETATM    2  N   UNL     1       6.874  25.271  55.705  1.00  0.00    -0.349 N 
HETATM    3  H   UNL     1       6.872  25.482  56.695  1.00  0.00     0.166 HD
HETATM    4  C   UNL     1       7.222  24.060  55.161  1.00  0.00     0.045 A 
HETATM    5  C   UNL     1       7.109  24.175  53.771  1.00  0.00     0.021 A 
HETATM    6  C   UNL     1       6.653  25.509  53.501  1.00  0.00     0.080 A 
HETATM    7  C   UNL     1       7.634  22.888  55.810  1.00  0.00     0.032 A 
HETATM    8  C   UNL     1       7.963  21.786  55.020  1.00  0.00     0.026 A 
HETATM    9  C   UNL     1       7.888  21.868  53.636  1.00  0.00     0.035 A 
HETATM   10 CL   UNL     1       8.318  20.502  52.679  1.00  0.00    -0.084 Cl
HETATM   11  C   UNL     1       7.473  23.046  53.002  1.00  0.00     0.040 A 
ENDROOT
BRANCH   6  12
HETATM   12  N   UNL     1       6.353  26.189  52.322  1.00  0.00    -0.323 N 
HETATM   13  C   UNL     1       5.378  25.888  51.405  1.00  0.00     0.248 C 
HETATM   14  O   UNL     1       4.527  25.004  51.462  1.00  0.00    -0.271 OA
HETATM   15  H   UNL     1       6.857  27.073  52.228  1.00  0.00     0.169 HD
BRANCH  13  16
HETATM   16  C   UNL     1       5.344  26.836  50.203  1.00  0.00     0.338 C 
BRANCH  16  17
HETATM   17  N   UNL     1       4.007  26.710  49.454  1.00  0.00    -0.059 N 
HETATM   18  H   UNL     1       3.434  26.182  50.137  1.00  0.00     0.280 HD
HETATM   19  C   UNL     1       3.243  28.028  49.270  1.00  0.00     0.190 C 
HETATM   20  C   UNL     1       1.841  27.667  48.761  1.00  0.00     0.033 C 
HETATM   21  C   UNL     1       1.873  26.820  47.492  1.00  0.00     0.004 C 
HETATM   22  C   UNL     1       2.712  25.561  47.690  1.00  0.00     0.028 C 
HETATM   23  C   UNL     1       4.107  25.866  48.214  1.00  0.00     0.236 C 
BRANCH  19  24
HETATM   24  C   UNL     1       4.016  29.004  48.371  1.00  0.00     0.059 C 
BRANCH  24  25
HETATM   25  C   UNL     1       3.188  30.209  47.937  1.00  0.00     0.166 C 
BRANCH  25  26
HETATM   26  O   UNL     1       3.067  30.152  46.524  1.00  0.00    -0.401 OA
HETATM   27  H   UNL     1       2.132  30.306  46.295  1.00  0.00     0.209 HD
ENDBRANCH  25  26
ENDBRANCH  24  25
ENDBRANCH  19  24
ENDBRANCH  16  17
ENDBRANCH  13  16
ENDBRANCH   6  12
BRANCH   1  28
HETATM   28  C   UNL     1       6.126  27.529  54.961  1.00  0.00     0.312 C 
HETATM   29  O   UNL     1       6.913  28.455  55.127  1.00  0.00    -0.258 OA
BRANCH  28  30
HETATM   30  O   UNL     1       4.771  27.614  54.971  1.00  0.00    -0.317 OA
BRANCH  30  31
HETATM   31  C   UNL     1       4.218  28.824  54.429  1.00  0.00     0.175 C 
HETATM   32  C   UNL     1       3.521  28.546  53.111  1.00  0.00     0.034 C 
ENDBRANCH  30  31
ENDBRANCH  28  30
ENDBRANCH   1  28
TORSDOF 9
ENDMDL
MODEL 5
REMARK VINA RESULT:      -7.3      2.585      6.069
REMARK  9 active torsions:
REMARK  status: ('A' for Active; 'I' for Inactive)
REMARK    1  A    between atoms: C_2  and  O_3 
REMARK    2  A    between atoms: O_3  and  C_4 
REMARK    3  A    between atoms: C_4  and  C_5 
REMARK    4  A    between atoms: C_10  and  N_11 
REMARK       I    between atoms: N_11  and  C_12 
REMARK    5  A    between atoms: C_12  and  C_13 
REMARK    6  A    between atoms: C_13  and  N_14 
REMARK    7  A    between atoms: C_16  and  C_17 
REMARK    8  A    between atoms: C_17  and  C_18 
REMARK    9  A    between atoms: C_18  and  O_19 
ROOT
HETATM    1  C   UNL     1       6.891  25.718  53.791  1.00  0.00     0.137 A 
HETATM    2  N   UNL     1       6.846  24.601  52.995  1.00  0.00    -0.349 N 
HETATM    3  H   UNL     1       6.463  24.582  52.058  1.00  0.00     0.166 HD
HETATM    4  C   UNL     1       7.377  23.517  53.648  1.00  0.00     0.045 A 
HETATM    5  C   UNL     1       7.782  23.947  54.917  1.00  0.00     0.021 A 
HETATM    6  C   UNL     1       7.491  25.351  54.990  1.00  0.00     0.080 A 
HETATM    7  C   UNL     1       7.512  22.197  53.200  1.00  0.00     0.032 A 
HETATM    8  C   UNL     1       8.066  21.263  54.077  1.00  0.00     0.026 A 
HETATM    9  C   UNL     1       8.458  21.646  55.353  1.00  0.00     0.035 A 
HETATM   10 CL   UNL     1       9.120  20.473  56.426  1.00  0.00    -0.084 Cl
HETATM   11  C   UNL     1       8.317  22.970  55.786  1.00  0.00     0.040 A 
ENDROOT
BRANCH   6  12
HETATM   12  N   UNL     1       7.679  26.309  55.987  1.00  0.00    -0.323 N 
HETATM   13  C   UNL     1       6.761  26.763  56.897  1.00  0.00     0.248 C 
HETATM   14  O   UNL     1       5.607  26.377  57.070  1.00  0.00    -0.271 OA
HETATM   15  H   UNL     1       8.656  26.589  56.095  1.00  0.00     0.169 HD
BRANCH  13  16
HETATM   16  C   UNL     1       7.300  27.845  57.837  1.00  0.00     0.338 C 
BRANCH  16  17
HETATM   17  N   UNL     1       6.493  29.144  57.686  1.00  0.00    -0.059 N 
HETATM   18  H   UNL     1       5.591  28.881  58.123  1.00  0.00     0.280 HD
HETATM   19  C   UNL     1       6.991  30.318  58.539  1.00  0.00     0.190 C 
HETATM   20  C   UNL     1       5.919  31.414  58.465  1.00  0.00     0.033 C 
HETATM   21  C   UNL     1       5.589  31.822  57.031  1.00  0.00     0.004 C 
HETATM   22  C   UNL     1       5.180  30.615  56.194  1.00  0.00     0.028 C 
HETATM   23  C   UNL     1       6.203  29.491  56.252  1.00  0.00     0.236 C 
BRANCH  19  24
HETATM   24  C   UNL     1       8.394  30.768  58.108  1.00  0.00     0.059 C 
BRANCH  24  25
HETATM   25  C   UNL     1       9.052  31.722  59.099  1.00  0.00     0.166 C 
BRANCH  25  26
HETATM   26  O   UNL     1      10.241  32.207  58.495  1.00  0.00    -0.401 OA
HETATM   27  H   UNL     1      10.591  31.506  57.914  1.00  0.00     0.209 HD
ENDBRANCH  25  26
ENDBRANCH  24  25
ENDBRANCH  19  24
ENDBRANCH  16  17
ENDBRANCH  13  16
ENDBRANCH   6  12
BRANCH   1  28
HETATM   28  C   UNL     1       6.412  27.021  53.399  1.00  0.00     0.312 C 
HETATM   29  O   UNL     1       7.135  28.007  53.302  1.00  0.00    -0.258 OA
BRANCH  28  30
HETATM   30  O   UNL     1       5.075  26.979  53.161  1.00  0.00    -0.317 OA
BRANCH  30  31
HETATM   31  C   UNL     1       4.631  27.650  51.971  1.00  0.00     0.175 C 
HETATM   32  C   UNL     1       5.039  26.869  50.737  1.00  0.00     0.034 C 
ENDBRANCH  30  31
ENDBRANCH  28  30
ENDBRANCH   1  28
TORSDOF 9
ENDMDL
MODEL 6
REMARK VINA RESULT:      -7.2      3.213      7.362
REMARK  9 active torsions:
REMARK  status: ('A' for Active; 'I' for Inactive)
REMARK    1  A    between atoms: C_2  and  O_3 
REMARK    2  A    between atoms: O_3  and  C_4 
REMARK    3  A    between atoms: C_4  and  C_5 
REMARK    4  A    between atoms: C_10  and  N_11 
REMARK       I    between atoms: N_11  and  C_12 
REMARK    5  A    between atoms: C_12  and  C_13 
REMARK    6  A    between atoms: C_13  and  N_14 
REMARK    7  A    between atoms: C_16  and  C_17 
REMARK    8  A    between atoms: C_17  and  C_18 
REMARK    9  A    between atoms: C_18  and  O_19 
ROOT
HETATM    1  C   UNL     1       5.483  26.457  51.134  1.00  0.00     0.137 A 
HETATM    2  N   UNL     1       5.146  26.374  49.806  1.00  0.00    -0.349 N 
HETATM    3  H   UNL     1       5.016  25.505  49.303  1.00  0.00     0.166 HD
HETATM    4  C   UNL     1       5.024  27.626  49.257  1.00  0.00     0.045 A 
HETATM    5  C   UNL     1       5.293  28.556  50.267  1.00  0.00     0.021 A 
HETATM    6  C   UNL     1       5.560  27.806  51.461  1.00  0.00     0.080 A 
HETATM    7  C   UNL     1       4.706  27.983  47.940  1.00  0.00     0.032 A 
HETATM    8  C   UNL     1       4.673  29.342  47.623  1.00  0.00     0.026 A 
HETATM    9  C   UNL     1       4.958  30.295  48.591  1.00  0.00     0.035 A 
HETATM   10 CL   UNL     1       4.932  31.966  48.173  1.00  0.00    -0.084 Cl
HETATM   11  C   UNL     1       5.274  29.922  49.903  1.00  0.00     0.040 A 
ENDROOT
BRANCH   6  12
HETATM   12  N   UNL     1       5.875  28.180  52.767  1.00  0.00    -0.323 N 
HETATM   13  C   UNL     1       5.012  28.576  53.756  1.00  0.00     0.248 C 
HETATM   14  O   UNL     1       3.784  28.620  53.722  1.00  0.00    -0.271 OA
HETATM   15  H   UNL     1       6.853  28.010  53.010  1.00  0.00     0.169 HD
BRANCH  13  16
HETATM   16  C   UNL     1       5.702  28.945  55.072  1.00  0.00     0.338 C 
BRANCH  16  17
HETATM   17  N   UNL     1       6.331  27.701  55.720  1.00  0.00    -0.059 N 
HETATM   18  H   UNL     1       6.736  27.219  54.897  1.00  0.00     0.280 HD
HETATM   19  C   UNL     1       7.542  27.982  56.618  1.00  0.00     0.190 C 
HETATM   20  C   UNL     1       8.186  26.627  56.943  1.00  0.00     0.033 C 
HETATM   21  C   UNL     1       7.203  25.640  57.567  1.00  0.00     0.004 C 
HETATM   22  C   UNL     1       5.974  25.452  56.683  1.00  0.00     0.028 C 
HETATM   23  C   UNL     1       5.311  26.772  56.317  1.00  0.00     0.236 C 
BRANCH  19  24
HETATM   24  C   UNL     1       7.148  28.811  57.849  1.00  0.00     0.059 C 
BRANCH  24  25
HETATM   25  C   UNL     1       8.262  29.729  58.341  1.00  0.00     0.166 C 
BRANCH  25  26
HETATM   26  O   UNL     1       8.198  29.750  59.759  1.00  0.00    -0.401 OA
HETATM   27  H   UNL     1       7.425  30.285  60.017  1.00  0.00     0.209 HD
ENDBRANCH  25  26
ENDBRANCH  24  25
ENDBRANCH  19  24
ENDBRANCH  16  17
ENDBRANCH  13  16
ENDBRANCH   6  12
BRANCH   1  28
HETATM   28  C   UNL     1       5.685  25.319  51.999  1.00  0.00     0.312 C 
HETATM   29  O   UNL     1       4.771  24.728  52.563  1.00  0.00    -0.258 OA
BRANCH  28  30
HETATM   30  O   UNL     1       7.007  25.020  52.081  1.00  0.00    -0.317 OA
BRANCH  30  31
HETATM   31  C   UNL     1       7.593  25.138  53.387  1.00  0.00     0.175 C 
HETATM   32  C   UNL     1       7.985  23.772  53.919  1.00  0.00     0.034 C 
ENDBRANCH  30  31
ENDBRANCH  28  30
ENDBRANCH   1  28
TORSDOF 9
ENDMDL
MODEL 7
REMARK VINA RESULT:      -7.1      4.362      7.234
REMARK  9 active torsions:
REMARK  status: ('A' for Active; 'I' for Inactive)
REMARK    1  A    between atoms: C_2  and  O_3 
REMARK    2  A    between atoms: O_3  and  C_4 
REMARK    3  A    between atoms: C_4  and  C_5 
REMARK    4  A    between atoms: C_10  and  N_11 
REMARK       I    between atoms: N_11  and  C_12 
REMARK    5  A    between atoms: C_12  and  C_13 
REMARK    6  A    between atoms: C_13  and  N_14 
REMARK    7  A    between atoms: C_16  and  C_17 
REMARK    8  A    between atoms: C_17  and  C_18 
REMARK    9  A    between atoms: C_18  and  O_19 
ROOT
HETATM    1  C   UNL     1       7.486  29.635  57.869  1.00  0.00     0.137 A 
HETATM    2  N   UNL     1       7.438  30.346  59.041  1.00  0.00    -0.349 N 
HETATM    3  H   UNL     1       7.998  30.139  59.858  1.00  0.00     0.166 HD
HETATM    4  C   UNL     1       6.519  31.362  58.956  1.00  0.00     0.045 A 
HETATM    5  C   UNL     1       5.949  31.308  57.679  1.00  0.00     0.021 A 
HETATM    6  C   UNL     1       6.586  30.223  56.987  1.00  0.00     0.080 A 
HETATM    7  C   UNL     1       6.157  32.306  59.926  1.00  0.00     0.032 A 
HETATM    8  C   UNL     1       5.164  33.230  59.598  1.00  0.00     0.026 A 
HETATM    9  C   UNL     1       4.556  33.193  58.350  1.00  0.00     0.035 A 
HETATM   10 CL   UNL     1       3.318  34.329  57.974  1.00  0.00    -0.084 Cl
HETATM   11  C   UNL     1       4.929  32.244  57.391  1.00  0.00     0.040 A 
ENDROOT
BRANCH   6  12
HETATM   12  N   UNL     1       6.443  29.705  55.701  1.00  0.00    -0.323 N 
HETATM   13  C   UNL     1       5.535  28.773  55.269  1.00  0.00     0.248 C 
HETATM   14  O   UNL     1       4.620  28.251  55.902  1.00  0.00    -0.271 OA
HETATM   15  H   UNL     1       7.017  30.188  55.006  1.00  0.00     0.169 HD
BRANCH  13  16
HETATM   16  C   UNL     1       5.677  28.407  53.788  1.00  0.00     0.338 C 
BRANCH  16  17
HETATM   17  N   UNL     1       5.871  26.891  53.622  1.00  0.00    -0.059 N 
HETATM   18  H   UNL     1       5.379  26.525  54.458  1.00  0.00     0.280 HD
HETATM   19  C   UNL     1       5.112  26.268  52.443  1.00  0.00     0.190 C 
HETATM   20  C   UNL     1       5.204  24.744  52.604  1.00  0.00     0.033 C 
HETATM   21  C   UNL     1       6.644  24.248  52.710  1.00  0.00     0.004 C 
HETATM   22  C   UNL     1       7.389  24.952  53.839  1.00  0.00     0.028 C 
HETATM   23  C   UNL     1       7.309  26.468  53.735  1.00  0.00     0.236 C 
BRANCH  19  24
HETATM   24  C   UNL     1       5.629  26.800  51.100  1.00  0.00     0.059 C 
BRANCH  24  25
HETATM   25  C   UNL     1       4.527  27.371  50.212  1.00  0.00     0.166 C 
BRANCH  25  26
HETATM   26  O   UNL     1       3.532  27.910  51.068  1.00  0.00    -0.401 OA
HETATM   27  H   UNL     1       2.738  27.348  50.998  1.00  0.00     0.209 HD
ENDBRANCH  25  26
ENDBRANCH  24  25
ENDBRANCH  19  24
ENDBRANCH  16  17
ENDBRANCH  13  16
ENDBRANCH   6  12
BRANCH   1  28
HETATM   28  C   UNL     1       8.350  28.504  57.633  1.00  0.00     0.312 C 
HETATM   29  O   UNL     1       9.362  28.558  56.941  1.00  0.00    -0.258 OA
BRANCH  28  30
HETATM   30  O   UNL     1       7.878  27.408  58.281  1.00  0.00    -0.317 OA
BRANCH  30  31
HETATM   31  C   UNL     1       7.442  26.327  57.441  1.00  0.00     0.175 C 
HETATM   32  C   UNL     1       8.417  25.168  57.517  1.00  0.00     0.034 C 
ENDBRANCH  30  31
ENDBRANCH  28  30
ENDBRANCH   1  28
TORSDOF 9
ENDMDL
MODEL 8
REMARK VINA RESULT:      -7.0      3.307      5.565
REMARK  9 active torsions:
REMARK  status: ('A' for Active; 'I' for Inactive)
REMARK    1  A    between atoms: C_2  and  O_3 
REMARK    2  A    between atoms: O_3  and  C_4 
REMARK    3  A    between atoms: C_4  and  C_5 
REMARK    4  A    between atoms: C_10  and  N_11 
REMARK       I    between atoms: N_11  and  C_12 
REMARK    5  A    between atoms: C_12  and  C_13 
REMARK    6  A    between atoms: C_13  and  N_14 
REMARK    7  A    between atoms: C_16  and  C_17 
REMARK    8  A    between atoms: C_17  and  C_18 
REMARK    9  A    between atoms: C_18  and  O_19 
ROOT
HETATM    1  C   UNL     1       5.800  25.826  53.227  1.00  0.00     0.137 A 
HETATM    2  N   UNL     1       6.345  24.772  52.539  1.00  0.00    -0.349 N 
HETATM    3  H   UNL     1       6.332  24.679  51.531  1.00  0.00     0.166 HD
HETATM    4  C   UNL     1       6.896  23.860  53.404  1.00  0.00     0.045 A 
HETATM    5  C   UNL     1       6.700  24.341  54.704  1.00  0.00     0.021 A 
HETATM    6  C   UNL     1       6.024  25.602  54.581  1.00  0.00     0.080 A 
HETATM    7  C   UNL     1       7.539  22.649  53.117  1.00  0.00     0.032 A 
HETATM    8  C   UNL     1       7.992  21.880  54.190  1.00  0.00     0.026 A 
HETATM    9  C   UNL     1       7.794  22.311  55.495  1.00  0.00     0.035 A 
HETATM   10 CL   UNL     1       8.341  21.336  56.804  1.00  0.00    -0.084 Cl
HETATM   11  C   UNL     1       7.150  23.524  55.766  1.00  0.00     0.040 A 
ENDROOT
BRANCH   6  12
HETATM   12  N   UNL     1       5.581  26.537  55.516  1.00  0.00    -0.323 N 
HETATM   13  C   UNL     1       6.338  27.422  56.239  1.00  0.00     0.248 C 
HETATM   14  O   UNL     1       7.548  27.624  56.168  1.00  0.00    -0.271 OA
HETATM   15  H   UNL     1       4.563  26.624  55.547  1.00  0.00     0.169 HD
BRANCH  13  16
HETATM   16  C   UNL     1       5.525  28.291  57.203  1.00  0.00     0.338 C 
BRANCH  16  17
HETATM   17  N   UNL     1       4.627  29.266  56.426  1.00  0.00    -0.059 N 
HETATM   18  H   UNL     1       4.049  28.615  55.864  1.00  0.00     0.280 HD
HETATM   19  C   UNL     1       3.605  30.025  57.282  1.00  0.00     0.190 C 
HETATM   20  C   UNL     1       2.639  30.724  56.314  1.00  0.00     0.033 C 
HETATM   21  C   UNL     1       3.356  31.624  55.311  1.00  0.00     0.004 C 
HETATM   22  C   UNL     1       4.422  30.851  54.540  1.00  0.00     0.028 C 
HETATM   23  C   UNL     1       5.393  30.124  55.457  1.00  0.00     0.236 C 
BRANCH  19  24
HETATM   24  C   UNL     1       4.296  30.964  58.280  1.00  0.00     0.059 C 
BRANCH  24  25
HETATM   25  C   UNL     1       3.364  31.474  59.374  1.00  0.00     0.166 C 
BRANCH  25  26
HETATM   26  O   UNL     1       2.840  30.339  60.047  1.00  0.00    -0.401 OA
HETATM   27  H   UNL     1       2.619  29.667  59.376  1.00  0.00     0.209 HD
ENDBRANCH  25  26
ENDBRANCH  24  25
ENDBRANCH  19  24
ENDBRANCH  16  17
ENDBRANCH  13  16
ENDBRANCH   6  12
BRANCH   1  28
HETATM   28  C   UNL     1       5.144  26.954  52.610  1.00  0.00     0.312 C 
HETATM   29  O   UNL     1       4.164  27.513  53.091  1.00  0.00    -0.258 OA
BRANCH  28  30
HETATM   30  O   UNL     1       5.768  27.283  51.450  1.00  0.00    -0.317 OA
BRANCH  30  31
HETATM   31  C   UNL     1       4.941  27.898  50.449  1.00  0.00     0.175 C 
HETATM   32  C   UNL     1       5.363  29.336  50.220  1.00  0.00     0.034 C 
ENDBRANCH  30  31
ENDBRANCH  28  30
ENDBRANCH   1  28
TORSDOF 9
ENDMDL
MODEL 9
REMARK VINA RESULT:      -6.9      3.283      5.857
REMARK  9 active torsions:
REMARK  status: ('A' for Active; 'I' for Inactive)
REMARK    1  A    between atoms: C_2  and  O_3 
REMARK    2  A    between atoms: O_3  and  C_4 
REMARK    3  A    between atoms: C_4  and  C_5 
REMARK    4  A    between atoms: C_10  and  N_11 
REMARK       I    between atoms: N_11  and  C_12 
REMARK    5  A    between atoms: C_12  and  C_13 
REMARK    6  A    between atoms: C_13  and  N_14 
REMARK    7  A    between atoms: C_16  and  C_17 
REMARK    8  A    between atoms: C_17  and  C_18 
REMARK    9  A    between atoms: C_18  and  O_19 
ROOT
HETATM    1  C   UNL     1       5.725  25.864  52.289  1.00  0.00     0.137 A 
HETATM    2  N   UNL     1       6.561  24.859  51.873  1.00  0.00    -0.349 N 
HETATM    3  H   UNL     1       6.765  24.650  50.903  1.00  0.00     0.166 HD
HETATM    4  C   UNL     1       7.070  24.174  52.947  1.00  0.00     0.045 A 
HETATM    5  C   UNL     1       6.542  24.755  54.105  1.00  0.00     0.021 A 
HETATM    6  C   UNL     1       5.708  25.843  53.679  1.00  0.00     0.080 A 
HETATM    7  C   UNL     1       7.946  23.080  52.961  1.00  0.00     0.032 A 
HETATM    8  C   UNL     1       8.294  22.539  54.199  1.00  0.00     0.026 A 
HETATM    9  C   UNL     1       7.772  23.072  55.370  1.00  0.00     0.035 A 
HETATM   10 CL   UNL     1       8.199  22.375  56.885  1.00  0.00    -0.084 Cl
HETATM   11  C   UNL     1       6.898  24.166  55.340  1.00  0.00     0.040 A 
ENDROOT
BRANCH   6  12
HETATM   12  N   UNL     1       4.941  26.779  54.372  1.00  0.00    -0.323 N 
HETATM   13  C   UNL     1       5.386  27.855  55.098  1.00  0.00     0.248 C 
HETATM   14  O   UNL     1       6.539  28.256  55.234  1.00  0.00    -0.271 OA
HETATM   15  H   UNL     1       3.939  26.690  54.194  1.00  0.00     0.169 HD
BRANCH  13  16
HETATM   16  C   UNL     1       4.265  28.665  55.756  1.00  0.00     0.338 C 
BRANCH  16  17
HETATM   17  N   UNL     1       4.770  30.061  56.155  1.00  0.00    -0.059 N 
HETATM   18  H   UNL     1       5.741  30.042  55.794  1.00  0.00     0.280 HD
HETATM   19  C   UNL     1       4.115  31.225  55.400  1.00  0.00     0.190 C 
HETATM   20  C   UNL     1       4.927  32.486  55.727  1.00  0.00     0.033 C 
HETATM   21  C   UNL     1       5.039  32.743  57.228  1.00  0.00     0.004 C 
HETATM   22  C   UNL     1       5.616  31.531  57.953  1.00  0.00     0.028 C 
HETATM   23  C   UNL     1       4.856  30.250  57.644  1.00  0.00     0.236 C 
BRANCH  19  24
HETATM   24  C   UNL     1       2.618  31.330  55.719  1.00  0.00     0.059 C 
BRANCH  24  25
HETATM   25  C   UNL     1       1.922  32.470  54.984  1.00  0.00     0.166 C 
BRANCH  25  26
HETATM   26  O   UNL     1       0.542  32.404  55.308  1.00  0.00    -0.401 OA
HETATM   27  H   UNL     1       0.114  33.212  54.971  1.00  0.00     0.209 HD
ENDBRANCH  25  26
ENDBRANCH  24  25
ENDBRANCH  19  24
ENDBRANCH  16  17
ENDBRANCH  13  16
ENDBRANCH   6  12
BRANCH   1  28
HETATM   28  C   UNL     1       5.031  26.769  51.405  1.00  0.00     0.312 C 
HETATM   29  O   UNL     1       4.534  27.828  51.775  1.00  0.00    -0.258 OA
BRANCH  28  30
HETATM   30  O   UNL     1       5.019  26.274  50.141  1.00  0.00    -0.317 OA
BRANCH  30  31
HETATM   31  C   UNL     1       4.140  26.939  49.219  1.00  0.00     0.175 C 
HETATM   32  C   UNL     1       3.864  26.057  48.017  1.00  0.00     0.034 C 
ENDBRANCH  30  31
ENDBRANCH  28  30
ENDBRANCH   1  28
TORSDOF 9
ENDMDL
MODEL 10
REMARK VINA RESULT:      -6.8      2.125      2.900
REMARK  9 active torsions:
REMARK  status: ('A' for Active; 'I' for Inactive)
REMARK    1  A    between atoms: C_2  and  O_3 
REMARK    2  A    between atoms: O_3  and  C_4 
REMARK    3  A    between atoms: C_4  and  C_5 
REMARK    4  A    between atoms: C_10  and  N_11 
REMARK       I    between atoms: N_11  and  C_12 
REMARK    5  A    between atoms: C_12  and  C_13 
REMARK    6  A    between atoms: C_13  and  N_14 
REMARK    7  A    between atoms: C_16  and  C_17 
REMARK    8  A    between atoms: C_17  and  C_18 
REMARK    9  A    between atoms: C_18  and  O_19 
ROOT
HETATM    1  C   UNL     1       7.655  25.181  56.478  1.00  0.00     0.137 A 
HETATM    2  N   UNL     1       7.884  24.086  57.272  1.00  0.00    -0.349 N 
HETATM    3  H   UNL     1       7.900  24.107  58.283  1.00  0.00     0.166 HD
HETATM    4  C   UNL     1       8.099  22.967  56.506  1.00  0.00     0.045 A 
HETATM    5  C   UNL     1       8.007  23.352  55.164  1.00  0.00     0.021 A 
HETATM    6  C   UNL     1       7.701  24.754  55.155  1.00  0.00     0.080 A 
HETATM    7  C   UNL     1       8.377  21.657  56.918  1.00  0.00     0.032 A 
HETATM    8  C   UNL     1       8.587  20.693  55.931  1.00  0.00     0.026 A 
HETATM    9  C   UNL     1       8.528  21.041  54.588  1.00  0.00     0.035 A 
HETATM   10 CL   UNL     1       8.811  19.840  53.386  1.00  0.00    -0.084 Cl
HETATM   11  C   UNL     1       8.249  22.354  54.192  1.00  0.00     0.040 A 
ENDROOT
BRANCH   6  12
HETATM   12  N   UNL     1       7.484  25.672  54.128  1.00  0.00    -0.323 N 
HETATM   13  C   UNL     1       6.656  25.536  53.043  1.00  0.00     0.248 C 
HETATM   14  O   UNL     1       5.888  24.612  52.784  1.00  0.00    -0.271 OA
HETATM   15  H   UNL     1       7.913  26.583  54.304  1.00  0.00     0.169 HD
BRANCH  13  16
HETATM   16  C   UNL     1       6.679  26.734  52.090  1.00  0.00     0.338 C 
BRANCH  16  17
HETATM   17  N   UNL     1       5.685  27.811  52.551  1.00  0.00    -0.059 N 
HETATM   18  H   UNL     1       6.203  28.253  53.332  1.00  0.00     0.280 HD
HETATM   19  C   UNL     1       5.467  28.958  51.556  1.00  0.00     0.190 C 
HETATM   20  C   UNL     1       4.675  30.048  52.293  1.00  0.00     0.033 C 
HETATM   21  C   UNL     1       3.371  29.528  52.891  1.00  0.00     0.004 C 
HETATM   22  C   UNL     1       3.622  28.336  53.809  1.00  0.00     0.028 C 
HETATM   23  C   UNL     1       4.422  27.235  53.129  1.00  0.00     0.236 C 
BRANCH  19  24
HETATM   24  C   UNL     1       4.811  28.460  50.261  1.00  0.00     0.059 C 
BRANCH  24  25
HETATM   25  C   UNL     1       5.627  28.773  49.011  1.00  0.00     0.166 C 
BRANCH  25  26
HETATM   26  O   UNL     1       4.806  29.550  48.153  1.00  0.00    -0.401 OA
HETATM   27  H   UNL     1       5.211  30.433  48.067  1.00  0.00     0.209 HD
ENDBRANCH  25  26
ENDBRANCH  24  25
ENDBRANCH  19  24
ENDBRANCH  16  17
ENDBRANCH  13  16
ENDBRANCH   6  12
BRANCH   1  28
HETATM   28  C   UNL     1       7.392  26.510  56.974  1.00  0.00     0.312 C 
HETATM   29  O   UNL     1       8.041  27.037  57.873  1.00  0.00    -0.258 OA
BRANCH  28  30
HETATM   30  O   UNL     1       6.348  27.064  56.306  1.00  0.00    -0.317 OA
BRANCH  30  31
HETATM   31  C   UNL     1       6.326  28.500  56.262  1.00  0.00     0.175 C 
HETATM   32  C   UNL     1       5.210  29.042  57.134  1.00  0.00     0.034 C 
ENDBRANCH  30  31
ENDBRANCH  28  30
ENDBRANCH   1  28
TORSDOF 9
ENDMDL
