MODEL 1
REMARK VINA RESULT:      -9.4      0.000      0.000
REMARK  10 active torsions:
REMARK  status: ('A' for Active; 'I' for Inactive)
REMARK    1  A    between atoms: C_2  and  N_3 
REMARK    2  A    between atoms: N_3  and  C_4 
REMARK    3  A    between atoms: N_3  and  C_37 
REMARK    4  A    between atoms: C_7  and  C_8 
REMARK    5  A    between atoms: N_9  and  C_11 
REMARK    6  A    between atoms: C_11  and  C_12 
REMARK       I    between atoms: C_12  and  N_13 
REMARK    7  A    between atoms: N_13  and  C_14 
REMARK    8  A    between atoms: C_20  and  C_21 
REMARK    9  A    between atoms: C_21  and  O_22 
REMARK   10  A    between atoms: C_28  and  O_29 
ROOT
HETATM    1  C   UNL     1       7.630  24.164  54.544  1.00  0.00     0.228 C 
HETATM    2  N   UNL     1       7.387  24.623  55.984  1.00  0.00    -0.054 N 
HETATM    3  H   UNL     1       7.785  25.568  55.958  1.00  0.00     0.281 HD
HETATM    4  C   UNL     1       8.256  23.912  56.991  1.00  0.00     0.239 C 
HETATM    5  C   UNL     1       8.283  22.400  56.835  1.00  0.00     0.066 C 
HETATM    6  C   UNL     1       8.563  21.968  55.398  1.00  0.00     0.065 C 
HETATM    7  C   UNL     1       7.570  22.625  54.416  1.00  0.00     0.055 C 
HETATM    8  C   UNL     1       8.521  20.433  55.272  1.00  0.00     0.038 C 
HETATM    9  C   UNL     1       8.784  19.967  53.840  1.00  0.00     0.003 C 
HETATM   10  C   UNL     1       7.840  20.636  52.852  1.00  0.00     0.001 C 
HETATM   11  C   UNL     1       7.873  22.156  52.972  1.00  0.00     0.010 C 
ENDROOT
BRANCH   2  12
HETATM   12  C   UNL     1       5.957  24.914  56.454  1.00  0.00     0.338 C 
BRANCH  12  13
HETATM   13  C   UNL     1       5.615  26.293  57.026  1.00  0.00     0.248 C 
HETATM   14  N   UNL     1       6.678  27.173  56.947  1.00  0.00    -0.319 N 
HETATM   15  H   UNL     1       7.628  26.820  56.902  1.00  0.00     0.169 HD
HETATM   16  O   UNL     1       4.536  26.532  57.554  1.00  0.00    -0.271 OA
BRANCH  14  17
HETATM   17  C   UNL     1       6.595  28.521  57.235  1.00  0.00     0.094 A 
HETATM   18  S   UNL     1       7.897  29.005  58.213  1.00  0.00    -0.076 SA
HETATM   19  C   UNL     1       7.311  30.600  58.332  1.00  0.00    -0.012 A 
HETATM   20  C   UNL     1       8.060  31.594  59.162  1.00  0.00     0.057 C 
HETATM   21  C   UNL     1       6.180  30.797  57.554  1.00  0.00    -0.030 A 
HETATM   22  C   UNL     1       5.517  32.128  57.361  1.00  0.00     0.050 C 
HETATM   23  C   UNL     1       5.745  29.559  56.906  1.00  0.00     0.080 A 
BRANCH  23  24
HETATM   24  C   UNL     1       4.638  29.461  55.953  1.00  0.00     0.296 C 
HETATM   25  O   UNL     1       3.473  29.700  56.252  1.00  0.00    -0.259 OA
BRANCH  24  26
HETATM   26  O   UNL     1       5.036  29.022  54.726  1.00  0.00    -0.322 OA
HETATM   27  C   UNL     1       4.136  28.094  54.121  1.00  0.00     0.213 C 
ENDBRANCH  24  26
ENDBRANCH  23  24
ENDBRANCH  14  17
ENDBRANCH  12  13
ENDBRANCH   2  12
BRANCH   1  28
HETATM   28  C   UNL     1       6.843  24.939  53.501  1.00  0.00    -0.027 A 
HETATM   29  C   UNL     1       7.370  26.112  52.949  1.00  0.00     0.011 A 
HETATM   30  C   UNL     1       6.750  26.737  51.853  1.00  0.00     0.030 A 
HETATM   31  C   UNL     1       5.581  26.238  51.259  1.00  0.00     0.030 A 
HETATM   32  C   UNL     1       5.014  25.126  51.898  1.00  0.00     0.030 A 
HETATM   33  C   UNL     1       5.637  24.478  52.973  1.00  0.00     0.011 A 
BRANCH  31  34
HETATM   34  N   UNL     1       5.018  26.792  50.111  1.00  0.00    -0.382 N 
BRANCH  34  35
HETATM   35  C   UNL     1       4.904  28.255  49.969  1.00  0.00     0.118 C 
HETATM   36  C   UNL     1       3.573  28.740  50.518  1.00  0.00     0.026 C 
ENDBRANCH  34  35
BRANCH  34  37
HETATM   37  C   UNL     1       4.170  26.005  49.201  1.00  0.00     0.118 C 
HETATM   38  C   UNL     1       4.400  26.399  47.750  1.00  0.00     0.026 C 
ENDBRANCH  34  37
ENDBRANCH  31  34
ENDBRANCH   1  28
BRANCH   6  39
HETATM   39  O   UNL     1       9.883  22.439  55.085  1.00  0.00    -0.389 OA
HETATM   40  H   UNL     1      10.267  21.867  54.392  1.00  0.00     0.210 HD
ENDBRANCH   6  39
TORSDOF 10
ENDMDL
MODEL 2
REMARK VINA RESULT:      -9.3      2.475      6.270
REMARK  10 active torsions:
REMARK  status: ('A' for Active; 'I' for Inactive)
REMARK    1  A    between atoms: C_2  and  N_3 
REMARK    2  A    between atoms: N_3  and  C_4 
REMARK    3  A    between atoms: N_3  and  C_37 
REMARK    4  A    between atoms: C_7  and  C_8 
REMARK    5  A    between atoms: N_9  and  C_11 
REMARK    6  A    between atoms: C_11  and  C_12 
REMARK       I    between atoms: C_12  and  N_13 
REMARK    7  A    between atoms: N_13  and  C_14 
REMARK    8  A    between atoms: C_20  and  C_21 
REMARK    9  A    between atoms: C_21  and  O_22 
REMARK   10  A    between atoms: C_28  and  O_29 
ROOT
HETATM    1  C   UNL     1       5.221  26.995  53.888  1.00  0.00     0.228 C 
HETATM    2  N   UNL     1       5.337  28.173  54.859  1.00  0.00    -0.054 N 
HETATM    3  H   UNL     1       4.995  27.744  55.726  1.00  0.00     0.281 HD
HETATM    4  C   UNL     1       4.330  29.264  54.595  1.00  0.00     0.239 C 
HETATM    5  C   UNL     1       4.238  29.690  53.139  1.00  0.00     0.066 C 
HETATM    6  C   UNL     1       4.086  28.500  52.193  1.00  0.00     0.065 C 
HETATM    7  C   UNL     1       5.212  27.467  52.416  1.00  0.00     0.055 C 
HETATM    8  C   UNL     1       4.059  28.971  50.727  1.00  0.00     0.038 C 
HETATM    9  C   UNL     1       3.922  27.801  49.752  1.00  0.00     0.003 C 
HETATM   10  C   UNL     1       5.000  26.752  49.983  1.00  0.00     0.001 C 
HETATM   11  C   UNL     1       5.036  26.283  51.434  1.00  0.00     0.010 C 
ENDROOT
BRANCH   2  12
HETATM   12  C   UNL     1       6.723  28.662  55.293  1.00  0.00     0.338 C 
BRANCH  12  13
HETATM   13  C   UNL     1       6.952  29.093  56.745  1.00  0.00     0.248 C 
HETATM   14  N   UNL     1       6.985  30.468  56.886  1.00  0.00    -0.319 N 
HETATM   15  H   UNL     1       7.232  31.054  56.096  1.00  0.00     0.169 HD
HETATM   16  O   UNL     1       7.155  28.284  57.643  1.00  0.00    -0.271 OA
BRANCH  14  17
HETATM   17  C   UNL     1       7.011  31.124  58.101  1.00  0.00     0.094 A 
HETATM   18  S   UNL     1       5.435  31.353  58.692  1.00  0.00    -0.076 SA
HETATM   19  C   UNL     1       5.991  32.210  60.055  1.00  0.00    -0.012 A 
HETATM   20  C   UNL     1       4.996  32.758  61.029  1.00  0.00     0.057 C 
HETATM   21  C   UNL     1       7.376  32.244  60.118  1.00  0.00    -0.030 A 
HETATM   22  C   UNL     1       8.149  32.818  61.268  1.00  0.00     0.050 C 
HETATM   23  C   UNL     1       7.988  31.607  58.952  1.00  0.00     0.080 A 
BRANCH  23  24
HETATM   24  C   UNL     1       9.426  31.403  58.770  1.00  0.00     0.296 C 
HETATM   25  O   UNL     1      10.238  32.322  58.770  1.00  0.00    -0.259 OA
BRANCH  24  26
HETATM   26  O   UNL     1       9.750  30.099  58.546  1.00  0.00    -0.322 OA
HETATM   27  C   UNL     1      10.576  29.894  57.400  1.00  0.00     0.213 C 
ENDBRANCH  24  26
ENDBRANCH  23  24
ENDBRANCH  14  17
ENDBRANCH  12  13
ENDBRANCH   2  12
BRANCH   1  28
HETATM   28  C   UNL     1       6.155  25.837  54.198  1.00  0.00    -0.027 A 
HETATM   29  C   UNL     1       5.932  25.035  55.323  1.00  0.00     0.011 A 
HETATM   30  C   UNL     1       6.664  23.852  55.523  1.00  0.00     0.030 A 
HETATM   31  C   UNL     1       7.650  23.411  54.628  1.00  0.00     0.030 A 
HETATM   32  C   UNL     1       7.928  24.285  53.568  1.00  0.00     0.030 A 
HETATM   33  C   UNL     1       7.187  25.454  53.342  1.00  0.00     0.011 A 
BRANCH  31  34
HETATM   34  N   UNL     1       8.307  22.190  54.764  1.00  0.00    -0.382 N 
BRANCH  34  35
HETATM   35  C   UNL     1       8.631  21.664  56.103  1.00  0.00     0.118 C 
HETATM   36  C   UNL     1       7.914  20.345  56.343  1.00  0.00     0.026 C 
ENDBRANCH  34  35
BRANCH  34  37
HETATM   37  C   UNL     1       9.051  21.576  53.652  1.00  0.00     0.118 C 
HETATM   38  C   UNL     1       8.170  20.627  52.854  1.00  0.00     0.026 C 
ENDBRANCH  34  37
ENDBRANCH  31  34
ENDBRANCH   1  28
BRANCH   6  39
HETATM   39  O   UNL     1       2.834  27.880  52.522  1.00  0.00    -0.389 OA
HETATM   40  H   UNL     1       2.797  27.000  52.101  1.00  0.00     0.210 HD
ENDBRANCH   6  39
TORSDOF 10
ENDMDL
MODEL 3
REMARK VINA RESULT:      -9.1      2.190      6.005
REMARK  10 active torsions:
REMARK  status: ('A' for Active; 'I' for Inactive)
REMARK    1  A    between atoms: C_2  and  N_3 
REMARK    2  A    between atoms: N_3  and  C_4 
REMARK    3  A    between atoms: N_3  and  C_37 
REMARK    4  A    between atoms: C_7  and  C_8 
REMARK    5  A    between atoms: N_9  and  C_11 
REMARK    6  A    between atoms: C_11  and  C_12 
REMARK       I    between atoms: C_12  and  N_13 
REMARK    7  A    between atoms: N_13  and  C_14 
REMARK    8  A    between atoms: C_20  and  C_21 
REMARK    9  A    between atoms: C_21  and  O_22 
REMARK   10  A    between atoms: C_28  and  O_29 
ROOT
HETATM    1  C   UNL     1       5.356  26.838  54.141  1.00  0.00     0.228 C 
HETATM    2  N   UNL     1       5.542  27.954  55.171  1.00  0.00    -0.054 N 
HETATM    3  H   UNL     1       5.211  27.489  56.024  1.00  0.00     0.281 HD
HETATM    4  C   UNL     1       4.568  29.092  55.000  1.00  0.00     0.239 C 
HETATM    5  C   UNL     1       4.449  29.603  53.573  1.00  0.00     0.066 C 
HETATM    6  C   UNL     1       4.227  28.474  52.569  1.00  0.00     0.065 C 
HETATM    7  C   UNL     1       5.320  27.391  52.698  1.00  0.00     0.055 C 
HETATM    8  C   UNL     1       4.173  29.027  51.132  1.00  0.00     0.038 C 
HETATM    9  C   UNL     1       3.966  27.920  50.099  1.00  0.00     0.003 C 
HETATM   10  C   UNL     1       5.011  26.823  50.237  1.00  0.00     0.001 C 
HETATM   11  C   UNL     1       5.072  26.271  51.658  1.00  0.00     0.010 C 
ENDROOT
BRANCH   2  12
HETATM   12  C   UNL     1       6.957  28.369  55.588  1.00  0.00     0.338 C 
BRANCH  12  13
HETATM   13  C   UNL     1       7.223  28.809  57.032  1.00  0.00     0.248 C 
HETATM   14  N   UNL     1       7.433  30.171  57.136  1.00  0.00    -0.319 N 
HETATM   15  H   UNL     1       7.766  30.697  56.334  1.00  0.00     0.169 HD
HETATM   16  O   UNL     1       7.305  28.007  57.954  1.00  0.00    -0.271 OA
BRANCH  14  17
HETATM   17  C   UNL     1       7.530  30.854  58.332  1.00  0.00     0.094 A 
HETATM   18  S   UNL     1       9.072  30.649  59.015  1.00  0.00    -0.076 SA
HETATM   19  C   UNL     1       8.660  31.551  60.400  1.00  0.00    -0.012 A 
HETATM   20  C   UNL     1       9.671  31.718  61.491  1.00  0.00     0.057 C 
HETATM   21  C   UNL     1       7.386  32.091  60.308  1.00  0.00    -0.030 A 
HETATM   22  C   UNL     1       6.799  33.032  61.318  1.00  0.00     0.050 C 
HETATM   23  C   UNL     1       6.706  31.671  59.082  1.00  0.00     0.080 A 
BRANCH  23  24
HETATM   24  C   UNL     1       5.388  32.144  58.655  1.00  0.00     0.296 C 
HETATM   25  O   UNL     1       4.338  31.652  59.054  1.00  0.00    -0.259 OA
BRANCH  24  26
HETATM   26  O   UNL     1       5.460  33.142  57.730  1.00  0.00    -0.322 OA
HETATM   27  C   UNL     1       4.902  32.800  56.462  1.00  0.00     0.213 C 
ENDBRANCH  24  26
ENDBRANCH  23  24
ENDBRANCH  14  17
ENDBRANCH  12  13
ENDBRANCH   2  12
BRANCH   1  28
HETATM   28  C   UNL     1       6.255  25.632  54.357  1.00  0.00    -0.027 A 
HETATM   29  C   UNL     1       6.113  24.845  55.504  1.00  0.00     0.011 A 
HETATM   30  C   UNL     1       6.798  23.625  55.633  1.00  0.00     0.030 A 
HETATM   31  C   UNL     1       7.658  23.130  54.640  1.00  0.00     0.030 A 
HETATM   32  C   UNL     1       7.867  23.988  53.551  1.00  0.00     0.030 A 
HETATM   33  C   UNL     1       7.168  25.194  53.398  1.00  0.00     0.011 A 
BRANCH  31  34
HETATM   34  N   UNL     1       8.261  21.877  54.714  1.00  0.00    -0.382 N 
BRANCH  34  35
HETATM   35  C   UNL     1       9.109  21.392  53.608  1.00  0.00     0.118 C 
HETATM   36  C   UNL     1       8.351  20.383  52.761  1.00  0.00     0.026 C 
ENDBRANCH  34  35
BRANCH  34  37
HETATM   37  C   UNL     1       7.792  20.840  55.646  1.00  0.00     0.118 C 
HETATM   38  C   UNL     1       8.722  20.710  56.843  1.00  0.00     0.026 C 
ENDBRANCH  34  37
ENDBRANCH  31  34
ENDBRANCH   1  28
BRANCH   6  39
HETATM   39  O   UNL     1       2.963  27.880  52.902  1.00  0.00    -0.389 OA
HETATM   40  H   UNL     1       2.269  28.280  52.343  1.00  0.00     0.210 HD
ENDBRANCH   6  39
TORSDOF 10
ENDMDL
MODEL 4
REMARK VINA RESULT:      -9.1      1.583      2.426
REMARK  10 active torsions:
REMARK  status: ('A' for Active; 'I' for Inactive)
REMARK    1  A    between atoms: C_2  and  N_3 
REMARK    2  A    between atoms: N_3  and  C_4 
REMARK    3  A    between atoms: N_3  and  C_37 
REMARK    4  A    between atoms: C_7  and  C_8 
REMARK    5  A    between atoms: N_9  and  C_11 
REMARK    6  A    between atoms: C_11  and  C_12 
REMARK       I    between atoms: C_12  and  N_13 
REMARK    7  A    between atoms: N_13  and  C_14 
REMARK    8  A    between atoms: C_20  and  C_21 
REMARK    9  A    between atoms: C_21  and  O_22 
REMARK   10  A    between atoms: C_28  and  O_29 
ROOT
HETATM    1  C   UNL     1       7.582  24.217  54.317  1.00  0.00     0.228 C 
HETATM    2  N   UNL     1       7.227  24.827  55.675  1.00  0.00    -0.054 N 
HETATM    3  H   UNL     1       7.633  25.765  55.580  1.00  0.00     0.281 HD
HETATM    4  C   UNL     1       8.006  24.229  56.820  1.00  0.00     0.239 C 
HETATM    5  C   UNL     1       8.034  22.710  56.829  1.00  0.00     0.066 C 
HETATM    6  C   UNL     1       8.427  22.126  55.474  1.00  0.00     0.065 C 
HETATM    7  C   UNL     1       7.521  22.674  54.350  1.00  0.00     0.055 C 
HETATM    8  C   UNL     1       8.383  20.587  55.510  1.00  0.00     0.038 C 
HETATM    9  C   UNL     1       8.758  19.971  54.162  1.00  0.00     0.003 C 
HETATM   10  C   UNL     1       7.901  20.528  53.035  1.00  0.00     0.001 C 
HETATM   11  C   UNL     1       7.936  22.053  52.994  1.00  0.00     0.010 C 
ENDROOT
BRANCH   2  12
HETATM   12  C   UNL     1       5.766  25.165  55.993  1.00  0.00     0.338 C 
BRANCH  12  13
HETATM   13  C   UNL     1       5.383  26.605  56.349  1.00  0.00     0.248 C 
HETATM   14  N   UNL     1       5.697  27.497  55.340  1.00  0.00    -0.319 N 
HETATM   15  H   UNL     1       6.431  27.274  54.675  1.00  0.00     0.169 HD
HETATM   16  O   UNL     1       4.920  26.908  57.442  1.00  0.00    -0.271 OA
BRANCH  14  17
HETATM   17  C   UNL     1       5.314  28.823  55.327  1.00  0.00     0.094 A 
HETATM   18  S   UNL     1       3.997  29.055  54.278  1.00  0.00    -0.076 SA
HETATM   19  C   UNL     1       3.981  30.737  54.550  1.00  0.00    -0.012 A 
HETATM   20  C   UNL     1       2.988  31.585  53.821  1.00  0.00     0.057 C 
HETATM   21  C   UNL     1       4.909  31.116  55.508  1.00  0.00    -0.030 A 
HETATM   22  C   UNL     1       5.037  32.511  56.045  1.00  0.00     0.050 C 
HETATM   23  C   UNL     1       5.711  29.982  55.967  1.00  0.00     0.080 A 
BRANCH  23  24
HETATM   24  C   UNL     1       6.709  30.043  57.036  1.00  0.00     0.296 C 
HETATM   25  O   UNL     1       6.465  30.482  58.155  1.00  0.00    -0.259 OA
BRANCH  24  26
HETATM   26  O   UNL     1       7.939  29.617  56.635  1.00  0.00    -0.322 OA
HETATM   27  C   UNL     1       8.461  28.536  57.408  1.00  0.00     0.213 C 
ENDBRANCH  24  26
ENDBRANCH  23  24
ENDBRANCH  14  17
ENDBRANCH  12  13
ENDBRANCH   2  12
BRANCH   1  28
HETATM   28  C   UNL     1       6.887  24.876  53.137  1.00  0.00    -0.027 A 
HETATM   29  C   UNL     1       5.639  24.412  52.707  1.00  0.00     0.011 A 
HETATM   30  C   UNL     1       4.897  25.121  51.747  1.00  0.00     0.030 A 
HETATM   31  C   UNL     1       5.354  26.313  51.164  1.00  0.00     0.030 A 
HETATM   32  C   UNL     1       6.652  26.696  51.531  1.00  0.00     0.030 A 
HETATM   33  C   UNL     1       7.391  26.014  52.507  1.00  0.00     0.011 A 
BRANCH  31  34
HETATM   34  N   UNL     1       4.583  27.075  50.290  1.00  0.00    -0.382 N 
BRANCH  34  35
HETATM   35  C   UNL     1       4.091  28.405  50.696  1.00  0.00     0.118 C 
HETATM   36  C   UNL     1       2.746  28.694  50.050  1.00  0.00     0.026 C 
ENDBRANCH  34  35
BRANCH  34  37
HETATM   37  C   UNL     1       3.895  26.478  49.134  1.00  0.00     0.118 C 
HETATM   38  C   UNL     1       4.760  26.535  47.884  1.00  0.00     0.026 C 
ENDBRANCH  34  37
ENDBRANCH  31  34
ENDBRANCH   1  28
BRANCH   6  39
HETATM   39  O   UNL     1       9.771  22.563  55.221  1.00  0.00    -0.389 OA
HETATM   40  H   UNL     1       9.753  23.502  54.955  1.00  0.00     0.210 HD
ENDBRANCH   6  39
TORSDOF 10
ENDMDL
MODEL 5
REMARK VINA RESULT:      -8.9      2.234      6.255
REMARK  10 active torsions:
REMARK  status: ('A' for Active; 'I' for Inactive)
REMARK    1  A    between atoms: C_2  and  N_3 
REMARK    2  A    between atoms: N_3  and  C_4 
REMARK    3  A    between atoms: N_3  and  C_37 
REMARK    4  A    between atoms: C_7  and  C_8 
REMARK    5  A    between atoms: N_9  and  C_11 
REMARK    6  A    between atoms: C_11  and  C_12 
REMARK       I    between atoms: C_12  and  N_13 
REMARK    7  A    between atoms: N_13  and  C_14 
REMARK    8  A    between atoms: C_20  and  C_21 
REMARK    9  A    between atoms: C_21  and  O_22 
REMARK   10  A    between atoms: C_28  and  O_29 
ROOT
HETATM    1  C   UNL     1       4.677  27.068  52.008  1.00  0.00     0.228 C 
HETATM    2  N   UNL     1       4.655  28.225  53.010  1.00  0.00    -0.054 N 
HETATM    3  H   UNL     1       4.173  27.788  53.803  1.00  0.00     0.281 HD
HETATM    4  C   UNL     1       3.721  29.340  52.612  1.00  0.00     0.239 C 
HETATM    5  C   UNL     1       3.869  29.794  51.169  1.00  0.00     0.066 C 
HETATM    6  C   UNL     1       3.851  28.624  50.187  1.00  0.00     0.065 C 
HETATM    7  C   UNL     1       4.909  27.565  50.564  1.00  0.00     0.055 C 
HETATM    8  C   UNL     1       4.065  29.121  48.744  1.00  0.00     0.038 C 
HETATM    9  C   UNL     1       4.066  27.972  47.737  1.00  0.00     0.003 C 
HETATM   10  C   UNL     1       5.076  26.898  48.114  1.00  0.00     0.001 C 
HETATM   11  C   UNL     1       4.873  26.403  49.542  1.00  0.00     0.010 C 
ENDROOT
BRANCH   2  12
HETATM   12  C   UNL     1       5.962  28.680  53.669  1.00  0.00     0.338 C 
BRANCH  12  13
HETATM   13  C   UNL     1       6.015  28.878  55.187  1.00  0.00     0.248 C 
HETATM   14  N   UNL     1       6.563  30.097  55.539  1.00  0.00    -0.319 N 
HETATM   15  H   UNL     1       7.194  30.573  54.903  1.00  0.00     0.169 HD
HETATM   16  O   UNL     1       5.672  28.003  55.973  1.00  0.00    -0.271 OA
BRANCH  14  17
HETATM   17  C   UNL     1       6.579  30.600  56.824  1.00  0.00     0.094 A 
HETATM   18  S   UNL     1       5.276  31.663  57.067  1.00  0.00    -0.076 SA
HETATM   19  C   UNL     1       5.776  32.032  58.653  1.00  0.00    -0.012 A 
HETATM   20  C   UNL     1       4.993  33.024  59.454  1.00  0.00     0.057 C 
HETATM   21  C   UNL     1       6.875  31.280  59.039  1.00  0.00    -0.030 A 
HETATM   22  C   UNL     1       7.460  31.297  60.421  1.00  0.00     0.050 C 
HETATM   23  C   UNL     1       7.363  30.433  57.950  1.00  0.00     0.080 A 
BRANCH  23  24
HETATM   24  C   UNL     1       8.450  29.460  58.072  1.00  0.00     0.296 C 
HETATM   25  O   UNL     1       8.260  28.257  58.216  1.00  0.00    -0.259 OA
BRANCH  24  26
HETATM   26  O   UNL     1       9.682  30.042  58.068  1.00  0.00    -0.322 OA
HETATM   27  C   UNL     1      10.495  29.673  56.954  1.00  0.00     0.213 C 
ENDBRANCH  24  26
ENDBRANCH  23  24
ENDBRANCH  14  17
ENDBRANCH  12  13
ENDBRANCH   2  12
BRANCH   1  28
HETATM   28  C   UNL     1       5.530  25.886  52.439  1.00  0.00    -0.027 A 
HETATM   29  C   UNL     1       6.801  25.696  51.885  1.00  0.00     0.011 A 
HETATM   30  C   UNL     1       7.677  24.728  52.403  1.00  0.00     0.030 A 
HETATM   31  C   UNL     1       7.339  23.900  53.484  1.00  0.00     0.030 A 
HETATM   32  C   UNL     1       6.023  24.035  53.949  1.00  0.00     0.030 A 
HETATM   33  C   UNL     1       5.149  25.016  53.460  1.00  0.00     0.011 A 
BRANCH  31  34
HETATM   34  N   UNL     1       8.236  23.009  54.068  1.00  0.00    -0.382 N 
BRANCH  34  35
HETATM   35  C   UNL     1       8.947  23.374  55.308  1.00  0.00     0.118 C 
HETATM   36  C   UNL     1       8.373  22.612  56.492  1.00  0.00     0.026 C 
ENDBRANCH  34  35
BRANCH  34  37
HETATM   37  C   UNL     1       8.820  21.885  53.318  1.00  0.00     0.118 C 
HETATM   38  C   UNL     1       7.797  20.783  53.088  1.00  0.00     0.026 C 
ENDBRANCH  34  37
ENDBRANCH  31  34
ENDBRANCH   1  28
BRANCH   6  39
HETATM   39  O   UNL     1       2.552  28.022  50.300  1.00  0.00    -0.389 OA
HETATM   40  H   UNL     1       2.027  28.524  50.952  1.00  0.00     0.210 HD
ENDBRANCH   6  39
TORSDOF 10
ENDMDL
MODEL 6
REMARK VINA RESULT:      -8.7      1.716      2.647
REMARK  10 active torsions:
REMARK  status: ('A' for Active; 'I' for Inactive)
REMARK    1  A    between atoms: C_2  and  N_3 
REMARK    2  A    between atoms: N_3  and  C_4 
REMARK    3  A    between atoms: N_3  and  C_37 
REMARK    4  A    between atoms: C_7  and  C_8 
REMARK    5  A    between atoms: N_9  and  C_11 
REMARK    6  A    between atoms: C_11  and  C_12 
REMARK       I    between atoms: C_12  and  N_13 
REMARK    7  A    between atoms: N_13  and  C_14 
REMARK    8  A    between atoms: C_20  and  C_21 
REMARK    9  A    between atoms: C_21  and  O_22 
REMARK   10  A    between atoms: C_28  and  O_29 
ROOT
HETATM    1  C   UNL     1       8.046  24.198  54.395  1.00  0.00     0.228 C 
HETATM    2  N   UNL     1       8.065  24.787  55.808  1.00  0.00    -0.054 N 
HETATM    3  H   UNL     1       8.574  25.663  55.647  1.00  0.00     0.281 HD
HETATM    4  C   UNL     1       8.967  24.036  56.755  1.00  0.00     0.239 C 
HETATM    5  C   UNL     1       8.778  22.528  56.733  1.00  0.00     0.066 C 
HETATM    6  C   UNL     1       8.799  21.960  55.315  1.00  0.00     0.065 C 
HETATM    7  C   UNL     1       7.772  22.678  54.413  1.00  0.00     0.055 C 
HETATM    8  C   UNL     1       8.542  20.441  55.333  1.00  0.00     0.038 C 
HETATM    9  C   UNL     1       8.543  19.843  53.927  1.00  0.00     0.003 C 
HETATM   10  C   UNL     1       7.565  20.564  53.011  1.00  0.00     0.001 C 
HETATM   11  C   UNL     1       7.809  22.069  52.990  1.00  0.00     0.010 C 
ENDROOT
BRANCH   2  12
HETATM   12  C   UNL     1       6.764  25.307  56.429  1.00  0.00     0.338 C 
BRANCH  12  13
HETATM   13  C   UNL     1       6.791  26.569  57.296  1.00  0.00     0.248 C 
HETATM   14  N   UNL     1       6.422  27.700  56.591  1.00  0.00    -0.319 N 
HETATM   15  H   UNL     1       6.530  27.727  55.582  1.00  0.00     0.169 HD
HETATM   16  O   UNL     1       7.172  26.555  58.460  1.00  0.00    -0.271 OA
BRANCH  14  17
HETATM   17  C   UNL     1       6.202  28.936  57.164  1.00  0.00     0.094 A 
HETATM   18  S   UNL     1       4.588  29.419  56.943  1.00  0.00    -0.076 SA
HETATM   19  C   UNL     1       4.855  30.921  57.702  1.00  0.00    -0.012 A 
HETATM   20  C   UNL     1       3.730  31.902  57.798  1.00  0.00     0.057 C 
HETATM   21  C   UNL     1       6.141  31.023  58.211  1.00  0.00    -0.030 A 
HETATM   22  C   UNL     1       6.626  32.177  59.038  1.00  0.00     0.050 C 
HETATM   23  C   UNL     1       6.949  29.848  57.885  1.00  0.00     0.080 A 
BRANCH  23  24
HETATM   24  C   UNL     1       8.316  29.618  58.356  1.00  0.00     0.296 C 
HETATM   25  O   UNL     1       8.664  29.801  59.518  1.00  0.00    -0.259 OA
BRANCH  24  26
HETATM   26  O   UNL     1       9.162  29.240  57.357  1.00  0.00    -0.322 OA
HETATM   27  C   UNL     1      10.248  30.141  57.143  1.00  0.00     0.213 C 
ENDBRANCH  24  26
ENDBRANCH  23  24
ENDBRANCH  14  17
ENDBRANCH  12  13
ENDBRANCH   2  12
BRANCH   1  28
HETATM   28  C   UNL     1       7.228  24.999  53.397  1.00  0.00    -0.027 A 
HETATM   29  C   UNL     1       5.990  24.521  52.956  1.00  0.00     0.011 A 
HETATM   30  C   UNL     1       5.136  25.328  52.185  1.00  0.00     0.030 A 
HETATM   31  C   UNL     1       5.466  26.639  51.810  1.00  0.00     0.030 A 
HETATM   32  C   UNL     1       6.755  27.055  52.171  1.00  0.00     0.030 A 
HETATM   33  C   UNL     1       7.605  26.270  52.963  1.00  0.00     0.011 A 
BRANCH  31  34
HETATM   34  N   UNL     1       4.586  27.480  51.135  1.00  0.00    -0.382 N 
BRANCH  34  35
HETATM   35  C   UNL     1       4.730  27.700  49.683  1.00  0.00     0.118 C 
HETATM   36  C   UNL     1       4.391  26.432  48.917  1.00  0.00     0.026 C 
ENDBRANCH  34  35
BRANCH  34  37
HETATM   37  C   UNL     1       3.760  28.473  51.841  1.00  0.00     0.118 C 
HETATM   38  C   UNL     1       2.743  29.112  50.907  1.00  0.00     0.026 C 
ENDBRANCH  34  37
ENDBRANCH  31  34
ENDBRANCH   1  28
BRANCH   6  39
HETATM   39  O   UNL     1      10.112  22.219  54.796  1.00  0.00    -0.389 OA
HETATM   40  H   UNL     1      10.044  22.879  54.079  1.00  0.00     0.210 HD
ENDBRANCH   6  39
TORSDOF 10
ENDMDL
MODEL 7
REMARK VINA RESULT:      -8.1      2.579      6.611
REMARK  10 active torsions:
REMARK  status: ('A' for Active; 'I' for Inactive)
REMARK    1  A    between atoms: C_2  and  N_3 
REMARK    2  A    between atoms: N_3  and  C_4 
REMARK    3  A    between atoms: N_3  and  C_37 
REMARK    4  A    between atoms: C_7  and  C_8 
REMARK    5  A    between atoms: N_9  and  C_11 
REMARK    6  A    between atoms: C_11  and  C_12 
REMARK       I    between atoms: C_12  and  N_13 
REMARK    7  A    between atoms: N_13  and  C_14 
REMARK    8  A    between atoms: C_20  and  C_21 
REMARK    9  A    between atoms: C_21  and  O_22 
REMARK   10  A    between atoms: C_28  and  O_29 
ROOT
HETATM    1  C   UNL     1       4.639  27.759  53.448  1.00  0.00     0.228 C 
HETATM    2  N   UNL     1       4.546  28.767  54.596  1.00  0.00    -0.054 N 
HETATM    3  H   UNL     1       4.085  28.200  55.316  1.00  0.00     0.281 HD
HETATM    4  C   UNL     1       3.553  29.872  54.339  1.00  0.00     0.239 C 
HETATM    5  C   UNL     1       3.684  30.525  52.973  1.00  0.00     0.066 C 
HETATM    6  C   UNL     1       3.737  29.500  51.842  1.00  0.00     0.065 C 
HETATM    7  C   UNL     1       4.851  28.459  52.087  1.00  0.00     0.055 C 
HETATM    8  C   UNL     1       3.931  30.198  50.483  1.00  0.00     0.038 C 
HETATM    9  C   UNL     1       4.003  29.198  49.329  1.00  0.00     0.003 C 
HETATM   10  C   UNL     1       5.070  28.140  49.571  1.00  0.00     0.001 C 
HETATM   11  C   UNL     1       4.887  27.445  50.917  1.00  0.00     0.010 C 
ENDROOT
BRANCH   2  12
HETATM   12  C   UNL     1       5.822  29.199  55.327  1.00  0.00     0.338 C 
BRANCH  12  13
HETATM   13  C   UNL     1       5.759  29.543  56.819  1.00  0.00     0.248 C 
HETATM   14  N   UNL     1       6.011  30.881  57.060  1.00  0.00    -0.319 N 
HETATM   15  H   UNL     1       6.551  31.424  56.396  1.00  0.00     0.169 HD
HETATM   16  O   UNL     1       5.578  28.690  57.679  1.00  0.00    -0.271 OA
BRANCH  14  17
HETATM   17  C   UNL     1       5.856  31.491  58.289  1.00  0.00     0.094 A 
HETATM   18  S   UNL     1       4.214  31.791  58.605  1.00  0.00    -0.076 SA
HETATM   19  C   UNL     1       4.563  32.566  60.082  1.00  0.00    -0.012 A 
HETATM   20  C   UNL     1       3.442  33.137  60.891  1.00  0.00     0.057 C 
HETATM   21  C   UNL     1       5.915  32.515  60.387  1.00  0.00    -0.030 A 
HETATM   22  C   UNL     1       6.501  33.002  61.679  1.00  0.00     0.050 C 
HETATM   23  C   UNL     1       6.690  31.885  59.318  1.00  0.00     0.080 A 
BRANCH  23  24
HETATM   24  C   UNL     1       8.125  31.603  59.382  1.00  0.00     0.296 C 
HETATM   25  O   UNL     1       8.975  32.346  58.905  1.00  0.00    -0.259 OA
BRANCH  24  26
HETATM   26  O   UNL     1       8.402  30.407  59.974  1.00  0.00    -0.322 OA
HETATM   27  C   UNL     1       9.206  30.512  61.149  1.00  0.00     0.213 C 
ENDBRANCH  24  26
ENDBRANCH  23  24
ENDBRANCH  14  17
ENDBRANCH  12  13
ENDBRANCH   2  12
BRANCH   1  28
HETATM   28  C   UNL     1       5.555  26.578  53.726  1.00  0.00    -0.027 A 
HETATM   29  C   UNL     1       6.918  26.658  53.422  1.00  0.00     0.011 A 
HETATM   30  C   UNL     1       7.811  25.658  53.843  1.00  0.00     0.030 A 
HETATM   31  C   UNL     1       7.401  24.534  54.576  1.00  0.00     0.030 A 
HETATM   32  C   UNL     1       6.017  24.424  54.773  1.00  0.00     0.030 A 
HETATM   33  C   UNL     1       5.119  25.427  54.383  1.00  0.00     0.011 A 
BRANCH  31  34
HETATM   34  N   UNL     1       8.292  23.592  55.084  1.00  0.00    -0.382 N 
BRANCH  34  35
HETATM   35  C   UNL     1       8.722  22.450  54.256  1.00  0.00     0.118 C 
HETATM   36  C   UNL     1       7.918  22.396  52.967  1.00  0.00     0.026 C 
ENDBRANCH  34  35
BRANCH  34  37
HETATM   37  C   UNL     1       8.529  23.444  56.529  1.00  0.00     0.118 C 
HETATM   38  C   UNL     1       8.842  24.783  57.179  1.00  0.00     0.026 C 
ENDBRANCH  34  37
ENDBRANCH  31  34
ENDBRANCH   1  28
BRANCH   6  39
HETATM   39  O   UNL     1       2.474  28.818  51.855  1.00  0.00    -0.389 OA
HETATM   40  H   UNL     1       2.066  28.925  52.736  1.00  0.00     0.210 HD
ENDBRANCH   6  39
TORSDOF 10
ENDMDL
MODEL 8
REMARK VINA RESULT:      -7.8      2.549      7.599
REMARK  10 active torsions:
REMARK  status: ('A' for Active; 'I' for Inactive)
REMARK    1  A    between atoms: C_2  and  N_3 
REMARK    2  A    between atoms: N_3  and  C_4 
REMARK    3  A    between atoms: N_3  and  C_37 
REMARK    4  A    between atoms: C_7  and  C_8 
REMARK    5  A    between atoms: N_9  and  C_11 
REMARK    6  A    between atoms: C_11  and  C_12 
REMARK       I    between atoms: C_12  and  N_13 
REMARK    7  A    between atoms: N_13  and  C_14 
REMARK    8  A    between atoms: C_20  and  C_21 
REMARK    9  A    between atoms: C_21  and  O_22 
REMARK   10  A    between atoms: C_28  and  O_29 
ROOT
HETATM    1  C   UNL     1       3.865  29.290  53.883  1.00  0.00     0.228 C 
HETATM    2  N   UNL     1       4.408  27.978  54.457  1.00  0.00    -0.054 N 
HETATM    3  H   UNL     1       3.648  27.332  54.218  1.00  0.00     0.281 HD
HETATM    4  C   UNL     1       4.423  27.948  55.964  1.00  0.00     0.239 C 
HETATM    5  C   UNL     1       5.030  29.184  56.608  1.00  0.00     0.066 C 
HETATM    6  C   UNL     1       4.447  30.478  56.045  1.00  0.00     0.065 C 
HETATM    7  C   UNL     1       4.565  30.519  54.506  1.00  0.00     0.055 C 
HETATM    8  C   UNL     1       5.131  31.705  56.678  1.00  0.00     0.038 C 
HETATM    9  C   UNL     1       4.579  33.018  56.126  1.00  0.00     0.003 C 
HETATM   10  C   UNL     1       4.651  33.060  54.606  1.00  0.00     0.001 C 
HETATM   11  C   UNL     1       3.977  31.848  53.971  1.00  0.00     0.010 C 
ENDROOT
BRANCH   2  12
HETATM   12  C   UNL     1       5.603  27.296  53.783  1.00  0.00     0.338 C 
BRANCH  12  13
HETATM   13  C   UNL     1       5.744  25.772  53.854  1.00  0.00     0.248 C 
HETATM   14  N   UNL     1       7.056  25.373  54.032  1.00  0.00    -0.319 N 
HETATM   15  H   UNL     1       7.815  25.979  53.740  1.00  0.00     0.169 HD
HETATM   16  O   UNL     1       4.791  25.019  53.694  1.00  0.00    -0.271 OA
BRANCH  14  17
HETATM   17  C   UNL     1       7.444  24.074  54.293  1.00  0.00     0.094 A 
HETATM   18  S   UNL     1       7.639  23.205  52.846  1.00  0.00    -0.076 SA
HETATM   19  C   UNL     1       8.009  21.763  53.675  1.00  0.00    -0.012 A 
HETATM   20  C   UNL     1       8.268  20.515  52.891  1.00  0.00     0.057 C 
HETATM   21  C   UNL     1       8.082  21.957  55.046  1.00  0.00    -0.030 A 
HETATM   22  C   UNL     1       8.511  20.901  56.021  1.00  0.00     0.050 C 
HETATM   23  C   UNL     1       7.737  23.329  55.420  1.00  0.00     0.080 A 
BRANCH  23  24
HETATM   24  C   UNL     1       7.808  23.867  56.780  1.00  0.00     0.296 C 
HETATM   25  O   UNL     1       8.671  23.538  57.586  1.00  0.00    -0.259 OA
BRANCH  24  26
HETATM   26  O   UNL     1       6.783  24.719  57.064  1.00  0.00    -0.322 OA
HETATM   27  C   UNL     1       7.203  25.977  57.591  1.00  0.00     0.213 C 
ENDBRANCH  24  26
ENDBRANCH  23  24
ENDBRANCH  14  17
ENDBRANCH  12  13
ENDBRANCH   2  12
BRANCH   1  28
HETATM   28  C   UNL     1       3.741  29.305  52.369  1.00  0.00    -0.027 A 
HETATM   29  C   UNL     1       2.503  29.069  51.762  1.00  0.00     0.011 A 
HETATM   30  C   UNL     1       2.326  29.265  50.382  1.00  0.00     0.030 A 
HETATM   31  C   UNL     1       3.362  29.695  49.539  1.00  0.00     0.030 A 
HETATM   32  C   UNL     1       4.617  29.819  50.152  1.00  0.00     0.030 A 
HETATM   33  C   UNL     1       4.800  29.653  51.531  1.00  0.00     0.011 A 
BRANCH  31  34
HETATM   34  N   UNL     1       3.171  29.990  48.191  1.00  0.00    -0.382 N 
BRANCH  34  35
HETATM   35  C   UNL     1       2.936  28.907  47.217  1.00  0.00     0.118 C 
HETATM   36  C   UNL     1       3.817  27.709  47.532  1.00  0.00     0.026 C 
ENDBRANCH  34  35
BRANCH  34  37
HETATM   37  C   UNL     1       3.579  31.279  47.609  1.00  0.00     0.118 C 
HETATM   38  C   UNL     1       4.107  31.104  46.193  1.00  0.00     0.026 C 
ENDBRANCH  34  37
ENDBRANCH  31  34
ENDBRANCH   1  28
BRANCH   6  39
HETATM   39  O   UNL     1       3.053  30.476  56.390  1.00  0.00    -0.389 OA
HETATM   40  H   UNL     1       2.954  30.786  57.310  1.00  0.00     0.210 HD
ENDBRANCH   6  39
TORSDOF 10
ENDMDL
MODEL 9
REMARK VINA RESULT:      -7.7      3.712      7.895
REMARK  10 active torsions:
REMARK  status: ('A' for Active; 'I' for Inactive)
REMARK    1  A    between atoms: C_2  and  N_3 
REMARK    2  A    between atoms: N_3  and  C_4 
REMARK    3  A    between atoms: N_3  and  C_37 
REMARK    4  A    between atoms: C_7  and  C_8 
REMARK    5  A    between atoms: N_9  and  C_11 
REMARK    6  A    between atoms: C_11  and  C_12 
REMARK       I    between atoms: C_12  and  N_13 
REMARK    7  A    between atoms: N_13  and  C_14 
REMARK    8  A    between atoms: C_20  and  C_21 
REMARK    9  A    between atoms: C_21  and  O_22 
REMARK   10  A    between atoms: C_28  and  O_29 
ROOT
HETATM    1  C   UNL     1       4.620  29.642  56.548  1.00  0.00     0.228 C 
HETATM    2  N   UNL     1       5.001  30.377  57.836  1.00  0.00    -0.054 N 
HETATM    3  H   UNL     1       4.749  29.676  58.542  1.00  0.00     0.281 HD
HETATM    4  C   UNL     1       4.086  31.532  58.157  1.00  0.00     0.239 C 
HETATM    5  C   UNL     1       3.825  32.465  56.985  1.00  0.00     0.066 C 
HETATM    6  C   UNL     1       3.411  31.711  55.723  1.00  0.00     0.065 C 
HETATM    7  C   UNL     1       4.441  30.619  55.364  1.00  0.00     0.055 C 
HETATM    8  C   UNL     1       3.216  32.686  54.546  1.00  0.00     0.038 C 
HETATM    9  C   UNL     1       2.814  31.961  53.262  1.00  0.00     0.003 C 
HETATM   10  C   UNL     1       3.797  30.854  52.914  1.00  0.00     0.001 C 
HETATM   11  C   UNL     1       3.999  29.885  54.075  1.00  0.00     0.010 C 
ENDROOT
BRANCH   2  12
HETATM   12  C   UNL     1       6.480  30.611  58.163  1.00  0.00     0.338 C 
BRANCH  12  13
HETATM   13  C   UNL     1       6.867  31.675  59.196  1.00  0.00     0.248 C 
HETATM   14  N   UNL     1       6.000  31.701  60.273  1.00  0.00    -0.319 N 
HETATM   15  H   UNL     1       5.051  31.359  60.170  1.00  0.00     0.169 HD
HETATM   16  O   UNL     1       7.801  32.448  59.020  1.00  0.00    -0.271 OA
BRANCH  14  17
HETATM   17  C   UNL     1       6.207  32.443  61.419  1.00  0.00     0.094 A 
HETATM   18  S   UNL     1       4.986  33.611  61.603  1.00  0.00    -0.076 SA
HETATM   19  C   UNL     1       5.708  34.251  63.008  1.00  0.00    -0.012 A 
HETATM   20  C   UNL     1       5.076  35.426  63.684  1.00  0.00     0.057 C 
HETATM   21  C   UNL     1       6.822  33.523  63.396  1.00  0.00    -0.030 A 
HETATM   22  C   UNL     1       7.587  33.773  64.662  1.00  0.00     0.050 C 
HETATM   23  C   UNL     1       7.129  32.451  62.448  1.00  0.00     0.080 A 
BRANCH  23  24
HETATM   24  C   UNL     1       8.188  31.456  62.627  1.00  0.00     0.296 C 
HETATM   25  O   UNL     1       8.060  30.461  63.333  1.00  0.00    -0.259 OA
BRANCH  24  26
HETATM   26  O   UNL     1       9.338  31.787  61.976  1.00  0.00    -0.322 OA
HETATM   27  C   UNL     1       9.887  30.728  61.193  1.00  0.00     0.213 C 
ENDBRANCH  24  26
ENDBRANCH  23  24
ENDBRANCH  14  17
ENDBRANCH  12  13
ENDBRANCH   2  12
BRANCH   1  28
HETATM   28  C   UNL     1       5.462  28.411  56.260  1.00  0.00    -0.027 A 
HETATM   29  C   UNL     1       5.009  27.143  56.641  1.00  0.00     0.011 A 
HETATM   30  C   UNL     1       5.675  25.980  56.219  1.00  0.00     0.030 A 
HETATM   31  C   UNL     1       6.820  26.015  55.408  1.00  0.00     0.030 A 
HETATM   32  C   UNL     1       7.315  27.298  55.130  1.00  0.00     0.030 A 
HETATM   33  C   UNL     1       6.644  28.464  55.523  1.00  0.00     0.011 A 
BRANCH  31  34
HETATM   34  N   UNL     1       7.426  24.869  54.901  1.00  0.00    -0.382 N 
BRANCH  34  35
HETATM   35  C   UNL     1       6.884  24.209  53.698  1.00  0.00     0.118 C 
HETATM   36  C   UNL     1       7.721  24.559  52.478  1.00  0.00     0.026 C 
ENDBRANCH  34  35
BRANCH  34  37
HETATM   37  C   UNL     1       8.337  24.044  55.712  1.00  0.00     0.118 C 
HETATM   38  C   UNL     1       7.902  22.587  55.724  1.00  0.00     0.026 C 
ENDBRANCH  34  37
ENDBRANCH  31  34
ENDBRANCH   1  28
BRANCH   6  39
HETATM   39  O   UNL     1       2.163  31.070  56.027  1.00  0.00    -0.389 OA
HETATM   40  H   UNL     1       2.207  30.706  56.932  1.00  0.00     0.210 HD
ENDBRANCH   6  39
TORSDOF 10
ENDMDL
MODEL 10
REMARK VINA RESULT:      -7.6      2.940      7.793
REMARK  10 active torsions:
REMARK  status: ('A' for Active; 'I' for Inactive)
REMARK    1  A    between atoms: C_2  and  N_3 
REMARK    2  A    between atoms: N_3  and  C_4 
REMARK    3  A    between atoms: N_3  and  C_37 
REMARK    4  A    between atoms: C_7  and  C_8 
REMARK    5  A    between atoms: N_9  and  C_11 
REMARK    6  A    between atoms: C_11  and  C_12 
REMARK       I    between atoms: C_12  and  N_13 
REMARK    7  A    between atoms: N_13  and  C_14 
REMARK    8  A    between atoms: C_20  and  C_21 
REMARK    9  A    between atoms: C_21  and  O_22 
REMARK   10  A    between atoms: C_28  and  O_29 
ROOT
HETATM    1  C   UNL     1       6.363  26.807  55.772  1.00  0.00     0.228 C 
HETATM    2  N   UNL     1       5.789  27.021  54.369  1.00  0.00    -0.054 N 
HETATM    3  H   UNL     1       4.877  27.434  54.593  1.00  0.00     0.281 HD
HETATM    4  C   UNL     1       5.421  25.734  53.673  1.00  0.00     0.239 C 
HETATM    5  C   UNL     1       6.500  24.665  53.726  1.00  0.00     0.066 C 
HETATM    6  C   UNL     1       7.031  24.444  55.141  1.00  0.00     0.065 C 
HETATM    7  C   UNL     1       7.510  25.771  55.768  1.00  0.00     0.055 C 
HETATM    8  C   UNL     1       8.162  23.399  55.142  1.00  0.00     0.038 C 
HETATM    9  C   UNL     1       8.726  23.165  56.543  1.00  0.00     0.003 C 
HETATM   10  C   UNL     1       9.168  24.468  57.193  1.00  0.00     0.001 C 
HETATM   11  C   UNL     1       8.053  25.510  57.194  1.00  0.00     0.010 C 
ENDROOT
BRANCH   2  12
HETATM   12  C   UNL     1       6.392  28.099  53.462  1.00  0.00     0.338 C 
BRANCH  12  13
HETATM   13  C   UNL     1       5.546  28.697  52.333  1.00  0.00     0.248 C 
HETATM   14  N   UNL     1       5.887  28.187  51.094  1.00  0.00    -0.319 N 
HETATM   15  H   UNL     1       6.815  27.805  50.939  1.00  0.00     0.169 HD
HETATM   16  O   UNL     1       4.721  29.580  52.532  1.00  0.00    -0.271 OA
BRANCH  14  17
HETATM   17  C   UNL     1       5.180  28.426  49.933  1.00  0.00     0.094 A 
HETATM   18  S   UNL     1       4.342  27.031  49.444  1.00  0.00    -0.076 SA
HETATM   19  C   UNL     1       3.753  27.788  48.036  1.00  0.00    -0.012 A 
HETATM   20  C   UNL     1       2.907  27.003  47.084  1.00  0.00     0.057 C 
HETATM   21  C   UNL     1       4.109  29.127  47.979  1.00  0.00    -0.030 A 
HETATM   22  C   UNL     1       3.630  30.078  46.923  1.00  0.00     0.050 C 
HETATM   23  C   UNL     1       4.966  29.509  49.101  1.00  0.00     0.080 A 
BRANCH  23  24
HETATM   24  C   UNL     1       5.432  30.871  49.370  1.00  0.00     0.296 C 
HETATM   25  O   UNL     1       6.606  31.145  49.598  1.00  0.00    -0.259 OA
BRANCH  24  26
HETATM   26  O   UNL     1       4.418  31.780  49.397  1.00  0.00    -0.322 OA
HETATM   27  C   UNL     1       4.758  33.047  48.835  1.00  0.00     0.213 C 
ENDBRANCH  24  26
ENDBRANCH  23  24
ENDBRANCH  14  17
ENDBRANCH  12  13
ENDBRANCH   2  12
BRANCH   1  28
HETATM   28  C   UNL     1       6.643  28.091  56.534  1.00  0.00    -0.027 A 
HETATM   29  C   UNL     1       5.584  28.882  56.994  1.00  0.00     0.011 A 
HETATM   30  C   UNL     1       5.814  29.965  57.859  1.00  0.00     0.030 A 
HETATM   31  C   UNL     1       7.097  30.320  58.303  1.00  0.00     0.030 A 
HETATM   32  C   UNL     1       8.148  29.581  57.744  1.00  0.00     0.030 A 
HETATM   33  C   UNL     1       7.930  28.482  56.902  1.00  0.00     0.011 A 
BRANCH  31  34
HETATM   34  N   UNL     1       7.324  31.326  59.239  1.00  0.00    -0.382 N 
BRANCH  34  35
HETATM   35  C   UNL     1       8.297  31.125  60.329  1.00  0.00     0.118 C 
HETATM   36  C   UNL     1       9.459  32.095  60.190  1.00  0.00     0.026 C 
ENDBRANCH  34  35
BRANCH  34  37
HETATM   37  C   UNL     1       6.371  32.429  59.446  1.00  0.00     0.118 C 
HETATM   38  C   UNL     1       5.857  32.455  60.878  1.00  0.00     0.026 C 
ENDBRANCH  34  37
ENDBRANCH  31  34
ENDBRANCH   1  28
BRANCH   6  39
HETATM   39  O   UNL     1       5.925  23.955  55.915  1.00  0.00    -0.389 OA
HETATM   40  H   UNL     1       6.271  23.472  56.691  1.00  0.00     0.210 HD
ENDBRANCH   6  39
TORSDOF 10
ENDMDL
