MODEL 1
REMARK VINA RESULT:     -10.1      0.000      0.000
REMARK  4 active torsions:
REMARK  status: ('A' for Active; 'I' for Inactive)
REMARK    1  A    between atoms: C_3  and  C_4 
REMARK    2  A    between atoms: C_5  and  C_6 
REMARK       I    between atoms: C_6  and  N_7 
REMARK    3  A    between atoms: N_7  and  C_8 
REMARK    4  A    between atoms: C_15  and  C_16 
REMARK       I    between atoms: C_16  and  N_17 
ROOT
HETATM    1  C   UNL     1       7.425  27.788  55.605  1.00  0.00     0.035 A 
HETATM    2  C   UNL     1       8.428  28.602  56.152  1.00  0.00     0.046 A 
HETATM    3  C   UNL     1       8.121  29.448  57.241  1.00  0.00     0.030 A 
HETATM    4  C   UNL     1       6.832  29.436  57.757  1.00  0.00     0.063 A 
HETATM    5  N   UNL     1       6.843  30.337  58.784  1.00  0.00    -0.277 N 
HETATM    6  H   UNL     1       6.070  30.586  59.392  1.00  0.00     0.189 HD
HETATM    7  N   UNL     1       8.021  30.952  58.973  1.00  0.00    -0.168 NA
HETATM    8  C   UNL     1       8.823  30.415  58.025  1.00  0.00     0.156 A 
HETATM    9  C   UNL     1       5.812  28.631  57.246  1.00  0.00     0.034 A 
HETATM   10  C   UNL     1       6.135  27.816  56.155  1.00  0.00     0.032 A 
ENDROOT
BRANCH   1  11
HETATM   11  N   UNL     1       7.620  26.947  54.488  1.00  0.00    -0.327 N 
HETATM   12  C   UNL     1       6.874  25.846  54.125  1.00  0.00     0.227 C 
HETATM   13  O   UNL     1       5.858  25.435  54.665  1.00  0.00    -0.273 OA
HETATM   14  H   UNL     1       8.397  27.181  53.891  1.00  0.00     0.169 HD
BRANCH  12  15
HETATM   15  C   UNL     1       7.416  25.060  52.981  1.00  0.00     0.087 A 
HETATM   16  C   UNL     1       8.104  23.715  53.153  1.00  0.00     0.034 A 
HETATM   17  C   UNL     1       6.793  23.823  52.403  1.00  0.00     0.025 A 
BRANCH  16  18
HETATM   18  C   UNL     1       8.141  22.918  54.447  1.00  0.00    -0.031 A 
HETATM   19  C   UNL     1       8.431  23.545  55.673  1.00  0.00     0.009 A 
HETATM   20  C   UNL     1       8.491  22.833  56.875  1.00  0.00     0.001 A 
HETATM   21  C   UNL     1       8.283  21.459  56.885  1.00  0.00     0.002 A 
HETATM   22  C   UNL     1       8.027  20.798  55.688  1.00  0.00     0.024 A 
HETATM   23  C   UNL     1       7.965  21.515  54.487  1.00  0.00     0.040 A 
HETATM   24 CL   UNL     1       7.698  20.602  53.040  1.00  0.00    -0.084 Cl
ENDBRANCH  16  18
ENDBRANCH  12  15
ENDBRANCH   1  11
BRANCH   8  25
HETATM   25  C   UNL     1      10.222  30.841  57.882  1.00  0.00     0.270 C 
HETATM   26  N   UNL     1      11.057  29.865  57.410  1.00  0.00    -0.365 N 
HETATM   27  H   UNL     1      10.670  28.949  57.214  1.00  0.00     0.159 HD
HETATM   28  H   UNL     1      12.040  30.058  57.301  1.00  0.00     0.159 HD
HETATM   29  O   UNL     1      10.646  31.958  58.158  1.00  0.00    -0.266 OA
ENDBRANCH   8  25
TORSDOF 4
ENDMDL
MODEL 2
REMARK VINA RESULT:     -10.0      2.631      4.000
REMARK  4 active torsions:
REMARK  status: ('A' for Active; 'I' for Inactive)
REMARK    1  A    between atoms: C_3  and  C_4 
REMARK    2  A    between atoms: C_5  and  C_6 
REMARK       I    between atoms: C_6  and  N_7 
REMARK    3  A    between atoms: N_7  and  C_8 
REMARK    4  A    between atoms: C_15  and  C_16 
REMARK       I    between atoms: C_16  and  N_17 
ROOT
HETATM    1  C   UNL     1       8.056  28.476  57.473  1.00  0.00     0.035 A 
HETATM    2  C   UNL     1       7.843  29.503  58.404  1.00  0.00     0.046 A 
HETATM    3  C   UNL     1       8.811  30.522  58.552  1.00  0.00     0.030 A 
HETATM    4  C   UNL     1       9.946  30.490  57.752  1.00  0.00     0.063 A 
HETATM    5  N   UNL     1      10.678  31.585  58.115  1.00  0.00    -0.277 N 
HETATM    6  H   UNL     1      11.570  31.882  57.734  1.00  0.00     0.189 HD
HETATM    7  N   UNL     1      10.131  32.319  59.097  1.00  0.00    -0.168 NA
HETATM    8  C   UNL     1       8.977  31.674  59.380  1.00  0.00     0.156 A 
HETATM    9  C   UNL     1      10.186  29.491  56.807  1.00  0.00     0.034 A 
HETATM   10  C   UNL     1       9.221  28.482  56.692  1.00  0.00     0.032 A 
ENDROOT
BRANCH   1  11
HETATM   11  N   UNL     1       7.174  27.391  57.287  1.00  0.00    -0.327 N 
HETATM   12  C   UNL     1       6.011  27.371  56.548  1.00  0.00     0.227 C 
HETATM   13  O   UNL     1       5.562  28.273  55.856  1.00  0.00    -0.273 OA
HETATM   14  H   UNL     1       7.427  26.533  57.751  1.00  0.00     0.169 HD
BRANCH  12  15
HETATM   15  C   UNL     1       5.204  26.123  56.666  1.00  0.00     0.087 A 
HETATM   16  C   UNL     1       5.175  25.051  55.588  1.00  0.00     0.034 A 
HETATM   17  C   UNL     1       5.753  24.757  56.957  1.00  0.00     0.025 A 
BRANCH  16  18
HETATM   18  C   UNL     1       6.099  25.008  54.382  1.00  0.00    -0.031 A 
HETATM   19  C   UNL     1       7.298  24.270  54.417  1.00  0.00     0.009 A 
HETATM   20  C   UNL     1       8.176  24.229  53.329  1.00  0.00     0.001 A 
HETATM   21  C   UNL     1       7.892  24.947  52.174  1.00  0.00     0.002 A 
HETATM   22  C   UNL     1       6.734  25.715  52.113  1.00  0.00     0.024 A 
HETATM   23  C   UNL     1       5.856  25.751  53.204  1.00  0.00     0.040 A 
HETATM   24 CL   UNL     1       4.469  26.779  53.061  1.00  0.00    -0.084 Cl
ENDBRANCH  16  18
ENDBRANCH  12  15
ENDBRANCH   1  11
BRANCH   8  25
HETATM   25  C   UNL     1       8.074  32.160  60.433  1.00  0.00     0.270 C 
HETATM   26  N   UNL     1       8.611  32.117  61.691  1.00  0.00    -0.365 N 
HETATM   27  H   UNL     1       9.551  31.754  61.806  1.00  0.00     0.159 HD
HETATM   28  H   UNL     1       8.057  32.408  62.481  1.00  0.00     0.159 HD
HETATM   29  O   UNL     1       6.932  32.566  60.246  1.00  0.00    -0.266 OA
ENDBRANCH   8  25
TORSDOF 4
ENDMDL
MODEL 3
REMARK VINA RESULT:      -9.9      3.560      5.439
REMARK  4 active torsions:
REMARK  status: ('A' for Active; 'I' for Inactive)
REMARK    1  A    between atoms: C_3  and  C_4 
REMARK    2  A    between atoms: C_5  and  C_6 
REMARK       I    between atoms: C_6  and  N_7 
REMARK    3  A    between atoms: N_7  and  C_8 
REMARK    4  A    between atoms: C_15  and  C_16 
REMARK       I    between atoms: C_16  and  N_17 
ROOT
HETATM    1  C   UNL     1       5.763  27.221  54.964  1.00  0.00     0.035 A 
HETATM    2  C   UNL     1       5.638  27.148  53.570  1.00  0.00     0.046 A 
HETATM    3  C   UNL     1       4.686  27.958  52.912  1.00  0.00     0.030 A 
HETATM    4  C   UNL     1       3.907  28.825  53.667  1.00  0.00     0.063 A 
HETATM    5  N   UNL     1       3.099  29.464  52.769  1.00  0.00    -0.277 N 
HETATM    6  H   UNL     1       2.401  30.173  52.967  1.00  0.00     0.189 HD
HETATM    7  N   UNL     1       3.267  29.076  51.495  1.00  0.00    -0.168 NA
HETATM    8  C   UNL     1       4.244  28.143  51.566  1.00  0.00     0.156 A 
HETATM    9  C   UNL     1       4.013  28.934  55.055  1.00  0.00     0.034 A 
HETATM   10  C   UNL     1       4.950  28.107  55.686  1.00  0.00     0.032 A 
ENDROOT
BRANCH   1  11
HETATM   11  N   UNL     1       6.649  26.419  55.716  1.00  0.00    -0.327 N 
HETATM   12  C   UNL     1       6.336  25.339  56.512  1.00  0.00     0.227 C 
HETATM   13  O   UNL     1       5.235  24.828  56.659  1.00  0.00    -0.273 OA
HETATM   14  H   UNL     1       7.624  26.671  55.662  1.00  0.00     0.169 HD
BRANCH  12  15
HETATM   15  C   UNL     1       7.467  24.787  57.309  1.00  0.00     0.087 A 
HETATM   16  C   UNL     1       8.287  23.587  56.862  1.00  0.00     0.034 A 
HETATM   17  C   UNL     1       8.923  24.956  56.985  1.00  0.00     0.025 A 
BRANCH  16  18
HETATM   18  C   UNL     1       8.204  22.942  55.488  1.00  0.00    -0.031 A 
HETATM   19  C   UNL     1       8.181  23.730  54.322  1.00  0.00     0.009 A 
HETATM   20  C   UNL     1       8.085  23.164  53.046  1.00  0.00     0.001 A 
HETATM   21  C   UNL     1       7.986  21.786  52.899  1.00  0.00     0.002 A 
HETATM   22  C   UNL     1       7.971  20.976  54.029  1.00  0.00     0.024 A 
HETATM   23  C   UNL     1       8.070  21.546  55.304  1.00  0.00     0.040 A 
HETATM   24 CL   UNL     1       7.986  20.466  56.656  1.00  0.00    -0.084 Cl
ENDBRANCH  16  18
ENDBRANCH  12  15
ENDBRANCH   1  11
BRANCH   8  25
HETATM   25  C   UNL     1       4.718  27.447  50.361  1.00  0.00     0.270 C 
HETATM   26  N   UNL     1       4.389  26.119  50.319  1.00  0.00    -0.365 N 
HETATM   27  H   UNL     1       3.875  25.721  51.097  1.00  0.00     0.159 HD
HETATM   28  H   UNL     1       4.692  25.554  49.542  1.00  0.00     0.159 HD
HETATM   29  O   UNL     1       5.361  27.969  49.458  1.00  0.00    -0.266 OA
ENDBRANCH   8  25
TORSDOF 4
ENDMDL
MODEL 4
REMARK VINA RESULT:      -9.9      5.214      8.072
REMARK  4 active torsions:
REMARK  status: ('A' for Active; 'I' for Inactive)
REMARK    1  A    between atoms: C_3  and  C_4 
REMARK    2  A    between atoms: C_5  and  C_6 
REMARK       I    between atoms: C_6  and  N_7 
REMARK    3  A    between atoms: N_7  and  C_8 
REMARK    4  A    between atoms: C_15  and  C_16 
REMARK       I    between atoms: C_16  and  N_17 
ROOT
HETATM    1  C   UNL     1       5.227  26.884  50.638  1.00  0.00     0.035 A 
HETATM    2  C   UNL     1       4.477  26.615  49.484  1.00  0.00     0.046 A 
HETATM    3  C   UNL     1       3.460  27.513  49.089  1.00  0.00     0.030 A 
HETATM    4  C   UNL     1       3.243  28.656  49.849  1.00  0.00     0.063 A 
HETATM    5  N   UNL     1       2.220  29.316  49.229  1.00  0.00    -0.277 N 
HETATM    6  H   UNL     1       1.798  30.195  49.507  1.00  0.00     0.189 HD
HETATM    7  N   UNL     1       1.735  28.695  48.141  1.00  0.00    -0.168 NA
HETATM    8  C   UNL     1       2.491  27.577  48.042  1.00  0.00     0.156 A 
HETATM    9  C   UNL     1       3.978  28.961  50.996  1.00  0.00     0.034 A 
HETATM   10  C   UNL     1       4.967  28.046  51.377  1.00  0.00     0.032 A 
ENDROOT
BRANCH   1  11
HETATM   11  N   UNL     1       6.229  26.025  51.139  1.00  0.00    -0.327 N 
HETATM   12  C   UNL     1       6.074  24.974  52.017  1.00  0.00     0.227 C 
HETATM   13  O   UNL     1       5.024  24.544  52.471  1.00  0.00    -0.273 OA
HETATM   14  H   UNL     1       7.167  26.207  50.816  1.00  0.00     0.169 HD
BRANCH  12  15
HETATM   15  C   UNL     1       7.341  24.347  52.490  1.00  0.00     0.087 A 
HETATM   16  C   UNL     1       7.924  24.600  53.871  1.00  0.00     0.034 A 
HETATM   17  C   UNL     1       7.437  23.221  53.477  1.00  0.00     0.025 A 
BRANCH  16  18
HETATM   18  C   UNL     1       7.208  25.332  54.995  1.00  0.00    -0.031 A 
HETATM   19  C   UNL     1       6.533  24.620  56.004  1.00  0.00     0.009 A 
HETATM   20  C   UNL     1       5.849  25.268  57.038  1.00  0.00     0.001 A 
HETATM   21  C   UNL     1       5.802  26.655  57.083  1.00  0.00     0.002 A 
HETATM   22  C   UNL     1       6.429  27.394  56.085  1.00  0.00     0.024 A 
HETATM   23  C   UNL     1       7.114  26.742  55.053  1.00  0.00     0.040 A 
HETATM   24 CL   UNL     1       7.816  27.740  53.823  1.00  0.00    -0.084 Cl
ENDBRANCH  16  18
ENDBRANCH  12  15
ENDBRANCH   1  11
BRANCH   8  25
HETATM   25  C   UNL     1       2.263  26.599  46.969  1.00  0.00     0.270 C 
HETATM   26  N   UNL     1       1.100  26.795  46.274  1.00  0.00    -0.365 N 
HETATM   27  H   UNL     1       0.494  27.561  46.548  1.00  0.00     0.159 HD
HETATM   28  H   UNL     1       0.847  26.160  45.534  1.00  0.00     0.159 HD
HETATM   29  O   UNL     1       3.016  25.672  46.694  1.00  0.00    -0.266 OA
ENDBRANCH   8  25
TORSDOF 4
ENDMDL
MODEL 5
REMARK VINA RESULT:      -9.9      3.581      7.781
REMARK  4 active torsions:
REMARK  status: ('A' for Active; 'I' for Inactive)
REMARK    1  A    between atoms: C_3  and  C_4 
REMARK    2  A    between atoms: C_5  and  C_6 
REMARK       I    between atoms: C_6  and  N_7 
REMARK    3  A    between atoms: N_7  and  C_8 
REMARK    4  A    between atoms: C_15  and  C_16 
REMARK       I    between atoms: C_16  and  N_17 
ROOT
HETATM    1  C   UNL     1       6.842  25.071  54.738  1.00  0.00     0.035 A 
HETATM    2  C   UNL     1       7.419  23.982  55.406  1.00  0.00     0.046 A 
HETATM    3  C   UNL     1       7.811  22.841  54.669  1.00  0.00     0.030 A 
HETATM    4  C   UNL     1       7.632  22.839  53.292  1.00  0.00     0.063 A 
HETATM    5  N   UNL     1       8.100  21.627  52.866  1.00  0.00    -0.277 N 
HETATM    6  H   UNL     1       8.129  21.280  51.914  1.00  0.00     0.189 HD
HETATM    7  N   UNL     1       8.550  20.829  53.847  1.00  0.00    -0.168 NA
HETATM    8  C   UNL     1       8.377  21.565  54.969  1.00  0.00     0.156 A 
HETATM    9  C   UNL     1       7.073  23.910  52.592  1.00  0.00     0.034 A 
HETATM   10  C   UNL     1       6.674  25.020  53.347  1.00  0.00     0.032 A 
ENDROOT
BRANCH   1  11
HETATM   11  N   UNL     1       6.375  26.233  55.390  1.00  0.00    -0.327 N 
HETATM   12  C   UNL     1       6.474  26.542  56.730  1.00  0.00     0.227 C 
HETATM   13  O   UNL     1       7.051  25.898  57.593  1.00  0.00    -0.273 OA
HETATM   14  H   UNL     1       5.914  26.911  54.805  1.00  0.00     0.169 HD
BRANCH  12  15
HETATM   15  C   UNL     1       5.746  27.771  57.154  1.00  0.00     0.087 A 
HETATM   16  C   UNL     1       6.443  29.096  57.421  1.00  0.00     0.034 A 
HETATM   17  C   UNL     1       5.457  28.956  56.280  1.00  0.00     0.025 A 
BRANCH  16  18
HETATM   18  C   UNL     1       7.897  29.392  57.096  1.00  0.00    -0.031 A 
HETATM   19  C   UNL     1       8.417  29.136  55.813  1.00  0.00     0.009 A 
HETATM   20  C   UNL     1       9.756  29.380  55.492  1.00  0.00     0.001 A 
HETATM   21  C   UNL     1      10.627  29.871  56.457  1.00  0.00     0.002 A 
HETATM   22  C   UNL     1      10.160  30.106  57.746  1.00  0.00     0.024 A 
HETATM   23  C   UNL     1       8.818  29.862  58.062  1.00  0.00     0.040 A 
HETATM   24 CL   UNL     1       8.337  30.128  59.705  1.00  0.00    -0.084 Cl
ENDBRANCH  16  18
ENDBRANCH  12  15
ENDBRANCH   1  11
BRANCH   8  25
HETATM   25  C   UNL     1       8.740  21.032  56.290  1.00  0.00     0.270 C 
HETATM   26  N   UNL     1       9.599  19.967  56.245  1.00  0.00    -0.365 N 
HETATM   27  H   UNL     1       9.901  19.625  55.339  1.00  0.00     0.159 HD
HETATM   28  H   UNL     1       9.886  19.520  57.101  1.00  0.00     0.159 HD
HETATM   29  O   UNL     1       8.326  21.466  57.359  1.00  0.00    -0.266 OA
ENDBRANCH   8  25
TORSDOF 4
ENDMDL
MODEL 6
REMARK VINA RESULT:      -9.6      2.024      2.743
REMARK  4 active torsions:
REMARK  status: ('A' for Active; 'I' for Inactive)
REMARK    1  A    between atoms: C_3  and  C_4 
REMARK    2  A    between atoms: C_5  and  C_6 
REMARK       I    between atoms: C_6  and  N_7 
REMARK    3  A    between atoms: N_7  and  C_8 
REMARK    4  A    between atoms: C_15  and  C_16 
REMARK       I    between atoms: C_16  and  N_17 
ROOT
HETATM    1  C   UNL     1       7.399  28.225  55.626  1.00  0.00     0.035 A 
HETATM    2  C   UNL     1       6.408  29.214  55.700  1.00  0.00     0.046 A 
HETATM    3  C   UNL     1       6.277  29.983  56.878  1.00  0.00     0.030 A 
HETATM    4  C   UNL     1       7.151  29.749  57.932  1.00  0.00     0.063 A 
HETATM    5  N   UNL     1       6.786  30.631  58.910  1.00  0.00    -0.277 N 
HETATM    6  H   UNL     1       7.210  30.745  59.824  1.00  0.00     0.189 HD
HETATM    7  N   UNL     1       5.736  31.406  58.596  1.00  0.00    -0.168 NA
HETATM    8  C   UNL     1       5.407  31.017  57.343  1.00  0.00     0.156 A 
HETATM    9  C   UNL     1       8.156  28.781  57.889  1.00  0.00     0.034 A 
HETATM   10  C   UNL     1       8.254  28.020  56.718  1.00  0.00     0.032 A 
ENDROOT
BRANCH   1  11
HETATM   11  N   UNL     1       7.578  27.375  54.513  1.00  0.00    -0.327 N 
HETATM   12  C   UNL     1       6.789  26.310  54.133  1.00  0.00     0.227 C 
HETATM   13  O   UNL     1       5.743  25.947  54.652  1.00  0.00    -0.273 OA
HETATM   14  H   UNL     1       8.378  27.572  53.933  1.00  0.00     0.169 HD
BRANCH  12  15
HETATM   15  C   UNL     1       7.318  25.499  53.001  1.00  0.00     0.087 A 
HETATM   16  C   UNL     1       8.027  24.168  53.196  1.00  0.00     0.034 A 
HETATM   17  C   UNL     1       6.699  24.239  52.471  1.00  0.00     0.025 A 
BRANCH  16  18
HETATM   18  C   UNL     1       8.100  23.408  54.510  1.00  0.00    -0.031 A 
HETATM   19  C   UNL     1       8.389  24.077  55.715  1.00  0.00     0.009 A 
HETATM   20  C   UNL     1       8.483  23.400  56.936  1.00  0.00     0.001 A 
HETATM   21  C   UNL     1       8.311  22.022  56.985  1.00  0.00     0.002 A 
HETATM   22  C   UNL     1       8.058  21.321  55.810  1.00  0.00     0.024 A 
HETATM   23  C   UNL     1       7.963  22.003  54.591  1.00  0.00     0.040 A 
HETATM   24 CL   UNL     1       7.701  21.044  53.173  1.00  0.00    -0.084 Cl
ENDBRANCH  16  18
ENDBRANCH  12  15
ENDBRANCH   1  11
BRANCH   8  25
HETATM   25  C   UNL     1       4.275  31.625  56.630  1.00  0.00     0.270 C 
HETATM   26  N   UNL     1       4.635  32.348  55.526  1.00  0.00    -0.365 N 
HETATM   27  H   UNL     1       5.620  32.423  55.294  1.00  0.00     0.159 HD
HETATM   28  H   UNL     1       3.928  32.822  54.987  1.00  0.00     0.159 HD
HETATM   29  O   UNL     1       3.100  31.526  56.967  1.00  0.00    -0.266 OA
ENDBRANCH   8  25
TORSDOF 4
ENDMDL
MODEL 7
REMARK VINA RESULT:      -9.5      3.987      5.948
REMARK  4 active torsions:
REMARK  status: ('A' for Active; 'I' for Inactive)
REMARK    1  A    between atoms: C_3  and  C_4 
REMARK    2  A    between atoms: C_5  and  C_6 
REMARK       I    between atoms: C_6  and  N_7 
REMARK    3  A    between atoms: N_7  and  C_8 
REMARK    4  A    between atoms: C_15  and  C_16 
REMARK       I    between atoms: C_16  and  N_17 
ROOT
HETATM    1  C   UNL     1       5.395  26.356  52.793  1.00  0.00     0.035 A 
HETATM    2  C   UNL     1       5.488  27.678  52.336  1.00  0.00     0.046 A 
HETATM    3  C   UNL     1       5.236  27.965  50.976  1.00  0.00     0.030 A 
HETATM    4  C   UNL     1       4.879  26.926  50.126  1.00  0.00     0.063 A 
HETATM    5  N   UNL     1       4.699  27.503  48.901  1.00  0.00    -0.277 N 
HETATM    6  H   UNL     1       4.429  27.043  48.038  1.00  0.00     0.189 HD
HETATM    7  N   UNL     1       4.927  28.826  48.870  1.00  0.00    -0.168 NA
HETATM    8  C   UNL     1       5.261  29.127  50.145  1.00  0.00     0.156 A 
HETATM    9  C   UNL     1       4.765  25.600  50.548  1.00  0.00     0.034 A 
HETATM   10  C   UNL     1       5.039  25.338  51.896  1.00  0.00     0.032 A 
ENDROOT
BRANCH   1  11
HETATM   11  N   UNL     1       5.675  25.962  54.119  1.00  0.00    -0.327 N 
HETATM   12  C   UNL     1       6.895  25.975  54.760  1.00  0.00     0.227 C 
HETATM   13  O   UNL     1       7.953  26.399  54.319  1.00  0.00    -0.273 OA
HETATM   14  H   UNL     1       4.888  25.633  54.656  1.00  0.00     0.169 HD
BRANCH  12  15
HETATM   15  C   UNL     1       6.909  25.351  56.113  1.00  0.00     0.087 A 
HETATM   16  C   UNL     1       7.133  23.863  56.335  1.00  0.00     0.034 A 
HETATM   17  C   UNL     1       8.135  24.881  56.840  1.00  0.00     0.025 A 
BRANCH  16  18
HETATM   18  C   UNL     1       7.570  22.881  55.261  1.00  0.00    -0.031 A 
HETATM   19  C   UNL     1       7.370  23.166  53.897  1.00  0.00     0.009 A 
HETATM   20  C   UNL     1       7.744  22.272  52.889  1.00  0.00     0.001 A 
HETATM   21  C   UNL     1       8.313  21.047  53.217  1.00  0.00     0.002 A 
HETATM   22  C   UNL     1       8.496  20.714  54.555  1.00  0.00     0.024 A 
HETATM   23  C   UNL     1       8.122  21.614  55.561  1.00  0.00     0.040 A 
HETATM   24 CL   UNL     1       8.335  21.092  57.199  1.00  0.00    -0.084 Cl
ENDBRANCH  16  18
ENDBRANCH  12  15
ENDBRANCH   1  11
BRANCH   8  25
HETATM   25  C   UNL     1       5.607  30.502  50.535  1.00  0.00     0.270 C 
HETATM   26  N   UNL     1       4.888  30.977  51.598  1.00  0.00    -0.365 N 
HETATM   27  H   UNL     1       4.185  30.378  52.015  1.00  0.00     0.159 HD
HETATM   28  H   UNL     1       5.039  31.919  51.922  1.00  0.00     0.159 HD
HETATM   29  O   UNL     1       6.450  31.197  49.980  1.00  0.00    -0.266 OA
ENDBRANCH   8  25
TORSDOF 4
ENDMDL
MODEL 8
REMARK VINA RESULT:      -9.4      2.018      2.459
REMARK  4 active torsions:
REMARK  status: ('A' for Active; 'I' for Inactive)
REMARK    1  A    between atoms: C_3  and  C_4 
REMARK    2  A    between atoms: C_5  and  C_6 
REMARK       I    between atoms: C_6  and  N_7 
REMARK    3  A    between atoms: N_7  and  C_8 
REMARK    4  A    between atoms: C_15  and  C_16 
REMARK       I    between atoms: C_16  and  N_17 
ROOT
HETATM    1  C   UNL     1       5.247  28.798  55.157  1.00  0.00     0.035 A 
HETATM    2  C   UNL     1       6.097  28.950  56.262  1.00  0.00     0.046 A 
HETATM    3  C   UNL     1       6.133  30.184  56.949  1.00  0.00     0.030 A 
HETATM    4  C   UNL     1       5.307  31.215  56.520  1.00  0.00     0.063 A 
HETATM    5  N   UNL     1       5.558  32.258  57.365  1.00  0.00    -0.277 N 
HETATM    6  H   UNL     1       5.129  33.177  57.351  1.00  0.00     0.189 HD
HETATM    7  N   UNL     1       6.492  32.008  58.297  1.00  0.00    -0.168 NA
HETATM    8  C   UNL     1       6.859  30.729  58.052  1.00  0.00     0.156 A 
HETATM    9  C   UNL     1       4.440  31.096  55.432  1.00  0.00     0.034 A 
HETATM   10  C   UNL     1       4.436  29.869  54.756  1.00  0.00     0.032 A 
ENDROOT
BRANCH   1  11
HETATM   11  N   UNL     1       5.176  27.623  54.378  1.00  0.00    -0.327 N 
HETATM   12  C   UNL     1       6.140  27.112  53.536  1.00  0.00     0.227 C 
HETATM   13  O   UNL     1       7.269  27.546  53.361  1.00  0.00    -0.273 OA
HETATM   14  H   UNL     1       4.317  27.100  54.448  1.00  0.00     0.169 HD
BRANCH  12  15
HETATM   15  C   UNL     1       5.716  25.937  52.723  1.00  0.00     0.087 A 
HETATM   16  C   UNL     1       6.130  24.511  53.053  1.00  0.00     0.034 A 
HETATM   17  C   UNL     1       4.676  24.932  53.124  1.00  0.00     0.025 A 
BRANCH  16  18
HETATM   18  C   UNL     1       6.829  24.083  54.332  1.00  0.00    -0.031 A 
HETATM   19  C   UNL     1       6.585  24.753  55.547  1.00  0.00     0.009 A 
HETATM   20  C   UNL     1       7.230  24.394  56.735  1.00  0.00     0.001 A 
HETATM   21  C   UNL     1       8.160  23.361  56.741  1.00  0.00     0.002 A 
HETATM   22  C   UNL     1       8.453  22.698  55.554  1.00  0.00     0.024 A 
HETATM   23  C   UNL     1       7.804  23.059  54.367  1.00  0.00     0.040 A 
HETATM   24 CL   UNL     1       8.272  22.217  52.928  1.00  0.00    -0.084 Cl
ENDBRANCH  16  18
ENDBRANCH  12  15
ENDBRANCH   1  11
BRANCH   8  25
HETATM   25  C   UNL     1       7.894  30.068  58.860  1.00  0.00     0.270 C 
HETATM   26  N   UNL     1       7.924  30.474  60.167  1.00  0.00    -0.365 N 
HETATM   27  H   UNL     1       7.267  31.185  60.469  1.00  0.00     0.159 HD
HETATM   28  H   UNL     1       8.616  30.093  60.792  1.00  0.00     0.159 HD
HETATM   29  O   UNL     1       8.684  29.231  58.439  1.00  0.00    -0.266 OA
ENDBRANCH   8  25
TORSDOF 4
ENDMDL
MODEL 9
REMARK VINA RESULT:      -9.2      3.312      4.586
REMARK  4 active torsions:
REMARK  status: ('A' for Active; 'I' for Inactive)
REMARK    1  A    between atoms: C_3  and  C_4 
REMARK    2  A    between atoms: C_5  and  C_6 
REMARK       I    between atoms: C_6  and  N_7 
REMARK    3  A    between atoms: N_7  and  C_8 
REMARK    4  A    between atoms: C_15  and  C_16 
REMARK       I    between atoms: C_16  and  N_17 
ROOT
HETATM    1  C   UNL     1       5.845  26.817  54.787  1.00  0.00     0.035 A 
HETATM    2  C   UNL     1       5.390  28.085  55.175  1.00  0.00     0.046 A 
HETATM    3  C   UNL     1       4.550  28.820  54.309  1.00  0.00     0.030 A 
HETATM    4  C   UNL     1       4.178  28.254  53.096  1.00  0.00     0.063 A 
HETATM    5  N   UNL     1       3.378  29.182  52.492  1.00  0.00    -0.277 N 
HETATM    6  H   UNL     1       2.921  29.105  51.589  1.00  0.00     0.189 HD
HETATM    7  N   UNL     1       3.209  30.313  53.194  1.00  0.00    -0.168 NA
HETATM    8  C   UNL     1       3.930  30.106  54.320  1.00  0.00     0.156 A 
HETATM    9  C   UNL     1       4.602  26.990  52.681  1.00  0.00     0.034 A 
HETATM   10  C   UNL     1       5.450  26.290  53.549  1.00  0.00     0.032 A 
ENDROOT
BRANCH   1  11
HETATM   11  N   UNL     1       6.724  26.028  55.559  1.00  0.00    -0.327 N 
HETATM   12  C   UNL     1       6.397  25.147  56.567  1.00  0.00     0.227 C 
HETATM   13  O   UNL     1       5.275  24.830  56.932  1.00  0.00    -0.273 OA
HETATM   14  H   UNL     1       7.705  26.125  55.347  1.00  0.00     0.169 HD
BRANCH  12  15
HETATM   15  C   UNL     1       7.555  24.574  57.311  1.00  0.00     0.087 A 
HETATM   16  C   UNL     1       8.354  23.383  56.808  1.00  0.00     0.034 A 
HETATM   17  C   UNL     1       8.998  24.747  56.940  1.00  0.00     0.025 A 
BRANCH  16  18
HETATM   18  C   UNL     1       8.222  22.770  55.423  1.00  0.00    -0.031 A 
HETATM   19  C   UNL     1       8.267  23.577  54.270  1.00  0.00     0.009 A 
HETATM   20  C   UNL     1       8.127  23.043  52.985  1.00  0.00     0.001 A 
HETATM   21  C   UNL     1       7.914  21.680  52.814  1.00  0.00     0.002 A 
HETATM   22  C   UNL     1       7.830  20.855  53.930  1.00  0.00     0.024 A 
HETATM   23  C   UNL     1       7.973  21.394  55.215  1.00  0.00     0.040 A 
HETATM   24 CL   UNL     1       7.797  20.302  56.548  1.00  0.00    -0.084 Cl
ENDBRANCH  16  18
ENDBRANCH  12  15
ENDBRANCH   1  11
BRANCH   8  25
HETATM   25  C   UNL     1       4.019  31.137  55.365  1.00  0.00     0.270 C 
HETATM   26  N   UNL     1       3.189  30.922  56.431  1.00  0.00    -0.365 N 
HETATM   27  H   UNL     1       2.584  30.109  56.420  1.00  0.00     0.159 HD
HETATM   28  H   UNL     1       3.163  31.589  57.186  1.00  0.00     0.159 HD
HETATM   29  O   UNL     1       4.751  32.119  55.319  1.00  0.00    -0.266 OA
ENDBRANCH   8  25
TORSDOF 4
ENDMDL
MODEL 10
REMARK VINA RESULT:      -9.2      3.227      5.222
REMARK  4 active torsions:
REMARK  status: ('A' for Active; 'I' for Inactive)
REMARK    1  A    between atoms: C_3  and  C_4 
REMARK    2  A    between atoms: C_5  and  C_6 
REMARK       I    between atoms: C_6  and  N_7 
REMARK    3  A    between atoms: N_7  and  C_8 
REMARK    4  A    between atoms: C_15  and  C_16 
REMARK       I    between atoms: C_16  and  N_17 
ROOT
HETATM    1  C   UNL     1       8.362  28.597  57.209  1.00  0.00     0.035 A 
HETATM    2  C   UNL     1       7.679  29.513  58.020  1.00  0.00     0.046 A 
HETATM    3  C   UNL     1       8.370  30.627  58.549  1.00  0.00     0.030 A 
HETATM    4  C   UNL     1       9.712  30.796  58.231  1.00  0.00     0.063 A 
HETATM    5  N   UNL     1      10.096  31.939  58.873  1.00  0.00    -0.277 N 
HETATM    6  H   UNL     1      11.014  32.371  58.863  1.00  0.00     0.189 HD
HETATM    7  N   UNL     1       9.129  32.522  59.599  1.00  0.00    -0.168 NA
HETATM    8  C   UNL     1       8.055  31.722  59.411  1.00  0.00     0.156 A 
HETATM    9  C   UNL     1      10.421  29.911  57.417  1.00  0.00     0.034 A 
HETATM   10  C   UNL     1       9.719  28.805  56.922  1.00  0.00     0.032 A 
ENDROOT
BRANCH   1  11
HETATM   11  N   UNL     1       7.773  27.431  56.675  1.00  0.00    -0.327 N 
HETATM   12  C   UNL     1       7.539  27.139  55.348  1.00  0.00     0.227 C 
HETATM   13  O   UNL     1       7.865  27.808  54.379  1.00  0.00    -0.273 OA
HETATM   14  H   UNL     1       7.491  26.734  57.345  1.00  0.00     0.169 HD
BRANCH  12  15
HETATM   15  C   UNL     1       6.757  25.895  55.099  1.00  0.00     0.087 A 
HETATM   16  C   UNL     1       5.422  25.890  54.370  1.00  0.00     0.034 A 
HETATM   17  C   UNL     1       6.632  25.197  53.776  1.00  0.00     0.025 A 
BRANCH  16  18
HETATM   18  C   UNL     1       4.830  27.080  53.634  1.00  0.00    -0.031 A 
HETATM   19  C   UNL     1       4.862  27.149  52.228  1.00  0.00     0.009 A 
HETATM   20  C   UNL     1       4.343  28.242  51.527  1.00  0.00     0.001 A 
HETATM   21  C   UNL     1       3.792  29.316  52.214  1.00  0.00     0.002 A 
HETATM   22  C   UNL     1       3.771  29.300  53.605  1.00  0.00     0.024 A 
HETATM   23  C   UNL     1       4.290  28.203  54.303  1.00  0.00     0.040 A 
HETATM   24 CL   UNL     1       4.275  28.295  56.033  1.00  0.00    -0.084 Cl
ENDBRANCH  16  18
ENDBRANCH  12  15
ENDBRANCH   1  11
BRANCH   8  25
HETATM   25  C   UNL     1       6.769  32.010  60.062  1.00  0.00     0.270 C 
HETATM   26  N   UNL     1       6.691  31.579  61.358  1.00  0.00    -0.365 N 
HETATM   27  H   UNL     1       7.489  31.096  61.757  1.00  0.00     0.159 HD
HETATM   28  H   UNL     1       5.839  31.711  61.878  1.00  0.00     0.159 HD
HETATM   29  O   UNL     1       5.823  32.576  59.525  1.00  0.00    -0.266 OA
ENDBRANCH   8  25
TORSDOF 4
ENDMDL
