MODEL 1
REMARK VINA RESULT:     -10.2      0.000      0.000
REMARK  2 active torsions:
REMARK  status: ('A' for Active; 'I' for Inactive)
REMARK    1  A    between atoms: C_5  and  N_6 
REMARK    2  A    between atoms: C_8  and  C_9 
REMARK       I    between atoms: C_9  and  N_10 
ROOT
HETATM    1  C   UNL     1       7.922  27.222  56.741  1.00  0.00     0.279 C 
HETATM    2  N   UNL     1       6.919  27.362  55.751  1.00  0.00    -0.301 N 
HETATM    3  C   UNL     1       6.550  26.285  54.869  1.00  0.00     0.067 A 
HETATM    4  C   UNL     1       5.350  26.346  54.147  1.00  0.00     0.079 A 
HETATM    5  C   UNL     1       4.998  25.280  53.323  1.00  0.00     0.148 A 
HETATM    6  N   UNL     1       5.755  24.177  53.148  1.00  0.00    -0.271 NA
HETATM    7  C   UNL     1       6.916  24.142  53.828  1.00  0.00     0.118 A 
HETATM    8  C   UNL     1       7.350  25.152  54.678  1.00  0.00     0.051 A 
HETATM    9  N   UNL     1       4.486  27.437  54.251  1.00  0.00    -0.323 N 
HETATM   10  C   UNL     1       4.773  28.545  54.986  1.00  0.00     0.240 C 
HETATM   11  O   UNL     1       3.979  29.485  55.022  1.00  0.00    -0.271 OA
HETATM   12  C   UNL     1       6.139  28.604  55.648  1.00  0.00     0.235 C 
HETATM   13  O   UNL     1       8.367  26.124  57.084  1.00  0.00    -0.265 OA
HETATM   14  H   UNL     1       3.597  27.444  53.767  1.00  0.00     0.169 HD
ENDROOT
BRANCH   1  15
HETATM   15  C   UNL     1       8.440  28.425  57.440  1.00  0.00     0.147 A 
HETATM   16  N   UNL     1       7.944  28.930  58.577  1.00  0.00    -0.162 NA
HETATM   17  N   UNL     1       8.698  30.031  58.881  1.00  0.00    -0.238 N 
HETATM   18  C   UNL     1       9.669  30.239  57.903  1.00  0.00     0.035 A 
HETATM   19  C   UNL     1       9.497  29.234  56.973  1.00  0.00     0.066 A 
HETATM   20  C   UNL     1      10.693  31.310  57.860  1.00  0.00     0.070 C 
BRANCH  17  21
HETATM   21  C   UNL     1       8.396  30.745  60.089  1.00  0.00     0.058 A 
HETATM   22  C   UNL     1       9.181  30.501  61.232  1.00  0.00     0.032 A 
HETATM   23  C   UNL     1       8.947  31.182  62.433  1.00  0.00     0.009 A 
HETATM   24  C   UNL     1       7.916  32.117  62.526  1.00  0.00    -0.062 A 
HETATM   25  C   UNL     1       7.670  32.876  63.795  1.00  0.00     0.048 C 
HETATM   26  C   UNL     1       7.131  32.363  61.397  1.00  0.00     0.009 A 
HETATM   27  C   UNL     1       7.364  31.684  60.193  1.00  0.00     0.032 A 
ENDBRANCH  17  21
ENDBRANCH   1  15
TORSDOF 2
ENDMDL
MODEL 2
REMARK VINA RESULT:     -10.1      2.149      8.435
REMARK  2 active torsions:
REMARK  status: ('A' for Active; 'I' for Inactive)
REMARK    1  A    between atoms: C_5  and  N_6 
REMARK    2  A    between atoms: C_8  and  C_9 
REMARK       I    between atoms: C_9  and  N_10 
ROOT
HETATM    1  C   UNL     1       6.714  28.755  56.905  1.00  0.00     0.279 C 
HETATM    2  N   UNL     1       7.848  29.565  57.158  1.00  0.00    -0.301 N 
HETATM    3  C   UNL     1       7.840  30.618  58.140  1.00  0.00     0.067 A 
HETATM    4  C   UNL     1       9.048  31.164  58.596  1.00  0.00     0.079 A 
HETATM    5  C   UNL     1       9.019  32.160  59.568  1.00  0.00     0.148 A 
HETATM    6  N   UNL     1       7.887  32.665  60.100  1.00  0.00    -0.271 NA
HETATM    7  C   UNL     1       6.733  32.150  59.635  1.00  0.00     0.118 A 
HETATM    8  C   UNL     1       6.660  31.151  58.673  1.00  0.00     0.051 A 
HETATM    9  N   UNL     1      10.281  30.717  58.120  1.00  0.00    -0.323 N 
HETATM   10  C   UNL     1      10.405  29.790  57.132  1.00  0.00     0.240 C 
HETATM   11  O   UNL     1      11.521  29.452  56.738  1.00  0.00    -0.271 OA
HETATM   12  C   UNL     1       9.124  29.295  56.481  1.00  0.00     0.235 C 
HETATM   13  O   UNL     1       5.740  28.722  57.662  1.00  0.00    -0.265 OA
HETATM   14  H   UNL     1      11.147  31.081  58.496  1.00  0.00     0.169 HD
ENDROOT
BRANCH   1  15
HETATM   15  C   UNL     1       6.692  27.868  55.714  1.00  0.00     0.147 A 
HETATM   16  N   UNL     1       7.120  26.599  55.690  1.00  0.00    -0.162 NA
HETATM   17  N   UNL     1       6.929  26.143  54.414  1.00  0.00    -0.238 N 
HETATM   18  C   UNL     1       6.399  27.153  53.613  1.00  0.00     0.035 A 
HETATM   19  C   UNL     1       6.266  28.258  54.428  1.00  0.00     0.066 A 
HETATM   20  C   UNL     1       6.037  27.071  52.178  1.00  0.00     0.070 C 
BRANCH  17  21
HETATM   21  C   UNL     1       7.275  24.781  54.123  1.00  0.00     0.058 A 
HETATM   22  C   UNL     1       7.144  23.819  55.143  1.00  0.00     0.032 A 
HETATM   23  C   UNL     1       7.446  22.471  54.915  1.00  0.00     0.009 A 
HETATM   24  C   UNL     1       7.897  22.051  53.664  1.00  0.00    -0.062 A 
HETATM   25  C   UNL     1       8.199  20.607  53.393  1.00  0.00     0.048 C 
HETATM   26  C   UNL     1       8.034  22.999  52.647  1.00  0.00     0.009 A 
HETATM   27  C   UNL     1       7.730  24.349  52.873  1.00  0.00     0.032 A 
ENDBRANCH  17  21
ENDBRANCH   1  15
TORSDOF 2
ENDMDL
MODEL 3
REMARK VINA RESULT:      -9.9      2.127      8.203
REMARK  2 active torsions:
REMARK  status: ('A' for Active; 'I' for Inactive)
REMARK    1  A    between atoms: C_5  and  N_6 
REMARK    2  A    between atoms: C_8  and  C_9 
REMARK       I    between atoms: C_9  and  N_10 
ROOT
HETATM    1  C   UNL     1       7.900  29.091  56.079  1.00  0.00     0.279 C 
HETATM    2  N   UNL     1       7.175  29.688  57.139  1.00  0.00    -0.301 N 
HETATM    3  C   UNL     1       7.780  30.611  58.064  1.00  0.00     0.067 A 
HETATM    4  C   UNL     1       6.976  31.427  58.872  1.00  0.00     0.079 A 
HETATM    5  C   UNL     1       7.582  32.334  59.738  1.00  0.00     0.148 A 
HETATM    6  N   UNL     1       8.916  32.474  59.873  1.00  0.00    -0.271 NA
HETATM    7  C   UNL     1       9.677  31.668  59.109  1.00  0.00     0.118 A 
HETATM    8  C   UNL     1       9.167  30.737  58.213  1.00  0.00     0.051 A 
HETATM    9  N   UNL     1       5.583  31.371  58.815  1.00  0.00    -0.323 N 
HETATM   10  C   UNL     1       4.906  30.479  58.042  1.00  0.00     0.240 C 
HETATM   11  O   UNL     1       3.675  30.464  58.051  1.00  0.00    -0.271 OA
HETATM   12  C   UNL     1       5.730  29.456  57.279  1.00  0.00     0.235 C 
HETATM   13  O   UNL     1       9.009  29.497  55.722  1.00  0.00    -0.265 OA
HETATM   14  H   UNL     1       5.014  32.003  59.364  1.00  0.00     0.169 HD
ENDROOT
BRANCH   1  15
HETATM   15  C   UNL     1       7.304  27.960  55.324  1.00  0.00     0.147 A 
HETATM   16  N   UNL     1       7.794  26.714  55.286  1.00  0.00    -0.162 NA
HETATM   17  N   UNL     1       6.959  25.986  54.483  1.00  0.00    -0.238 N 
HETATM   18  C   UNL     1       5.940  26.795  53.983  1.00  0.00     0.035 A 
HETATM   19  C   UNL     1       6.166  28.056  54.496  1.00  0.00     0.066 A 
HETATM   20  C   UNL     1       4.827  26.397  53.089  1.00  0.00     0.070 C 
BRANCH  17  21
HETATM   21  C   UNL     1       7.241  24.590  54.303  1.00  0.00     0.058 A 
HETATM   22  C   UNL     1       7.636  24.140  53.028  1.00  0.00     0.032 A 
HETATM   23  C   UNL     1       7.944  22.794  52.795  1.00  0.00     0.009 A 
HETATM   24  C   UNL     1       7.854  21.861  53.828  1.00  0.00    -0.062 A 
HETATM   25  C   UNL     1       8.207  20.421  53.604  1.00  0.00     0.048 C 
HETATM   26  C   UNL     1       7.460  22.297  55.095  1.00  0.00     0.009 A 
HETATM   27  C   UNL     1       7.153  23.646  55.331  1.00  0.00     0.032 A 
ENDBRANCH  17  21
ENDBRANCH   1  15
TORSDOF 2
ENDMDL
MODEL 4
REMARK VINA RESULT:      -9.1      2.941      8.224
REMARK  2 active torsions:
REMARK  status: ('A' for Active; 'I' for Inactive)
REMARK    1  A    between atoms: C_5  and  N_6 
REMARK    2  A    between atoms: C_8  and  C_9 
REMARK       I    between atoms: C_9  and  N_10 
ROOT
HETATM    1  C   UNL     1       8.690  31.617  60.642  1.00  0.00     0.279 C 
HETATM    2  N   UNL     1       7.433  32.204  60.926  1.00  0.00    -0.301 N 
HETATM    3  C   UNL     1       7.134  32.808  62.198  1.00  0.00     0.067 A 
HETATM    4  C   UNL     1       6.028  33.661  62.329  1.00  0.00     0.079 A 
HETATM    5  C   UNL     1       5.775  34.258  63.562  1.00  0.00     0.148 A 
HETATM    6  N   UNL     1       6.519  34.057  64.667  1.00  0.00    -0.271 NA
HETATM    7  C   UNL     1       7.564  33.217  64.534  1.00  0.00     0.118 A 
HETATM    8  C   UNL     1       7.900  32.579  63.347  1.00  0.00     0.051 A 
HETATM    9  N   UNL     1       5.188  33.945  61.252  1.00  0.00    -0.323 N 
HETATM   10  C   UNL     1       5.325  33.364  60.029  1.00  0.00     0.240 C 
HETATM   11  O   UNL     1       4.539  33.640  59.123  1.00  0.00    -0.271 OA
HETATM   12  C   UNL     1       6.401  32.301  59.883  1.00  0.00     0.235 C 
HETATM   13  O   UNL     1       9.683  31.799  61.351  1.00  0.00    -0.265 OA
HETATM   14  H   UNL     1       4.426  34.603  61.347  1.00  0.00     0.169 HD
ENDROOT
BRANCH   1  15
HETATM   15  C   UNL     1       8.857  30.786  59.423  1.00  0.00     0.147 A 
HETATM   16  N   UNL     1       8.093  29.735  59.095  1.00  0.00    -0.162 NA
HETATM   17  N   UNL     1       8.577  29.250  57.910  1.00  0.00    -0.238 N 
HETATM   18  C   UNL     1       9.682  29.991  57.498  1.00  0.00     0.035 A 
HETATM   19  C   UNL     1       9.879  30.955  58.466  1.00  0.00     0.066 A 
HETATM   20  C   UNL     1      10.490  29.803  56.269  1.00  0.00     0.070 C 
BRANCH  17  21
HETATM   21  C   UNL     1       7.904  28.132  57.312  1.00  0.00     0.058 A 
HETATM   22  C   UNL     1       6.651  28.345  56.704  1.00  0.00     0.032 A 
HETATM   23  C   UNL     1       5.956  27.298  56.086  1.00  0.00     0.009 A 
HETATM   24  C   UNL     1       6.491  26.009  56.069  1.00  0.00    -0.062 A 
HETATM   25  C   UNL     1       5.774  24.882  55.387  1.00  0.00     0.048 C 
HETATM   26  C   UNL     1       7.731  25.789  56.672  1.00  0.00     0.009 A 
HETATM   27  C   UNL     1       8.430  26.837  57.289  1.00  0.00     0.032 A 
ENDBRANCH  17  21
ENDBRANCH   1  15
TORSDOF 2
ENDMDL
MODEL 5
REMARK VINA RESULT:      -8.8      3.009      5.678
REMARK  2 active torsions:
REMARK  status: ('A' for Active; 'I' for Inactive)
REMARK    1  A    between atoms: C_5  and  N_6 
REMARK    2  A    between atoms: C_8  and  C_9 
REMARK       I    between atoms: C_9  and  N_10 
ROOT
HETATM    1  C   UNL     1       5.631  31.450  58.883  1.00  0.00     0.279 C 
HETATM    2  N   UNL     1       6.939  30.945  58.685  1.00  0.00    -0.301 N 
HETATM    3  C   UNL     1       7.203  29.784  57.875  1.00  0.00     0.067 A 
HETATM    4  C   UNL     1       8.506  29.517  57.432  1.00  0.00     0.079 A 
HETATM    5  C   UNL     1       8.734  28.406  56.624  1.00  0.00     0.148 A 
HETATM    6  N   UNL     1       7.775  27.537  56.245  1.00  0.00    -0.271 NA
HETATM    7  C   UNL     1       6.533  27.791  56.698  1.00  0.00     0.118 A 
HETATM    8  C   UNL     1       6.206  28.876  57.502  1.00  0.00     0.051 A 
HETATM    9  N   UNL     1       9.578  30.349  57.759  1.00  0.00    -0.323 N 
HETATM   10  C   UNL     1       9.460  31.422  58.587  1.00  0.00     0.240 C 
HETATM   11  O   UNL     1      10.447  32.107  58.855  1.00  0.00    -0.271 OA
HETATM   12  C   UNL     1       8.104  31.654  59.233  1.00  0.00     0.235 C 
HETATM   13  O   UNL     1       4.672  31.099  58.191  1.00  0.00    -0.265 OA
HETATM   14  H   UNL     1      10.503  30.175  57.388  1.00  0.00     0.169 HD
ENDROOT
BRANCH   1  15
HETATM   15  C   UNL     1       5.388  32.479  59.925  1.00  0.00     0.147 A 
HETATM   16  N   UNL     1       5.712  32.358  61.220  1.00  0.00    -0.162 NA
HETATM   17  N   UNL     1       5.319  33.515  61.835  1.00  0.00    -0.238 N 
HETATM   18  C   UNL     1       4.711  34.369  60.917  1.00  0.00     0.035 A 
HETATM   19  C   UNL     1       4.732  33.708  59.706  1.00  0.00     0.066 A 
HETATM   20  C   UNL     1       4.157  35.721  61.171  1.00  0.00     0.070 C 
BRANCH  17  21
HETATM   21  C   UNL     1       5.589  33.661  63.237  1.00  0.00     0.058 A 
HETATM   22  C   UNL     1       6.929  33.676  63.669  1.00  0.00     0.032 A 
HETATM   23  C   UNL     1       7.255  33.835  65.021  1.00  0.00     0.009 A 
HETATM   24  C   UNL     1       6.250  33.974  65.978  1.00  0.00    -0.062 A 
HETATM   25  C   UNL     1       6.581  34.174  67.427  1.00  0.00     0.048 C 
HETATM   26  C   UNL     1       4.918  33.957  65.559  1.00  0.00     0.009 A 
HETATM   27  C   UNL     1       4.589  33.799  64.205  1.00  0.00     0.032 A 
ENDBRANCH  17  21
ENDBRANCH   1  15
TORSDOF 2
ENDMDL
MODEL 6
REMARK VINA RESULT:      -8.7      5.835      9.396
REMARK  2 active torsions:
REMARK  status: ('A' for Active; 'I' for Inactive)
REMARK    1  A    between atoms: C_5  and  N_6 
REMARK    2  A    between atoms: C_8  and  C_9 
REMARK       I    between atoms: C_9  and  N_10 
ROOT
HETATM    1  C   UNL     1       6.979  25.366  52.353  1.00  0.00     0.279 C 
HETATM    2  N   UNL     1       6.661  24.840  53.629  1.00  0.00    -0.301 N 
HETATM    3  C   UNL     1       7.323  23.682  54.172  1.00  0.00     0.067 A 
HETATM    4  C   UNL     1       7.230  23.397  55.542  1.00  0.00     0.079 A 
HETATM    5  C   UNL     1       7.902  22.288  56.051  1.00  0.00     0.148 A 
HETATM    6  N   UNL     1       8.635  21.439  55.303  1.00  0.00    -0.271 NA
HETATM    7  C   UNL     1       8.696  21.710  53.986  1.00  0.00     0.118 A 
HETATM    8  C   UNL     1       8.066  22.794  53.386  1.00  0.00     0.051 A 
HETATM    9  N   UNL     1       6.501  24.208  56.413  1.00  0.00    -0.323 N 
HETATM   10  C   UNL     1       5.768  25.276  55.996  1.00  0.00     0.240 C 
HETATM   11  O   UNL     1       5.129  25.941  56.810  1.00  0.00    -0.271 OA
HETATM   12  C   UNL     1       5.694  25.524  54.499  1.00  0.00     0.235 C 
HETATM   13  O   UNL     1       7.992  25.036  51.732  1.00  0.00    -0.265 OA
HETATM   14  H   UNL     1       6.487  24.021  57.407  1.00  0.00     0.169 HD
ENDROOT
BRANCH   1  15
HETATM   15  C   UNL     1       6.097  26.390  51.737  1.00  0.00     0.147 A 
HETATM   16  N   UNL     1       5.222  26.161  50.748  1.00  0.00    -0.162 NA
HETATM   17  N   UNL     1       4.618  27.357  50.472  1.00  0.00    -0.238 N 
HETATM   18  C   UNL     1       5.140  28.363  51.282  1.00  0.00     0.035 A 
HETATM   19  C   UNL     1       6.096  27.759  52.074  1.00  0.00     0.066 A 
HETATM   20  C   UNL     1       4.754  29.794  51.309  1.00  0.00     0.070 C 
BRANCH  17  21
HETATM   21  C   UNL     1       3.597  27.382  49.462  1.00  0.00     0.058 A 
HETATM   22  C   UNL     1       3.672  26.456  48.404  1.00  0.00     0.032 A 
HETATM   23  C   UNL     1       2.696  26.418  47.401  1.00  0.00     0.009 A 
HETATM   24  C   UNL     1       1.625  27.312  47.424  1.00  0.00    -0.062 A 
HETATM   25  C   UNL     1       0.556  27.268  46.374  1.00  0.00     0.048 C 
HETATM   26  C   UNL     1       1.545  28.236  48.468  1.00  0.00     0.009 A 
HETATM   27  C   UNL     1       2.521  28.274  49.475  1.00  0.00     0.032 A 
ENDBRANCH  17  21
ENDBRANCH   1  15
TORSDOF 2
ENDMDL
MODEL 7
REMARK VINA RESULT:      -8.7      2.372      7.795
REMARK  2 active torsions:
REMARK  status: ('A' for Active; 'I' for Inactive)
REMARK    1  A    between atoms: C_5  and  N_6 
REMARK    2  A    between atoms: C_8  and  C_9 
REMARK       I    between atoms: C_9  and  N_10 
ROOT
HETATM    1  C   UNL     1       8.550  29.634  58.133  1.00  0.00     0.279 C 
HETATM    2  N   UNL     1       7.485  30.366  58.712  1.00  0.00    -0.301 N 
HETATM    3  C   UNL     1       7.652  31.159  59.903  1.00  0.00     0.067 A 
HETATM    4  C   UNL     1       6.690  32.119  60.249  1.00  0.00     0.079 A 
HETATM    5  C   UNL     1       6.886  32.896  61.388  1.00  0.00     0.148 A 
HETATM    6  N   UNL     1       7.946  32.775  62.213  1.00  0.00    -0.271 NA
HETATM    7  C   UNL     1       8.850  31.833  61.882  1.00  0.00     0.118 A 
HETATM    8  C   UNL     1       8.745  31.015  60.764  1.00  0.00     0.051 A 
HETATM    9  N   UNL     1       5.554  32.334  59.469  1.00  0.00    -0.323 N 
HETATM   10  C   UNL     1       5.252  31.586  58.373  1.00  0.00     0.240 C 
HETATM   11  O   UNL     1       4.222  31.810  57.737  1.00  0.00    -0.271 OA
HETATM   12  C   UNL     1       6.171  30.419  58.055  1.00  0.00     0.235 C 
HETATM   13  O   UNL     1       9.729  29.816  58.448  1.00  0.00    -0.265 OA
HETATM   14  H   UNL     1       4.895  33.066  59.700  1.00  0.00     0.169 HD
ENDROOT
BRANCH   1  15
HETATM   15  C   UNL     1       8.267  28.637  57.071  1.00  0.00     0.147 A 
HETATM   16  N   UNL     1       8.301  27.307  57.232  1.00  0.00    -0.162 NA
HETATM   17  N   UNL     1       7.985  26.755  56.020  1.00  0.00    -0.238 N 
HETATM   18  C   UNL     1       7.775  27.754  55.072  1.00  0.00     0.035 A 
HETATM   19  C   UNL     1       7.975  28.952  55.727  1.00  0.00     0.066 A 
HETATM   20  C   UNL     1       7.405  27.584  53.647  1.00  0.00     0.070 C 
BRANCH  17  21
HETATM   21  C   UNL     1       7.913  25.324  55.927  1.00  0.00     0.058 A 
HETATM   22  C   UNL     1       8.576  24.550  56.898  1.00  0.00     0.032 A 
HETATM   23  C   UNL     1       8.526  23.151  56.872  1.00  0.00     0.009 A 
HETATM   24  C   UNL     1       7.819  22.489  55.868  1.00  0.00    -0.062 A 
HETATM   25  C   UNL     1       7.731  20.993  55.840  1.00  0.00     0.048 C 
HETATM   26  C   UNL     1       7.161  23.249  54.898  1.00  0.00     0.009 A 
HETATM   27  C   UNL     1       7.209  24.651  54.924  1.00  0.00     0.032 A 
ENDBRANCH  17  21
ENDBRANCH   1  15
TORSDOF 2
ENDMDL
MODEL 8
REMARK VINA RESULT:      -8.4      5.622      8.790
REMARK  2 active torsions:
REMARK  status: ('A' for Active; 'I' for Inactive)
REMARK    1  A    between atoms: C_5  and  N_6 
REMARK    2  A    between atoms: C_8  and  C_9 
REMARK       I    between atoms: C_9  and  N_10 
ROOT
HETATM    1  C   UNL     1       6.974  24.136  53.145  1.00  0.00     0.279 C 
HETATM    2  N   UNL     1       7.111  23.820  54.519  1.00  0.00    -0.301 N 
HETATM    3  C   UNL     1       7.672  22.573  54.971  1.00  0.00     0.067 A 
HETATM    4  C   UNL     1       8.098  22.434  56.299  1.00  0.00     0.079 A 
HETATM    5  C   UNL     1       8.665  21.229  56.707  1.00  0.00     0.148 A 
HETATM    6  N   UNL     1       8.820  20.156  55.906  1.00  0.00    -0.271 NA
HETATM    7  C   UNL     1       8.384  20.295  54.639  1.00  0.00     0.118 A 
HETATM    8  C   UNL     1       7.811  21.456  54.138  1.00  0.00     0.051 A 
HETATM    9  N   UNL     1       7.991  23.479  57.218  1.00  0.00    -0.323 N 
HETATM   10  C   UNL     1       7.400  24.668  56.924  1.00  0.00     0.240 C 
HETATM   11  O   UNL     1       7.316  25.545  57.784  1.00  0.00    -0.271 OA
HETATM   12  C   UNL     1       6.765  24.808  55.551  1.00  0.00     0.235 C 
HETATM   13  O   UNL     1       7.541  23.495  52.257  1.00  0.00    -0.265 OA
HETATM   14  H   UNL     1       8.351  23.383  58.158  1.00  0.00     0.169 HD
ENDROOT
BRANCH   1  15
HETATM   15  C   UNL     1       6.159  25.308  52.736  1.00  0.00     0.147 A 
HETATM   16  N   UNL     1       6.184  25.881  51.526  1.00  0.00    -0.162 NA
HETATM   17  N   UNL     1       5.296  26.921  51.563  1.00  0.00    -0.238 N 
HETATM   18  C   UNL     1       4.722  27.024  52.829  1.00  0.00     0.035 A 
HETATM   19  C   UNL     1       5.282  26.015  53.586  1.00  0.00     0.066 A 
HETATM   20  C   UNL     1       3.709  28.004  53.285  1.00  0.00     0.070 C 
BRANCH  17  21
HETATM   21  C   UNL     1       5.100  27.688  50.365  1.00  0.00     0.058 A 
HETATM   22  C   UNL     1       5.476  29.045  50.364  1.00  0.00     0.032 A 
HETATM   23  C   UNL     1       5.329  29.839  49.220  1.00  0.00     0.009 A 
HETATM   24  C   UNL     1       4.793  29.299  48.050  1.00  0.00    -0.062 A 
HETATM   25  C   UNL     1       4.654  30.126  46.807  1.00  0.00     0.048 C 
HETATM   26  C   UNL     1       4.414  27.954  48.044  1.00  0.00     0.009 A 
HETATM   27  C   UNL     1       4.563  27.157  49.189  1.00  0.00     0.032 A 
ENDBRANCH  17  21
ENDBRANCH   1  15
TORSDOF 2
ENDMDL
MODEL 9
REMARK VINA RESULT:      -8.4      2.224      4.209
REMARK  2 active torsions:
REMARK  status: ('A' for Active; 'I' for Inactive)
REMARK    1  A    between atoms: C_5  and  N_6 
REMARK    2  A    between atoms: C_8  and  C_9 
REMARK       I    between atoms: C_9  and  N_10 
ROOT
HETATM    1  C   UNL     1       6.365  31.283  57.906  1.00  0.00     0.279 C 
HETATM    2  N   UNL     1       6.427  29.956  57.416  1.00  0.00    -0.301 N 
HETATM    3  C   UNL     1       5.632  29.507  56.302  1.00  0.00     0.067 A 
HETATM    4  C   UNL     1       5.957  28.314  55.641  1.00  0.00     0.079 A 
HETATM    5  C   UNL     1       5.193  27.915  54.547  1.00  0.00     0.148 A 
HETATM    6  N   UNL     1       4.128  28.595  54.079  1.00  0.00    -0.271 NA
HETATM    7  C   UNL     1       3.811  29.726  54.738  1.00  0.00     0.118 A 
HETATM    8  C   UNL     1       4.515  30.209  55.834  1.00  0.00     0.051 A 
HETATM    9  N   UNL     1       7.041  27.529  56.035  1.00  0.00    -0.323 N 
HETATM   10  C   UNL     1       7.806  27.811  57.124  1.00  0.00     0.240 C 
HETATM   11  O   UNL     1       8.737  27.067  57.433  1.00  0.00    -0.271 OA
HETATM   12  C   UNL     1       7.389  28.997  57.977  1.00  0.00     0.235 C 
HETATM   13  O   UNL     1       5.831  32.199  57.275  1.00  0.00    -0.265 OA
HETATM   14  H   UNL     1       7.297  26.699  55.516  1.00  0.00     0.169 HD
ENDROOT
BRANCH   1  15
HETATM   15  C   UNL     1       7.001  31.620  59.205  1.00  0.00     0.147 A 
HETATM   16  N   UNL     1       6.359  32.108  60.274  1.00  0.00    -0.162 NA
HETATM   17  N   UNL     1       7.299  32.281  61.253  1.00  0.00    -0.238 N 
HETATM   18  C   UNL     1       8.560  31.922  60.783  1.00  0.00     0.035 A 
HETATM   19  C   UNL     1       8.382  31.521  59.474  1.00  0.00     0.066 A 
HETATM   20  C   UNL     1       9.843  31.950  61.525  1.00  0.00     0.070 C 
BRANCH  17  21
HETATM   21  C   UNL     1       6.863  32.765  62.532  1.00  0.00     0.058 A 
HETATM   22  C   UNL     1       5.492  33.020  62.726  1.00  0.00     0.032 A 
HETATM   23  C   UNL     1       5.003  33.474  63.957  1.00  0.00     0.009 A 
HETATM   24  C   UNL     1       5.874  33.694  65.024  1.00  0.00    -0.062 A 
HETATM   25  C   UNL     1       5.365  34.152  66.358  1.00  0.00     0.048 C 
HETATM   26  C   UNL     1       7.236  33.446  64.840  1.00  0.00     0.009 A 
HETATM   27  C   UNL     1       7.727  32.990  63.608  1.00  0.00     0.032 A 
ENDBRANCH  17  21
ENDBRANCH   1  15
TORSDOF 2
ENDMDL
MODEL 10
REMARK VINA RESULT:      -8.3      3.886      5.946
REMARK  2 active torsions:
REMARK  status: ('A' for Active; 'I' for Inactive)
REMARK    1  A    between atoms: C_5  and  N_6 
REMARK    2  A    between atoms: C_8  and  C_9 
REMARK       I    between atoms: C_9  and  N_10 
ROOT
HETATM    1  C   UNL     1       7.436  24.678  53.064  1.00  0.00     0.279 C 
HETATM    2  N   UNL     1       7.683  23.907  54.226  1.00  0.00    -0.301 N 
HETATM    3  C   UNL     1       8.053  22.517  54.164  1.00  0.00     0.067 A 
HETATM    4  C   UNL     1       8.610  21.886  55.286  1.00  0.00     0.079 A 
HETATM    5  C   UNL     1       8.988  20.549  55.195  1.00  0.00     0.148 A 
HETATM    6  N   UNL     1       8.836  19.794  54.089  1.00  0.00    -0.271 NA
HETATM    7  C   UNL     1       8.278  20.404  53.027  1.00  0.00     0.118 A 
HETATM    8  C   UNL     1       7.874  21.733  53.018  1.00  0.00     0.051 A 
HETATM    9  N   UNL     1       8.817  22.570  56.484  1.00  0.00    -0.323 N 
HETATM   10  C   UNL     1       8.427  23.859  56.682  1.00  0.00     0.240 C 
HETATM   11  O   UNL     1       8.619  24.402  57.770  1.00  0.00    -0.271 OA
HETATM   12  C   UNL     1       7.662  24.533  55.555  1.00  0.00     0.235 C 
HETATM   13  O   UNL     1       7.756  24.299  51.935  1.00  0.00    -0.265 OA
HETATM   14  H   UNL     1       9.269  22.119  57.269  1.00  0.00     0.169 HD
ENDROOT
BRANCH   1  15
HETATM   15  C   UNL     1       6.810  26.019  53.189  1.00  0.00     0.147 A 
HETATM   16  N   UNL     1       6.511  26.626  54.345  1.00  0.00    -0.162 NA
HETATM   17  N   UNL     1       5.951  27.833  54.023  1.00  0.00    -0.238 N 
HETATM   18  C   UNL     1       5.869  27.976  52.639  1.00  0.00     0.035 A 
HETATM   19  C   UNL     1       6.393  26.817  52.103  1.00  0.00     0.066 A 
HETATM   20  C   UNL     1       5.339  29.133  51.880  1.00  0.00     0.070 C 
BRANCH  17  21
HETATM   21  C   UNL     1       5.570  28.709  55.094  1.00  0.00     0.058 A 
HETATM   22  C   UNL     1       4.201  28.854  55.393  1.00  0.00     0.032 A 
HETATM   23  C   UNL     1       3.769  29.678  56.439  1.00  0.00     0.009 A 
HETATM   24  C   UNL     1       4.693  30.387  57.207  1.00  0.00    -0.062 A 
HETATM   25  C   UNL     1       4.251  31.253  58.349  1.00  0.00     0.048 C 
HETATM   26  C   UNL     1       6.052  30.253  56.914  1.00  0.00     0.009 A 
HETATM   27  C   UNL     1       6.487  29.426  55.868  1.00  0.00     0.032 A 
ENDBRANCH  17  21
ENDBRANCH   1  15
TORSDOF 2
ENDMDL
