MODEL 1
REMARK VINA RESULT:     -11.6      0.000      0.000
REMARK  4 active torsions:
REMARK  status: ('A' for Active; 'I' for Inactive)
REMARK    1  A    between atoms: C_2  and  C_3 
REMARK    2  A    between atoms: C_2  and  C_19 
REMARK       I    between atoms: C_3  and  N_4 
REMARK    3  A    between atoms: N_4  and  C_5 
REMARK    4  A    between atoms: C_12  and  C_13 
REMARK       I    between atoms: C_13  and  N_14 
ROOT
HETATM    1  C   UNL     1       6.850  27.048  55.611  1.00  0.00     0.230 C 
HETATM    2  N   UNL     1       7.531  27.244  56.799  1.00  0.00    -0.327 N 
HETATM    3  O   UNL     1       6.868  27.814  54.649  1.00  0.00    -0.272 OA
HETATM    4  H   UNL     1       7.634  26.437  57.400  1.00  0.00     0.169 HD
ENDROOT
BRANCH   2   5
HETATM    5  C   UNL     1       8.209  28.408  57.219  1.00  0.00     0.035 A 
HETATM    6  C   UNL     1       7.666  29.338  58.115  1.00  0.00     0.046 A 
HETATM    7  C   UNL     1       8.445  30.441  58.530  1.00  0.00     0.030 A 
HETATM    8  C   UNL     1       9.730  30.584  58.020  1.00  0.00     0.063 A 
HETATM    9  C   UNL     1       8.276  31.545  59.420  1.00  0.00     0.156 A 
HETATM   10  N   UNL     1      10.221  31.724  58.590  1.00  0.00    -0.277 N 
HETATM   11  C   UNL     1      10.299  29.680  57.121  1.00  0.00     0.034 A 
HETATM   12  H   UNL     1      11.135  32.140  58.443  1.00  0.00     0.189 HD
HETATM   13  N   UNL     1       9.380  32.329  59.444  1.00  0.00    -0.168 NA
HETATM   14  C   UNL     1       9.514  28.585  56.740  1.00  0.00     0.032 A 
BRANCH   9  15
HETATM   15  C   UNL     1       7.105  31.856  60.251  1.00  0.00     0.270 C 
HETATM   16  N   UNL     1       7.099  31.223  61.465  1.00  0.00    -0.365 N 
HETATM   17  H   UNL     1       7.865  30.599  61.690  1.00  0.00     0.159 HD
HETATM   18  H   UNL     1       6.327  31.361  62.096  1.00  0.00     0.159 HD
HETATM   19  O   UNL     1       6.190  32.602  59.921  1.00  0.00    -0.266 OA
ENDBRANCH   9  15
ENDBRANCH   2   5
BRANCH   1  20
HETATM   20  C   UNL     1       5.932  25.815  55.582  1.00  0.00     0.107 C 
HETATM   21  C   UNL     1       5.392  25.587  56.997  1.00  0.00     0.025 C 
BRANCH  20  22
HETATM   22  C   UNL     1       6.551  24.576  54.946  1.00  0.00    -0.044 A 
HETATM   23  C   UNL     1       6.996  23.477  55.703  1.00  0.00     0.020 A 
HETATM   24  C   UNL     1       7.596  22.361  55.096  1.00  0.00    -0.025 A 
HETATM   25  C   UNL     1       7.743  22.331  53.692  1.00  0.00    -0.026 A 
HETATM   26  C   UNL     1       8.053  21.272  55.857  1.00  0.00     0.012 A 
HETATM   27  C   UNL     1       7.297  23.424  52.936  1.00  0.00     0.013 A 
HETATM   28  C   UNL     1       8.334  21.210  53.086  1.00  0.00     0.012 A 
HETATM   29  C   UNL     1       6.719  24.536  53.555  1.00  0.00     0.009 A 
HETATM   30  C   UNL     1       8.782  20.136  53.856  1.00  0.00     0.001 A 
HETATM   31  C   UNL     1       8.644  20.168  55.240  1.00  0.00     0.001 A 
ENDBRANCH  20  22
ENDBRANCH   1  20
TORSDOF 4
ENDMDL
MODEL 2
REMARK VINA RESULT:     -10.4      5.358      8.508
REMARK  4 active torsions:
REMARK  status: ('A' for Active; 'I' for Inactive)
REMARK    1  A    between atoms: C_2  and  C_3 
REMARK    2  A    between atoms: C_2  and  C_19 
REMARK       I    between atoms: C_3  and  N_4 
REMARK    3  A    between atoms: N_4  and  C_5 
REMARK    4  A    between atoms: C_12  and  C_13 
REMARK       I    between atoms: C_13  and  N_14 
ROOT
HETATM    1  C   UNL     1       5.605  26.295  53.127  1.00  0.00     0.230 C 
HETATM    2  N   UNL     1       6.110  26.893  51.986  1.00  0.00    -0.327 N 
HETATM    3  O   UNL     1       4.448  25.907  53.271  1.00  0.00    -0.272 OA
HETATM    4  H   UNL     1       7.117  26.936  51.905  1.00  0.00     0.169 HD
ENDROOT
BRANCH   2   5
HETATM    5  C   UNL     1       5.388  27.343  50.861  1.00  0.00     0.035 A 
HETATM    6  C   UNL     1       4.749  26.484  49.957  1.00  0.00     0.046 A 
HETATM    7  C   UNL     1       3.993  27.028  48.896  1.00  0.00     0.030 A 
HETATM    8  C   UNL     1       3.917  28.409  48.765  1.00  0.00     0.063 A 
HETATM    9  C   UNL     1       3.196  26.513  47.828  1.00  0.00     0.156 A 
HETATM   10  N   UNL     1       3.137  28.628  47.665  1.00  0.00    -0.277 N 
HETATM   11  C   UNL     1       4.545  29.294  49.643  1.00  0.00     0.034 A 
HETATM   12  H   UNL     1       2.870  29.522  47.269  1.00  0.00     0.189 HD
HETATM   13  N   UNL     1       2.677  27.512  47.076  1.00  0.00    -0.168 NA
HETATM   14  C   UNL     1       5.273  28.731  50.698  1.00  0.00     0.032 A 
BRANCH   9  15
HETATM   15  C   UNL     1       2.909  25.104  47.522  1.00  0.00     0.270 C 
HETATM   16  N   UNL     1       2.612  24.869  46.207  1.00  0.00    -0.365 N 
HETATM   17  H   UNL     1       2.598  25.653  45.565  1.00  0.00     0.159 HD
HETATM   18  H   UNL     1       2.383  23.935  45.906  1.00  0.00     0.159 HD
HETATM   19  O   UNL     1       2.914  24.194  48.343  1.00  0.00    -0.266 OA
ENDBRANCH   9  15
ENDBRANCH   2   5
BRANCH   1  20
HETATM   20  C   UNL     1       6.581  26.229  54.314  1.00  0.00     0.107 C 
HETATM   21  C   UNL     1       7.664  27.291  54.103  1.00  0.00     0.025 C 
BRANCH  20  22
HETATM   22  C   UNL     1       7.125  24.837  54.612  1.00  0.00    -0.044 A 
HETATM   23  C   UNL     1       7.327  23.871  53.610  1.00  0.00     0.020 A 
HETATM   24  C   UNL     1       7.798  22.583  53.915  1.00  0.00    -0.025 A 
HETATM   25  C   UNL     1       8.090  22.251  55.256  1.00  0.00    -0.026 A 
HETATM   26  C   UNL     1       7.984  21.615  52.914  1.00  0.00     0.012 A 
HETATM   27  C   UNL     1       7.892  23.214  56.256  1.00  0.00     0.013 A 
HETATM   28  C   UNL     1       8.570  20.966  55.558  1.00  0.00     0.012 A 
HETATM   29  C   UNL     1       7.407  24.486  55.940  1.00  0.00     0.009 A 
HETATM   30  C   UNL     1       8.750  20.017  54.552  1.00  0.00     0.001 A 
HETATM   31  C   UNL     1       8.455  20.340  53.230  1.00  0.00     0.001 A 
ENDBRANCH  20  22
ENDBRANCH   1  20
TORSDOF 4
ENDMDL
MODEL 3
REMARK VINA RESULT:     -10.3      2.002      2.828
REMARK  4 active torsions:
REMARK  status: ('A' for Active; 'I' for Inactive)
REMARK    1  A    between atoms: C_2  and  C_3 
REMARK    2  A    between atoms: C_2  and  C_19 
REMARK       I    between atoms: C_3  and  N_4 
REMARK    3  A    between atoms: N_4  and  C_5 
REMARK    4  A    between atoms: C_12  and  C_13 
REMARK       I    between atoms: C_13  and  N_14 
ROOT
HETATM    1  C   UNL     1       6.778  27.262  54.339  1.00  0.00     0.230 C 
HETATM    2  N   UNL     1       5.829  27.638  55.273  1.00  0.00    -0.327 N 
HETATM    3  O   UNL     1       7.822  27.869  54.105  1.00  0.00    -0.272 OA
HETATM    4  H   UNL     1       5.153  26.934  55.539  1.00  0.00     0.169 HD
ENDROOT
BRANCH   2   5
HETATM    5  C   UNL     1       5.764  28.849  55.992  1.00  0.00     0.035 A 
HETATM    6  C   UNL     1       6.628  29.169  57.048  1.00  0.00     0.046 A 
HETATM    7  C   UNL     1       6.531  30.435  57.667  1.00  0.00     0.030 A 
HETATM    8  C   UNL     1       5.564  31.327  57.221  1.00  0.00     0.063 A 
HETATM    9  C   UNL     1       7.220  31.129  58.708  1.00  0.00     0.156 A 
HETATM   10  N   UNL     1       5.709  32.440  58.001  1.00  0.00    -0.277 N 
HETATM   11  C   UNL     1       4.683  31.039  56.177  1.00  0.00     0.034 A 
HETATM   12  H   UNL     1       5.165  33.295  57.958  1.00  0.00     0.189 HD
HETATM   13  N   UNL     1       6.700  32.363  58.904  1.00  0.00    -0.168 NA
HETATM   14  C   UNL     1       4.812  29.785  55.567  1.00  0.00     0.032 A 
BRANCH   9  15
HETATM   15  C   UNL     1       8.363  30.652  59.500  1.00  0.00     0.270 C 
HETATM   16  N   UNL     1       8.098  30.515  60.835  1.00  0.00    -0.365 N 
HETATM   17  H   UNL     1       7.173  30.755  61.173  1.00  0.00     0.159 HD
HETATM   18  H   UNL     1       8.826  30.211  61.460  1.00  0.00     0.159 HD
HETATM   19  O   UNL     1       9.473  30.398  59.045  1.00  0.00    -0.266 OA
ENDBRANCH   9  15
ENDBRANCH   2   5
BRANCH   1  20
HETATM   20  C   UNL     1       6.400  26.044  53.479  1.00  0.00     0.107 C 
HETATM   21  C   UNL     1       4.887  26.074  53.245  1.00  0.00     0.025 C 
BRANCH  20  22
HETATM   22  C   UNL     1       6.921  24.711  54.003  1.00  0.00    -0.044 A 
HETATM   23  C   UNL     1       7.335  23.671  53.151  1.00  0.00     0.020 A 
HETATM   24  C   UNL     1       7.779  22.438  53.658  1.00  0.00    -0.025 A 
HETATM   25  C   UNL     1       7.828  22.240  55.055  1.00  0.00    -0.026 A 
HETATM   26  C   UNL     1       8.176  21.396  52.804  1.00  0.00     0.012 A 
HETATM   27  C   UNL     1       7.419  23.277  55.906  1.00  0.00     0.013 A 
HETATM   28  C   UNL     1       8.281  21.011  55.560  1.00  0.00     0.012 A 
HETATM   29  C   UNL     1       6.963  24.492  55.387  1.00  0.00     0.009 A 
HETATM   30  C   UNL     1       8.673  19.986  54.698  1.00  0.00     0.001 A 
HETATM   31  C   UNL     1       8.619  20.177  53.321  1.00  0.00     0.001 A 
ENDBRANCH  20  22
ENDBRANCH   1  20
TORSDOF 4
ENDMDL
MODEL 4
REMARK VINA RESULT:     -10.2      1.764      2.830
REMARK  4 active torsions:
REMARK  status: ('A' for Active; 'I' for Inactive)
REMARK    1  A    between atoms: C_2  and  C_3 
REMARK    2  A    between atoms: C_2  and  C_19 
REMARK       I    between atoms: C_3  and  N_4 
REMARK    3  A    between atoms: N_4  and  C_5 
REMARK    4  A    between atoms: C_12  and  C_13 
REMARK       I    between atoms: C_13  and  N_14 
ROOT
HETATM    1  C   UNL     1       6.515  26.589  54.000  1.00  0.00     0.230 C 
HETATM    2  N   UNL     1       7.319  27.601  54.491  1.00  0.00    -0.327 N 
HETATM    3  O   UNL     1       5.379  26.332  54.395  1.00  0.00    -0.272 OA
HETATM    4  H   UNL     1       8.115  27.862  53.923  1.00  0.00     0.169 HD
ENDROOT
BRANCH   2   5
HETATM    5  C   UNL     1       7.095  28.400  55.630  1.00  0.00     0.035 A 
HETATM    6  C   UNL     1       8.109  29.104  56.294  1.00  0.00     0.046 A 
HETATM    7  C   UNL     1       7.780  29.933  57.389  1.00  0.00     0.030 A 
HETATM    8  C   UNL     1       6.453  30.014  57.793  1.00  0.00     0.063 A 
HETATM    9  C   UNL     1       8.488  30.804  58.272  1.00  0.00     0.156 A 
HETATM   10  N   UNL     1       6.449  30.870  58.858  1.00  0.00    -0.277 N 
HETATM   11  C   UNL     1       5.419  29.322  57.160  1.00  0.00     0.034 A 
HETATM   12  H   UNL     1       5.649  31.161  59.409  1.00  0.00     0.189 HD
HETATM   13  N   UNL     1       7.654  31.373  59.174  1.00  0.00    -0.168 NA
HETATM   14  C   UNL     1       5.768  28.523  56.065  1.00  0.00     0.032 A 
BRANCH   9  15
HETATM   15  C   UNL     1       9.924  31.116  58.263  1.00  0.00     0.270 C 
HETATM   16  N   UNL     1      10.712  30.100  57.795  1.00  0.00    -0.365 N 
HETATM   17  H   UNL     1      10.269  29.234  57.511  1.00  0.00     0.159 HD
HETATM   18  H   UNL     1      11.712  30.215  57.769  1.00  0.00     0.159 HD
HETATM   19  O   UNL     1      10.413  32.174  58.642  1.00  0.00    -0.266 OA
ENDBRANCH   9  15
ENDBRANCH   2   5
BRANCH   1  20
HETATM   20  C   UNL     1       7.179  25.676  52.955  1.00  0.00     0.107 C 
HETATM   21  C   UNL     1       6.340  25.725  51.675  1.00  0.00     0.025 C 
BRANCH  20  22
HETATM   22  C   UNL     1       7.483  24.266  53.446  1.00  0.00    -0.044 A 
HETATM   23  C   UNL     1       7.672  23.960  54.806  1.00  0.00     0.020 A 
HETATM   24  C   UNL     1       7.985  22.657  55.230  1.00  0.00    -0.025 A 
HETATM   25  C   UNL     1       8.098  21.626  54.273  1.00  0.00    -0.026 A 
HETATM   26  C   UNL     1       8.188  22.359  56.587  1.00  0.00     0.012 A 
HETATM   27  C   UNL     1       7.907  21.928  52.917  1.00  0.00     0.013 A 
HETATM   28  C   UNL     1       8.402  20.322  54.699  1.00  0.00     0.012 A 
HETATM   29  C   UNL     1       7.613  23.232  52.508  1.00  0.00     0.009 A 
HETATM   30  C   UNL     1       8.600  20.042  56.052  1.00  0.00     0.001 A 
HETATM   31  C   UNL     1       8.496  21.060  56.995  1.00  0.00     0.001 A 
ENDBRANCH  20  22
ENDBRANCH   1  20
TORSDOF 4
ENDMDL
MODEL 5
REMARK VINA RESULT:     -10.1      4.126     10.019
REMARK  4 active torsions:
REMARK  status: ('A' for Active; 'I' for Inactive)
REMARK    1  A    between atoms: C_2  and  C_3 
REMARK    2  A    between atoms: C_2  and  C_19 
REMARK       I    between atoms: C_3  and  N_4 
REMARK    3  A    between atoms: N_4  and  C_5 
REMARK    4  A    between atoms: C_12  and  C_13 
REMARK       I    between atoms: C_13  and  N_14 
ROOT
HETATM    1  C   UNL     1       8.695  31.513  60.113  1.00  0.00     0.230 C 
HETATM    2  N   UNL     1       8.431  30.226  59.678  1.00  0.00    -0.327 N 
HETATM    3  O   UNL     1       8.792  32.500  59.386  1.00  0.00    -0.272 OA
HETATM    4  H   UNL     1       8.133  29.563  60.382  1.00  0.00     0.169 HD
ENDROOT
BRANCH   2   5
HETATM    5  C   UNL     1       8.408  29.755  58.349  1.00  0.00     0.035 A 
HETATM    6  C   UNL     1       7.305  29.110  57.775  1.00  0.00     0.046 A 
HETATM    7  C   UNL     1       7.349  28.732  56.415  1.00  0.00     0.030 A 
HETATM    8  C   UNL     1       8.501  28.995  55.683  1.00  0.00     0.063 A 
HETATM    9  C   UNL     1       6.457  28.112  55.488  1.00  0.00     0.156 A 
HETATM   10  N   UNL     1       8.250  28.518  54.428  1.00  0.00    -0.277 N 
HETATM   11  C   UNL     1       9.621  29.630  56.225  1.00  0.00     0.034 A 
HETATM   12  H   UNL     1       8.874  28.537  53.628  1.00  0.00     0.189 HD
HETATM   13  N   UNL     1       7.029  27.985  54.267  1.00  0.00    -0.168 NA
HETATM   14  C   UNL     1       9.544  30.012  57.569  1.00  0.00     0.032 A 
BRANCH   9  15
HETATM   15  C   UNL     1       5.081  27.659  55.734  1.00  0.00     0.270 C 
HETATM   16  N   UNL     1       4.192  28.025  54.760  1.00  0.00    -0.365 N 
HETATM   17  H   UNL     1       4.528  28.572  53.976  1.00  0.00     0.159 HD
HETATM   18  H   UNL     1       3.221  27.774  54.851  1.00  0.00     0.159 HD
HETATM   19  O   UNL     1       4.719  27.018  56.714  1.00  0.00    -0.266 OA
ENDBRANCH   9  15
ENDBRANCH   2   5
BRANCH   1  20
HETATM   20  C   UNL     1       8.985  31.647  61.617  1.00  0.00     0.107 C 
HETATM   21  C   UNL     1       9.455  30.285  62.136  1.00  0.00     0.025 C 
BRANCH  20  22
HETATM   22  C   UNL     1       7.854  32.265  62.429  1.00  0.00    -0.044 A 
HETATM   23  C   UNL     1       6.554  32.429  61.917  1.00  0.00     0.020 A 
HETATM   24  C   UNL     1       5.536  33.034  62.675  1.00  0.00    -0.025 A 
HETATM   25  C   UNL     1       5.817  33.475  63.985  1.00  0.00    -0.026 A 
HETATM   26  C   UNL     1       4.243  33.209  62.154  1.00  0.00     0.012 A 
HETATM   27  C   UNL     1       7.112  33.311  64.498  1.00  0.00     0.013 A 
HETATM   28  C   UNL     1       4.797  34.071  64.744  1.00  0.00     0.012 A 
HETATM   29  C   UNL     1       8.119  32.723  63.727  1.00  0.00     0.009 A 
HETATM   30  C   UNL     1       3.517  34.238  64.213  1.00  0.00     0.001 A 
HETATM   31  C   UNL     1       3.241  33.809  62.918  1.00  0.00     0.001 A 
ENDBRANCH  20  22
ENDBRANCH   1  20
TORSDOF 4
ENDMDL
MODEL 6
REMARK VINA RESULT:     -10.0      4.694      7.429
REMARK  4 active torsions:
REMARK  status: ('A' for Active; 'I' for Inactive)
REMARK    1  A    between atoms: C_2  and  C_3 
REMARK    2  A    between atoms: C_2  and  C_19 
REMARK       I    between atoms: C_3  and  N_4 
REMARK    3  A    between atoms: N_4  and  C_5 
REMARK    4  A    between atoms: C_12  and  C_13 
REMARK       I    between atoms: C_13  and  N_14 
ROOT
HETATM    1  C   UNL     1       6.467  27.156  54.148  1.00  0.00     0.230 C 
HETATM    2  N   UNL     1       5.158  27.322  53.732  1.00  0.00    -0.327 N 
HETATM    3  O   UNL     1       7.444  27.711  53.648  1.00  0.00    -0.272 OA
HETATM    4  H   UNL     1       4.438  27.011  54.372  1.00  0.00     0.169 HD
ENDROOT
BRANCH   2   5
HETATM    5  C   UNL     1       4.701  27.984  52.574  1.00  0.00     0.035 A 
HETATM    6  C   UNL     1       4.568  27.359  51.327  1.00  0.00     0.046 A 
HETATM    7  C   UNL     1       4.039  28.085  50.237  1.00  0.00     0.030 A 
HETATM    8  C   UNL     1       3.681  29.414  50.428  1.00  0.00     0.063 A 
HETATM    9  C   UNL     1       3.724  27.811  48.871  1.00  0.00     0.156 A 
HETATM   10  N   UNL     1       3.218  29.843  49.216  1.00  0.00    -0.277 N 
HETATM   11  C   UNL     1       3.807  30.070  51.654  1.00  0.00     0.034 A 
HETATM   12  H   UNL     1       2.872  30.767  48.983  1.00  0.00     0.189 HD
HETATM   13  N   UNL     1       3.221  28.906  48.254  1.00  0.00    -0.168 NA
HETATM   14  C   UNL     1       4.315  29.323  52.723  1.00  0.00     0.032 A 
BRANCH   9  15
HETATM   15  C   UNL     1       3.876  26.537  48.154  1.00  0.00     0.270 C 
HETATM   16  N   UNL     1       2.951  25.589  48.501  1.00  0.00    -0.365 N 
HETATM   17  H   UNL     1       2.263  25.819  49.209  1.00  0.00     0.159 HD
HETATM   18  H   UNL     1       2.987  24.678  48.075  1.00  0.00     0.159 HD
HETATM   19  O   UNL     1       4.744  26.301  47.322  1.00  0.00    -0.266 OA
ENDBRANCH   9  15
ENDBRANCH   2   5
BRANCH   1  20
HETATM   20  C   UNL     1       6.673  26.107  55.252  1.00  0.00     0.107 C 
HETATM   21  C   UNL     1       7.603  26.704  56.313  1.00  0.00     0.025 C 
BRANCH  20  22
HETATM   22  C   UNL     1       7.104  24.733  54.751  1.00  0.00    -0.044 A 
HETATM   23  C   UNL     1       7.447  23.682  55.621  1.00  0.00     0.020 A 
HETATM   24  C   UNL     1       7.874  22.435  55.133  1.00  0.00    -0.025 A 
HETATM   25  C   UNL     1       7.947  22.224  53.739  1.00  0.00    -0.026 A 
HETATM   26  C   UNL     1       8.231  21.393  56.004  1.00  0.00     0.012 A 
HETATM   27  C   UNL     1       7.602  23.270  52.871  1.00  0.00     0.013 A 
HETATM   28  C   UNL     1       8.365  20.974  53.254  1.00  0.00     0.012 A 
HETATM   29  C   UNL     1       7.196  24.510  53.370  1.00  0.00     0.009 A 
HETATM   30  C   UNL     1       8.716  19.948  54.133  1.00  0.00     0.001 A 
HETATM   31  C   UNL     1       8.651  20.158  55.507  1.00  0.00     0.001 A 
ENDBRANCH  20  22
ENDBRANCH   1  20
TORSDOF 4
ENDMDL
MODEL 7
REMARK VINA RESULT:      -9.9      4.571      7.048
REMARK  4 active torsions:
REMARK  status: ('A' for Active; 'I' for Inactive)
REMARK    1  A    between atoms: C_2  and  C_3 
REMARK    2  A    between atoms: C_2  and  C_19 
REMARK       I    between atoms: C_3  and  N_4 
REMARK    3  A    between atoms: N_4  and  C_5 
REMARK    4  A    between atoms: C_12  and  C_13 
REMARK       I    between atoms: C_13  and  N_14 
ROOT
HETATM    1  C   UNL     1       6.844  26.864  53.972  1.00  0.00     0.230 C 
HETATM    2  N   UNL     1       5.613  26.837  53.341  1.00  0.00    -0.327 N 
HETATM    3  O   UNL     1       7.883  27.300  53.480  1.00  0.00    -0.272 OA
HETATM    4  H   UNL     1       4.805  26.689  53.932  1.00  0.00     0.169 HD
ENDROOT
BRANCH   2   5
HETATM    5  C   UNL     1       5.336  27.114  51.987  1.00  0.00     0.035 A 
HETATM    6  C   UNL     1       5.395  28.399  51.431  1.00  0.00     0.046 A 
HETATM    7  C   UNL     1       5.166  28.571  50.048  1.00  0.00     0.030 A 
HETATM    8  C   UNL     1       4.867  27.457  49.274  1.00  0.00     0.063 A 
HETATM    9  C   UNL     1       5.170  29.666  49.131  1.00  0.00     0.156 A 
HETATM   10  N   UNL     1       4.694  27.932  48.005  1.00  0.00    -0.277 N 
HETATM   11  C   UNL     1       4.792  26.163  49.796  1.00  0.00     0.034 A 
HETATM   12  H   UNL     1       4.461  27.397  47.176  1.00  0.00     0.189 HD
HETATM   13  N   UNL     1       4.875  29.256  47.876  1.00  0.00    -0.168 NA
HETATM   14  C   UNL     1       5.043  26.017  51.165  1.00  0.00     0.032 A 
BRANCH   9  15
HETATM   15  C   UNL     1       5.463  31.077  49.420  1.00  0.00     0.270 C 
HETATM   16  N   UNL     1       4.375  31.903  49.327  1.00  0.00    -0.365 N 
HETATM   17  H   UNL     1       3.483  31.501  49.062  1.00  0.00     0.159 HD
HETATM   18  H   UNL     1       4.483  32.890  49.490  1.00  0.00     0.159 HD
HETATM   19  O   UNL     1       6.569  31.517  49.712  1.00  0.00    -0.266 OA
ENDBRANCH   9  15
ENDBRANCH   2   5
BRANCH   1  20
HETATM   20  C   UNL     1       6.883  26.189  55.353  1.00  0.00     0.107 C 
HETATM   21  C   UNL     1       7.640  27.110  56.315  1.00  0.00     0.025 C 
BRANCH  20  22
HETATM   22  C   UNL     1       7.389  24.752  55.343  1.00  0.00    -0.044 A 
HETATM   23  C   UNL     1       7.430  23.970  54.174  1.00  0.00     0.020 A 
HETATM   24  C   UNL     1       7.869  22.635  54.197  1.00  0.00    -0.025 A 
HETATM   25  C   UNL     1       8.293  22.067  55.417  1.00  0.00    -0.026 A 
HETATM   26  C   UNL     1       7.893  21.853  53.030  1.00  0.00     0.012 A 
HETATM   27  C   UNL     1       8.256  22.845  56.583  1.00  0.00     0.013 A 
HETATM   28  C   UNL     1       8.740  20.735  55.436  1.00  0.00     0.012 A 
HETATM   29  C   UNL     1       7.801  24.166  56.548  1.00  0.00     0.009 A 
HETATM   30  C   UNL     1       8.759  19.972  54.268  1.00  0.00     0.001 A 
HETATM   31  C   UNL     1       8.334  20.530  53.067  1.00  0.00     0.001 A 
ENDBRANCH  20  22
ENDBRANCH   1  20
TORSDOF 4
ENDMDL
MODEL 8
REMARK VINA RESULT:      -9.8      1.829      2.475
REMARK  4 active torsions:
REMARK  status: ('A' for Active; 'I' for Inactive)
REMARK    1  A    between atoms: C_2  and  C_3 
REMARK    2  A    between atoms: C_2  and  C_19 
REMARK       I    between atoms: C_3  and  N_4 
REMARK    3  A    between atoms: N_4  and  C_5 
REMARK    4  A    between atoms: C_12  and  C_13 
REMARK       I    between atoms: C_13  and  N_14 
ROOT
HETATM    1  C   UNL     1       6.764  27.362  54.769  1.00  0.00     0.230 C 
HETATM    2  N   UNL     1       7.625  28.417  55.015  1.00  0.00    -0.327 N 
HETATM    3  O   UNL     1       5.761  27.097  55.429  1.00  0.00    -0.272 OA
HETATM    4  H   UNL     1       8.256  28.670  54.266  1.00  0.00     0.169 HD
ENDROOT
BRANCH   2   5
HETATM    5  C   UNL     1       7.645  29.264  56.142  1.00  0.00     0.035 A 
HETATM    6  C   UNL     1       6.510  29.919  56.638  1.00  0.00     0.046 A 
HETATM    7  C   UNL     1       6.612  30.696  57.813  1.00  0.00     0.030 A 
HETATM    8  C   UNL     1       7.848  30.805  58.439  1.00  0.00     0.063 A 
HETATM    9  C   UNL     1       5.719  31.460  58.625  1.00  0.00     0.156 A 
HETATM   10  N   UNL     1       7.636  31.609  59.523  1.00  0.00    -0.277 N 
HETATM   11  C   UNL     1       9.000  30.172  57.969  1.00  0.00     0.034 A 
HETATM   12  H   UNL     1       8.320  31.909  60.209  1.00  0.00     0.189 HD
HETATM   13  N   UNL     1       6.366  32.019  59.674  1.00  0.00    -0.168 NA
HETATM   14  C   UNL     1       8.868  29.392  56.814  1.00  0.00     0.032 A 
BRANCH   9  15
HETATM   15  C   UNL     1       4.274  31.652  58.433  1.00  0.00     0.270 C 
HETATM   16  N   UNL     1       3.521  30.548  58.728  1.00  0.00    -0.365 N 
HETATM   17  H   UNL     1       3.995  29.705  59.033  1.00  0.00     0.159 HD
HETATM   18  H   UNL     1       2.522  30.579  58.609  1.00  0.00     0.159 HD
HETATM   19  O   UNL     1       3.752  32.688  58.036  1.00  0.00    -0.266 OA
ENDBRANCH   9  15
ENDBRANCH   2   5
BRANCH   1  20
HETATM   20  C   UNL     1       7.198  26.418  53.636  1.00  0.00     0.107 C 
HETATM   21  C   UNL     1       6.105  26.422  52.563  1.00  0.00     0.025 C 
BRANCH  20  22
HETATM   22  C   UNL     1       7.613  25.024  54.094  1.00  0.00    -0.044 A 
HETATM   23  C   UNL     1       7.652  23.920  53.223  1.00  0.00     0.020 A 
HETATM   24  C   UNL     1       8.005  22.638  53.678  1.00  0.00    -0.025 A 
HETATM   25  C   UNL     1       8.343  22.453  55.036  1.00  0.00    -0.026 A 
HETATM   26  C   UNL     1       8.027  21.534  52.809  1.00  0.00     0.012 A 
HETATM   27  C   UNL     1       8.307  23.553  55.905  1.00  0.00     0.013 A 
HETATM   28  C   UNL     1       8.704  21.173  55.487  1.00  0.00     0.012 A 
HETATM   29  C   UNL     1       7.938  24.819  55.442  1.00  0.00     0.009 A 
HETATM   30  C   UNL     1       8.722  20.087  54.611  1.00  0.00     0.001 A 
HETATM   31  C   UNL     1       8.382  20.267  53.274  1.00  0.00     0.001 A 
ENDBRANCH  20  22
ENDBRANCH   1  20
TORSDOF 4
ENDMDL
MODEL 9
REMARK VINA RESULT:      -9.5      5.531      7.708
REMARK  4 active torsions:
REMARK  status: ('A' for Active; 'I' for Inactive)
REMARK    1  A    between atoms: C_2  and  C_3 
REMARK    2  A    between atoms: C_2  and  C_19 
REMARK       I    between atoms: C_3  and  N_4 
REMARK    3  A    between atoms: N_4  and  C_5 
REMARK    4  A    between atoms: C_12  and  C_13 
REMARK       I    between atoms: C_13  and  N_14 
ROOT
HETATM    1  C   UNL     1       5.482  25.663  52.408  1.00  0.00     0.230 C 
HETATM    2  N   UNL     1       5.683  26.662  51.473  1.00  0.00    -0.327 N 
HETATM    3  O   UNL     1       4.511  24.908  52.441  1.00  0.00    -0.272 OA
HETATM    4  H   UNL     1       6.620  27.038  51.407  1.00  0.00     0.169 HD
ENDROOT
BRANCH   2   5
HETATM    5  C   UNL     1       4.766  27.137  50.513  1.00  0.00     0.035 A 
HETATM    6  C   UNL     1       3.945  28.255  50.713  1.00  0.00     0.046 A 
HETATM    7  C   UNL     1       3.104  28.698  49.668  1.00  0.00     0.030 A 
HETATM    8  C   UNL     1       3.099  27.997  48.469  1.00  0.00     0.063 A 
HETATM    9  C   UNL     1       2.182  29.771  49.472  1.00  0.00     0.156 A 
HETATM   10  N   UNL     1       2.200  28.647  47.672  1.00  0.00    -0.277 N 
HETATM   11  C   UNL     1       3.899  26.876  48.237  1.00  0.00     0.034 A 
HETATM   12  H   UNL     1       1.937  28.409  46.722  1.00  0.00     0.189 HD
HETATM   13  N   UNL     1       1.631  29.724  48.236  1.00  0.00    -0.168 NA
HETATM   14  C   UNL     1       4.738  26.469  49.281  1.00  0.00     0.032 A 
BRANCH   9  15
HETATM   15  C   UNL     1       1.832  30.838  50.420  1.00  0.00     0.270 C 
HETATM   16  N   UNL     1       0.486  30.991  50.615  1.00  0.00    -0.365 N 
HETATM   17  H   UNL     1      -0.150  30.390  50.102  1.00  0.00     0.159 HD
HETATM   18  H   UNL     1       0.150  31.710  51.234  1.00  0.00     0.159 HD
HETATM   19  O   UNL     1       2.641  31.555  50.997  1.00  0.00    -0.266 OA
ENDBRANCH   9  15
ENDBRANCH   2   5
BRANCH   1  20
HETATM   20  C   UNL     1       6.529  25.602  53.533  1.00  0.00     0.107 C 
HETATM   21  C   UNL     1       7.598  26.660  53.248  1.00  0.00     0.025 C 
BRANCH  20  22
HETATM   22  C   UNL     1       7.088  24.211  53.805  1.00  0.00    -0.044 A 
HETATM   23  C   UNL     1       7.280  23.712  55.107  1.00  0.00     0.020 A 
HETATM   24  C   UNL     1       7.829  22.438  55.332  1.00  0.00    -0.025 A 
HETATM   25  C   UNL     1       8.184  21.632  54.229  1.00  0.00    -0.026 A 
HETATM   26  C   UNL     1       8.034  21.950  56.633  1.00  0.00     0.012 A 
HETATM   27  C   UNL     1       7.991  22.126  52.931  1.00  0.00     0.013 A 
HETATM   28  C   UNL     1       8.725  20.355  54.456  1.00  0.00     0.012 A 
HETATM   29  C   UNL     1       7.459  23.402  52.722  1.00  0.00     0.009 A 
HETATM   30  C   UNL     1       8.921  19.884  55.755  1.00  0.00     0.001 A 
HETATM   31  C   UNL     1       8.578  20.682  56.843  1.00  0.00     0.001 A 
ENDBRANCH  20  22
ENDBRANCH   1  20
TORSDOF 4
ENDMDL
MODEL 10
REMARK VINA RESULT:      -9.5      2.925      5.439
REMARK  4 active torsions:
REMARK  status: ('A' for Active; 'I' for Inactive)
REMARK    1  A    between atoms: C_2  and  C_3 
REMARK    2  A    between atoms: C_2  and  C_19 
REMARK       I    between atoms: C_3  and  N_4 
REMARK    3  A    between atoms: N_4  and  C_5 
REMARK    4  A    between atoms: C_12  and  C_13 
REMARK       I    between atoms: C_13  and  N_14 
ROOT
HETATM    1  C   UNL     1       8.736  30.814  58.789  1.00  0.00     0.230 C 
HETATM    2  N   UNL     1       8.988  30.845  60.149  1.00  0.00    -0.327 N 
HETATM    3  O   UNL     1       7.864  31.465  58.215  1.00  0.00    -0.272 OA
HETATM    4  H   UNL     1       9.875  30.464  60.453  1.00  0.00     0.169 HD
ENDROOT
BRANCH   2   5
HETATM    5  C   UNL     1       8.210  31.456  61.153  1.00  0.00     0.035 A 
HETATM    6  C   UNL     1       6.814  31.560  61.095  1.00  0.00     0.046 A 
HETATM    7  C   UNL     1       6.112  32.131  62.180  1.00  0.00     0.030 A 
HETATM    8  C   UNL     1       6.832  32.594  63.275  1.00  0.00     0.063 A 
HETATM    9  C   UNL     1       4.744  32.375  62.508  1.00  0.00     0.156 A 
HETATM   10  N   UNL     1       5.898  33.086  64.141  1.00  0.00    -0.277 N 
HETATM   11  C   UNL     1       8.223  32.513  63.363  1.00  0.00     0.034 A 
HETATM   12  H   UNL     1       6.064  33.510  65.047  1.00  0.00     0.189 HD
HETATM   13  N   UNL     1       4.628  32.967  63.720  1.00  0.00    -0.168 NA
HETATM   14  C   UNL     1       8.893  31.925  62.284  1.00  0.00     0.032 A 
BRANCH   9  15
HETATM   15  C   UNL     1       3.557  32.044  61.707  1.00  0.00     0.270 C 
HETATM   16  N   UNL     1       3.069  30.784  61.928  1.00  0.00    -0.365 N 
HETATM   17  H   UNL     1       3.550  30.188  62.591  1.00  0.00     0.159 HD
HETATM   18  H   UNL     1       2.268  30.462  61.411  1.00  0.00     0.159 HD
HETATM   19  O   UNL     1       3.027  32.796  60.897  1.00  0.00    -0.266 OA
ENDBRANCH   9  15
ENDBRANCH   2   5
BRANCH   1  20
HETATM   20  C   UNL     1       9.566  29.792  57.995  1.00  0.00     0.107 C 
HETATM   21  C   UNL     1      10.680  30.545  57.263  1.00  0.00     0.025 C 
BRANCH  20  22
HETATM   22  C   UNL     1       8.748  28.868  57.100  1.00  0.00    -0.044 A 
HETATM   23  C   UNL     1       8.097  27.720  57.587  1.00  0.00     0.020 A 
HETATM   24  C   UNL     1       7.377  26.866  56.735  1.00  0.00    -0.025 A 
HETATM   25  C   UNL     1       7.290  27.171  55.360  1.00  0.00    -0.026 A 
HETATM   26  C   UNL     1       6.742  25.712  57.223  1.00  0.00     0.012 A 
HETATM   27  C   UNL     1       7.936  28.316  54.872  1.00  0.00     0.013 A 
HETATM   28  C   UNL     1       6.562  26.321  54.511  1.00  0.00     0.012 A 
HETATM   29  C   UNL     1       8.663  29.148  55.729  1.00  0.00     0.009 A 
HETATM   30  C   UNL     1       5.936  25.179  55.011  1.00  0.00     0.001 A 
HETATM   31  C   UNL     1       6.027  24.873  56.366  1.00  0.00     0.001 A 
ENDBRANCH  20  22
ENDBRANCH   1  20
TORSDOF 4
ENDMDL
