MODEL 1
REMARK VINA RESULT:      -8.8      0.000      0.000
REMARK  3 active torsions:
REMARK  status: ('A' for Active; 'I' for Inactive)
REMARK    1  A    between atoms: C_4  and  C_5 
REMARK    2  A    between atoms: C_14  and  C_15 
REMARK       I    between atoms: C_15  and  N_16 
REMARK    3  A    between atoms: N_16  and  C_17 
ROOT
HETATM    1  C   UNL     1       5.765  27.114  55.097  1.00  0.00     0.222 A 
HETATM    2  N   UNL     1       4.888  28.277  54.989  1.00  0.00    -0.090 N 
HETATM    3  C   UNL     1       4.352  28.738  53.821  1.00  0.00     0.735 A 
HETATM    4  N   UNL     1       3.555  29.740  54.102  1.00  0.00     0.030 NA
HETATM    5  N   UNL     1       3.573  29.858  55.479  1.00  0.00     0.033 NA
HETATM    6  N   UNL     1       4.362  28.943  56.031  1.00  0.00     0.012 NA
HETATM    7  N   UNL     1       4.672  28.124  52.667  1.00  0.00    -0.191 N 
HETATM    8  C   UNL     1       5.505  27.012  52.599  1.00  0.00     0.037 A 
HETATM    9  C   UNL     1       5.719  26.446  51.214  1.00  0.00     0.070 C 
HETATM   10  C   UNL     1       6.043  26.492  53.732  1.00  0.00     0.064 A 
HETATM   11  H   UNL     1       4.280  28.473  51.796  1.00  0.00     0.184 HD
ENDROOT
BRANCH  10  12
HETATM   12  C   UNL     1       7.020  25.361  53.660  1.00  0.00     0.256 C 
HETATM   13  N   UNL     1       6.550  24.167  54.163  1.00  0.00    -0.323 N 
HETATM   14  H   UNL     1       5.633  24.143  54.587  1.00  0.00     0.169 HD
HETATM   15  O   UNL     1       8.136  25.564  53.195  1.00  0.00    -0.267 OA
BRANCH  13  16
HETATM   16  C   UNL     1       7.234  22.929  54.198  1.00  0.00     0.035 A 
HETATM   17  C   UNL     1       7.659  22.236  53.064  1.00  0.00     0.029 A 
HETATM   18  C   UNL     1       8.314  21.006  53.188  1.00  0.00     0.002 A 
HETATM   19  C   UNL     1       8.555  20.462  54.447  1.00  0.00     0.000 A 
HETATM   20  C   UNL     1       8.137  21.145  55.585  1.00  0.00     0.002 A 
HETATM   21  C   UNL     1       7.478  22.371  55.461  1.00  0.00     0.029 A 
ENDBRANCH  13  16
ENDBRANCH  10  12
BRANCH   1  22
HETATM   22  C   UNL     1       6.992  27.482  55.870  1.00  0.00     0.083 A 
HETATM   23  O   UNL     1       7.800  28.420  55.292  1.00  0.00    -0.317 OA
HETATM   24  C   UNL     1       8.840  28.634  56.143  1.00  0.00     0.049 A 
HETATM   25  C   UNL     1       9.860  29.609  55.711  1.00  0.00     0.076 C 
HETATM   26  C   UNL     1       8.702  27.848  57.267  1.00  0.00     0.035 A 
HETATM   27  C   UNL     1       7.508  27.108  57.095  1.00  0.00     0.038 A 
ENDBRANCH   1  22
TORSDOF 3
ENDMDL
MODEL 2
REMARK VINA RESULT:      -8.5      1.507      1.942
REMARK  3 active torsions:
REMARK  status: ('A' for Active; 'I' for Inactive)
REMARK    1  A    between atoms: C_4  and  C_5 
REMARK    2  A    between atoms: C_14  and  C_15 
REMARK       I    between atoms: C_15  and  N_16 
REMARK    3  A    between atoms: N_16  and  C_17 
ROOT
HETATM    1  C   UNL     1       4.252  28.016  54.087  1.00  0.00     0.222 A 
HETATM    2  N   UNL     1       3.963  29.384  53.664  1.00  0.00    -0.090 N 
HETATM    3  C   UNL     1       4.005  29.821  52.371  1.00  0.00     0.735 A 
HETATM    4  N   UNL     1       3.613  31.071  52.346  1.00  0.00     0.030 NA
HETATM    5  N   UNL     1       3.280  31.385  53.650  1.00  0.00     0.033 NA
HETATM    6  N   UNL     1       3.460  30.345  54.458  1.00  0.00     0.012 NA
HETATM    7  N   UNL     1       4.379  28.964  51.403  1.00  0.00    -0.191 N 
HETATM    8  C   UNL     1       4.700  27.632  51.643  1.00  0.00     0.037 A 
HETATM    9  C   UNL     1       5.066  26.822  50.421  1.00  0.00     0.070 C 
HETATM   10  C   UNL     1       4.646  27.135  52.906  1.00  0.00     0.064 A 
HETATM   11  H   UNL     1       4.419  29.292  50.441  1.00  0.00     0.184 HD
ENDROOT
BRANCH  10  12
HETATM   12  C   UNL     1       5.088  25.734  53.190  1.00  0.00     0.256 C 
HETATM   13  N   UNL     1       6.422  25.609  53.514  1.00  0.00    -0.323 N 
HETATM   14  H   UNL     1       7.010  26.430  53.485  1.00  0.00     0.169 HD
HETATM   15  O   UNL     1       4.274  24.821  53.101  1.00  0.00    -0.267 OA
BRANCH  13  16
HETATM   16  C   UNL     1       7.108  24.421  53.858  1.00  0.00     0.035 A 
HETATM   17  C   UNL     1       7.754  23.594  52.939  1.00  0.00     0.029 A 
HETATM   18  C   UNL     1       8.394  22.424  53.364  1.00  0.00     0.002 A 
HETATM   19  C   UNL     1       8.397  22.075  54.712  1.00  0.00     0.000 A 
HETATM   20  C   UNL     1       7.757  22.893  55.638  1.00  0.00     0.002 A 
HETATM   21  C   UNL     1       7.113  24.058  55.213  1.00  0.00     0.029 A 
ENDBRANCH  13  16
ENDBRANCH  10  12
BRANCH   1  22
HETATM   22  C   UNL     1       5.249  28.037  55.202  1.00  0.00     0.083 A 
HETATM   23  O   UNL     1       6.478  28.549  54.893  1.00  0.00    -0.317 OA
HETATM   24  C   UNL     1       7.229  28.503  56.026  1.00  0.00     0.049 A 
HETATM   25  C   UNL     1       8.617  28.995  55.921  1.00  0.00     0.076 C 
HETATM   26  C   UNL     1       6.491  27.974  57.064  1.00  0.00     0.035 A 
HETATM   27  C   UNL     1       5.212  27.678  56.535  1.00  0.00     0.038 A 
ENDBRANCH   1  22
TORSDOF 3
ENDMDL
MODEL 3
REMARK VINA RESULT:      -8.5      2.881      7.107
REMARK  3 active torsions:
REMARK  status: ('A' for Active; 'I' for Inactive)
REMARK    1  A    between atoms: C_4  and  C_5 
REMARK    2  A    between atoms: C_14  and  C_15 
REMARK       I    between atoms: C_15  and  N_16 
REMARK    3  A    between atoms: N_16  and  C_17 
ROOT
HETATM    1  C   UNL     1       6.993  22.932  54.497  1.00  0.00     0.222 A 
HETATM    2  N   UNL     1       7.757  21.725  54.194  1.00  0.00    -0.090 N 
HETATM    3  C   UNL     1       8.682  21.163  55.026  1.00  0.00     0.735 A 
HETATM    4  N   UNL     1       9.109  20.053  54.476  1.00  0.00     0.030 NA
HETATM    5  N   UNL     1       8.391  19.916  53.303  1.00  0.00     0.033 NA
HETATM    6  N   UNL     1       7.536  20.919  53.141  1.00  0.00     0.012 NA
HETATM    7  N   UNL     1       8.962  21.767  56.196  1.00  0.00    -0.191 N 
HETATM    8  C   UNL     1       8.332  22.930  56.625  1.00  0.00     0.037 A 
HETATM    9  C   UNL     1       8.762  23.438  57.982  1.00  0.00     0.070 C 
HETATM   10  C   UNL     1       7.382  23.517  55.851  1.00  0.00     0.064 A 
HETATM   11  H   UNL     1       9.657  21.353  56.812  1.00  0.00     0.184 HD
ENDROOT
BRANCH  10  12
HETATM   12  C   UNL     1       6.773  24.822  56.256  1.00  0.00     0.256 C 
HETATM   13  N   UNL     1       7.604  25.912  56.106  1.00  0.00    -0.323 N 
HETATM   14  H   UNL     1       8.555  25.762  55.800  1.00  0.00     0.169 HD
HETATM   15  O   UNL     1       5.628  24.838  56.695  1.00  0.00    -0.267 OA
BRANCH  13  16
HETATM   16  C   UNL     1       7.292  27.265  56.376  1.00  0.00     0.035 A 
HETATM   17  C   UNL     1       6.583  28.094  55.507  1.00  0.00     0.029 A 
HETATM   18  C   UNL     1       6.333  29.429  55.845  1.00  0.00     0.002 A 
HETATM   19  C   UNL     1       6.786  29.943  57.057  1.00  0.00     0.000 A 
HETATM   20  C   UNL     1       7.493  29.125  57.933  1.00  0.00     0.002 A 
HETATM   21  C   UNL     1       7.748  27.793  57.593  1.00  0.00     0.029 A 
ENDBRANCH  13  16
ENDBRANCH  10  12
BRANCH   1  22
HETATM   22  C   UNL     1       7.100  23.893  53.356  1.00  0.00     0.083 A 
HETATM   23  O   UNL     1       5.918  24.399  52.891  1.00  0.00    -0.317 OA
HETATM   24  C   UNL     1       6.220  25.258  51.880  1.00  0.00     0.049 A 
HETATM   25  C   UNL     1       5.081  25.916  51.209  1.00  0.00     0.076 C 
HETATM   26  C   UNL     1       7.585  25.316  51.697  1.00  0.00     0.035 A 
HETATM   27  C   UNL     1       8.154  24.440  52.652  1.00  0.00     0.038 A 
ENDBRANCH   1  22
TORSDOF 3
ENDMDL
MODEL 4
REMARK VINA RESULT:      -8.3      2.587      3.701
REMARK  3 active torsions:
REMARK  status: ('A' for Active; 'I' for Inactive)
REMARK    1  A    between atoms: C_4  and  C_5 
REMARK    2  A    between atoms: C_14  and  C_15 
REMARK       I    between atoms: C_15  and  N_16 
REMARK    3  A    between atoms: N_16  and  C_17 
ROOT
HETATM    1  C   UNL     1       5.817  30.197  57.281  1.00  0.00     0.222 A 
HETATM    2  N   UNL     1       5.526  31.561  56.847  1.00  0.00    -0.090 N 
HETATM    3  C   UNL     1       4.958  31.889  55.650  1.00  0.00     0.735 A 
HETATM    4  N   UNL     1       4.767  33.185  55.626  1.00  0.00     0.030 NA
HETATM    5  N   UNL     1       5.188  33.648  56.859  1.00  0.00     0.033 NA
HETATM    6  N   UNL     1       5.622  32.653  57.625  1.00  0.00     0.012 NA
HETATM    7  N   UNL     1       4.676  30.910  54.770  1.00  0.00    -0.191 N 
HETATM    8  C   UNL     1       4.904  29.562  55.026  1.00  0.00     0.037 A 
HETATM    9  C   UNL     1       4.493  28.613  53.925  1.00  0.00     0.070 C 
HETATM   10  C   UNL     1       5.441  29.176  56.213  1.00  0.00     0.064 A 
HETATM   11  H   UNL     1       4.261  31.155  53.874  1.00  0.00     0.184 HD
ENDROOT
BRANCH  10  12
HETATM   12  C   UNL     1       5.786  27.741  56.458  1.00  0.00     0.256 C 
HETATM   13  N   UNL     1       7.016  27.357  55.968  1.00  0.00    -0.323 N 
HETATM   14  H   UNL     1       7.562  28.025  55.443  1.00  0.00     0.169 HD
HETATM   15  O   UNL     1       4.979  27.022  57.037  1.00  0.00    -0.267 OA
BRANCH  13  16
HETATM   16  C   UNL     1       7.616  26.081  56.078  1.00  0.00     0.035 A 
HETATM   17  C   UNL     1       8.318  25.639  57.200  1.00  0.00     0.029 A 
HETATM   18  C   UNL     1       8.897  24.365  57.219  1.00  0.00     0.002 A 
HETATM   19  C   UNL     1       8.776  23.522  56.117  1.00  0.00     0.000 A 
HETATM   20  C   UNL     1       8.077  23.951  54.993  1.00  0.00     0.002 A 
HETATM   21  C   UNL     1       7.503  25.226  54.973  1.00  0.00     0.029 A 
ENDBRANCH  13  16
ENDBRANCH  10  12
BRANCH   1  22
HETATM   22  C   UNL     1       7.236  30.111  57.746  1.00  0.00     0.083 A 
HETATM   23  O   UNL     1       8.171  29.909  56.769  1.00  0.00    -0.317 OA
HETATM   24  C   UNL     1       9.387  29.880  57.378  1.00  0.00     0.049 A 
HETATM   25  C   UNL     1      10.558  29.653  56.507  1.00  0.00     0.076 C 
HETATM   26  C   UNL     1       9.244  30.070  58.735  1.00  0.00     0.035 A 
HETATM   27  C   UNL     1       7.858  30.225  58.974  1.00  0.00     0.038 A 
ENDBRANCH   1  22
TORSDOF 3
ENDMDL
MODEL 5
REMARK VINA RESULT:      -8.3      1.818      3.562
REMARK  3 active torsions:
REMARK  status: ('A' for Active; 'I' for Inactive)
REMARK    1  A    between atoms: C_4  and  C_5 
REMARK    2  A    between atoms: C_14  and  C_15 
REMARK       I    between atoms: C_15  and  N_16 
REMARK    3  A    between atoms: N_16  and  C_17 
ROOT
HETATM    1  C   UNL     1       5.914  27.540  54.015  1.00  0.00     0.222 A 
HETATM    2  N   UNL     1       4.898  28.460  54.521  1.00  0.00    -0.090 N 
HETATM    3  C   UNL     1       4.285  28.346  55.735  1.00  0.00     0.735 A 
HETATM    4  N   UNL     1       3.496  29.381  55.895  1.00  0.00     0.030 NA
HETATM    5  N   UNL     1       3.672  30.164  54.770  1.00  0.00     0.033 NA
HETATM    6  N   UNL     1       4.557  29.623  53.939  1.00  0.00     0.012 NA
HETATM    7  N   UNL     1       4.584  27.298  56.523  1.00  0.00    -0.191 N 
HETATM    8  C   UNL     1       5.519  26.326  56.181  1.00  0.00     0.037 A 
HETATM    9  C   UNL     1       5.738  25.245  57.213  1.00  0.00     0.070 C 
HETATM   10  C   UNL     1       6.182  26.405  54.998  1.00  0.00     0.064 A 
HETATM   11  H   UNL     1       4.120  27.208  57.424  1.00  0.00     0.184 HD
ENDROOT
BRANCH  10  12
HETATM   12  C   UNL     1       7.113  25.312  54.576  1.00  0.00     0.256 C 
HETATM   13  N   UNL     1       6.630  24.038  54.786  1.00  0.00    -0.323 N 
HETATM   14  H   UNL     1       5.738  23.923  55.247  1.00  0.00     0.169 HD
HETATM   15  O   UNL     1       8.207  25.606  54.107  1.00  0.00    -0.267 OA
BRANCH  13  16
HETATM   16  C   UNL     1       7.271  22.820  54.458  1.00  0.00     0.035 A 
HETATM   17  C   UNL     1       7.570  22.416  53.157  1.00  0.00     0.029 A 
HETATM   18  C   UNL     1       8.190  21.185  52.920  1.00  0.00     0.002 A 
HETATM   19  C   UNL     1       8.520  20.349  53.983  1.00  0.00     0.000 A 
HETATM   20  C   UNL     1       8.228  20.741  55.286  1.00  0.00     0.002 A 
HETATM   21  C   UNL     1       7.604  21.969  55.522  1.00  0.00     0.029 A 
ENDBRANCH  13  16
ENDBRANCH  10  12
BRANCH   1  22
HETATM   22  C   UNL     1       5.541  27.089  52.638  1.00  0.00     0.083 A 
HETATM   23  O   UNL     1       5.706  28.013  51.645  1.00  0.00    -0.317 OA
HETATM   24  C   UNL     1       5.337  27.417  50.478  1.00  0.00     0.049 A 
HETATM   25  C   UNL     1       5.418  28.245  49.258  1.00  0.00     0.076 C 
HETATM   26  C   UNL     1       4.945  26.117  50.712  1.00  0.00     0.035 A 
HETATM   27  C   UNL     1       5.081  25.902  52.104  1.00  0.00     0.038 A 
ENDBRANCH   1  22
TORSDOF 3
ENDMDL
MODEL 6
REMARK VINA RESULT:      -8.2      6.025      8.729
REMARK  3 active torsions:
REMARK  status: ('A' for Active; 'I' for Inactive)
REMARK    1  A    between atoms: C_4  and  C_5 
REMARK    2  A    between atoms: C_14  and  C_15 
REMARK       I    between atoms: C_15  and  N_16 
REMARK    3  A    between atoms: N_16  and  C_17 
ROOT
HETATM    1  C   UNL     1       6.059  32.964  60.824  1.00  0.00     0.222 A 
HETATM    2  N   UNL     1       5.234  32.984  62.029  1.00  0.00    -0.090 N 
HETATM    3  C   UNL     1       5.544  32.339  63.192  1.00  0.00     0.735 A 
HETATM    4  N   UNL     1       4.632  32.638  64.084  1.00  0.00     0.030 NA
HETATM    5  N   UNL     1       3.774  33.523  63.459  1.00  0.00     0.033 NA
HETATM    6  N   UNL     1       4.156  33.767  62.210  1.00  0.00     0.012 NA
HETATM    7  N   UNL     1       6.659  31.588  63.246  1.00  0.00    -0.191 N 
HETATM    8  C   UNL     1       7.543  31.455  62.180  1.00  0.00     0.037 A 
HETATM    9  C   UNL     1       8.755  30.592  62.446  1.00  0.00     0.070 C 
HETATM   10  C   UNL     1       7.301  32.098  61.008  1.00  0.00     0.064 A 
HETATM   11  H   UNL     1       6.886  31.100  64.109  1.00  0.00     0.184 HD
ENDROOT
BRANCH  10  12
HETATM   12  C   UNL     1       8.189  31.879  59.825  1.00  0.00     0.256 C 
HETATM   13  N   UNL     1       7.965  30.696  59.152  1.00  0.00    -0.323 N 
HETATM   14  H   UNL     1       7.281  30.049  59.519  1.00  0.00     0.169 HD
HETATM   15  O   UNL     1       9.038  32.720  59.550  1.00  0.00    -0.267 OA
BRANCH  13  16
HETATM   16  C   UNL     1       8.626  30.240  57.988  1.00  0.00     0.035 A 
HETATM   17  C   UNL     1      10.005  30.313  57.789  1.00  0.00     0.029 A 
HETATM   18  C   UNL     1      10.576  29.854  56.597  1.00  0.00     0.002 A 
HETATM   19  C   UNL     1       9.773  29.314  55.596  1.00  0.00     0.000 A 
HETATM   20  C   UNL     1       8.396  29.235  55.783  1.00  0.00     0.002 A 
HETATM   21  C   UNL     1       7.825  29.698  56.972  1.00  0.00     0.029 A 
ENDBRANCH  13  16
ENDBRANCH  10  12
BRANCH   1  22
HETATM   22  C   UNL     1       5.216  32.592  59.646  1.00  0.00     0.083 A 
HETATM   23  O   UNL     1       5.642  33.064  58.436  1.00  0.00    -0.317 OA
HETATM   24  C   UNL     1       4.768  32.609  57.497  1.00  0.00     0.049 A 
HETATM   25  C   UNL     1       5.025  33.015  56.101  1.00  0.00     0.076 C 
HETATM   26  C   UNL     1       3.790  31.841  58.092  1.00  0.00     0.035 A 
HETATM   27  C   UNL     1       4.080  31.825  59.476  1.00  0.00     0.038 A 
ENDBRANCH   1  22
TORSDOF 3
ENDMDL
MODEL 7
REMARK VINA RESULT:      -8.0      4.864      8.602
REMARK  3 active torsions:
REMARK  status: ('A' for Active; 'I' for Inactive)
REMARK    1  A    between atoms: C_4  and  C_5 
REMARK    2  A    between atoms: C_14  and  C_15 
REMARK       I    between atoms: C_15  and  N_16 
REMARK    3  A    between atoms: N_16  and  C_17 
ROOT
HETATM    1  C   UNL     1       6.611  29.581  57.847  1.00  0.00     0.222 A 
HETATM    2  N   UNL     1       6.707  28.603  56.766  1.00  0.00    -0.090 N 
HETATM    3  C   UNL     1       7.871  28.232  56.157  1.00  0.00     0.735 A 
HETATM    4  N   UNL     1       7.600  27.282  55.296  1.00  0.00     0.030 NA
HETATM    5  N   UNL     1       6.245  27.039  55.420  1.00  0.00     0.033 NA
HETATM    6  N   UNL     1       5.697  27.822  56.344  1.00  0.00     0.012 NA
HETATM    7  N   UNL     1       9.021  28.825  56.528  1.00  0.00    -0.191 N 
HETATM    8  C   UNL     1       9.096  29.786  57.531  1.00  0.00     0.037 A 
HETATM    9  C   UNL     1      10.483  30.311  57.823  1.00  0.00     0.070 C 
HETATM   10  C   UNL     1       7.974  30.172  58.192  1.00  0.00     0.064 A 
HETATM   11  H   UNL     1       9.887  28.555  56.068  1.00  0.00     0.184 HD
ENDROOT
BRANCH  10  12
HETATM   12  C   UNL     1       8.028  31.276  59.199  1.00  0.00     0.256 C 
HETATM   13  N   UNL     1       7.394  30.994  60.391  1.00  0.00    -0.323 N 
HETATM   14  H   UNL     1       6.902  30.117  60.487  1.00  0.00     0.169 HD
HETATM   15  O   UNL     1       8.592  32.325  58.908  1.00  0.00    -0.267 OA
BRANCH  13  16
HETATM   16  C   UNL     1       7.311  31.829  61.530  1.00  0.00     0.035 A 
HETATM   17  C   UNL     1       8.204  31.786  62.601  1.00  0.00     0.029 A 
HETATM   18  C   UNL     1       8.037  32.637  63.699  1.00  0.00     0.002 A 
HETATM   19  C   UNL     1       6.979  33.541  63.732  1.00  0.00     0.000 A 
HETATM   20  C   UNL     1       6.083  33.595  62.669  1.00  0.00     0.002 A 
HETATM   21  C   UNL     1       6.247  32.741  61.575  1.00  0.00     0.029 A 
ENDBRANCH  13  16
ENDBRANCH  10  12
BRANCH   1  22
HETATM   22  C   UNL     1       5.564  30.596  57.512  1.00  0.00     0.083 A 
HETATM   23  O   UNL     1       5.703  31.217  56.302  1.00  0.00    -0.317 OA
HETATM   24  C   UNL     1       4.658  32.079  56.171  1.00  0.00     0.049 A 
HETATM   25  C   UNL     1       4.613  32.880  54.932  1.00  0.00     0.076 C 
HETATM   26  C   UNL     1       3.845  32.012  57.282  1.00  0.00     0.035 A 
HETATM   27  C   UNL     1       4.425  31.052  58.145  1.00  0.00     0.038 A 
ENDBRANCH   1  22
TORSDOF 3
ENDMDL
MODEL 8
REMARK VINA RESULT:      -7.9      3.162      5.678
REMARK  3 active torsions:
REMARK  status: ('A' for Active; 'I' for Inactive)
REMARK    1  A    between atoms: C_4  and  C_5 
REMARK    2  A    between atoms: C_14  and  C_15 
REMARK       I    between atoms: C_15  and  N_16 
REMARK    3  A    between atoms: N_16  and  C_17 
ROOT
HETATM    1  C   UNL     1       5.408  28.507  50.426  1.00  0.00     0.222 A 
HETATM    2  N   UNL     1       5.152  29.907  50.092  1.00  0.00    -0.090 N 
HETATM    3  C   UNL     1       4.858  30.879  51.004  1.00  0.00     0.735 A 
HETATM    4  N   UNL     1       4.771  32.023  50.371  1.00  0.00     0.030 NA
HETATM    5  N   UNL     1       5.067  31.744  49.050  1.00  0.00     0.033 NA
HETATM    6  N   UNL     1       5.335  30.453  48.878  1.00  0.00     0.012 NA
HETATM    7  N   UNL     1       4.744  30.546  52.303  1.00  0.00    -0.191 N 
HETATM    8  C   UNL     1       4.944  29.255  52.781  1.00  0.00     0.037 A 
HETATM    9  C   UNL     1       4.801  29.088  54.276  1.00  0.00     0.070 C 
HETATM   10  C   UNL     1       5.268  28.253  51.923  1.00  0.00     0.064 A 
HETATM   11  H   UNL     1       4.516  31.269  52.981  1.00  0.00     0.184 HD
ENDROOT
BRANCH  10  12
HETATM   12  C   UNL     1       5.383  26.844  52.412  1.00  0.00     0.256 C 
HETATM   13  N   UNL     1       6.675  26.428  52.659  1.00  0.00    -0.323 N 
HETATM   14  H   UNL     1       7.438  27.056  52.448  1.00  0.00     0.169 HD
HETATM   15  O   UNL     1       4.367  26.169  52.537  1.00  0.00    -0.267 OA
BRANCH  13  16
HETATM   16  C   UNL     1       7.084  25.168  53.154  1.00  0.00     0.035 A 
HETATM   17  C   UNL     1       7.658  24.167  52.370  1.00  0.00     0.029 A 
HETATM   18  C   UNL     1       8.018  22.939  52.937  1.00  0.00     0.002 A 
HETATM   19  C   UNL     1       7.810  22.705  54.294  1.00  0.00     0.000 A 
HETATM   20  C   UNL     1       7.240  23.697  55.086  1.00  0.00     0.002 A 
HETATM   21  C   UNL     1       6.875  24.921  54.518  1.00  0.00     0.029 A 
ENDBRANCH  13  16
ENDBRANCH  10  12
BRANCH   1  22
HETATM   22  C   UNL     1       4.558  27.625  49.567  1.00  0.00     0.083 A 
HETATM   23  O   UNL     1       3.270  28.040  49.378  1.00  0.00    -0.317 OA
HETATM   24  C   UNL     1       2.670  27.130  48.564  1.00  0.00     0.049 A 
HETATM   25  C   UNL     1       1.251  27.370  48.235  1.00  0.00     0.076 C 
HETATM   26  C   UNL     1       3.564  26.138  48.222  1.00  0.00     0.035 A 
HETATM   27  C   UNL     1       4.783  26.459  48.863  1.00  0.00     0.038 A 
ENDBRANCH   1  22
TORSDOF 3
ENDMDL
MODEL 9
REMARK VINA RESULT:      -7.9      6.204      8.370
REMARK  3 active torsions:
REMARK  status: ('A' for Active; 'I' for Inactive)
REMARK    1  A    between atoms: C_4  and  C_5 
REMARK    2  A    between atoms: C_14  and  C_15 
REMARK       I    between atoms: C_15  and  N_16 
REMARK    3  A    between atoms: N_16  and  C_17 
ROOT
HETATM    1  C   UNL     1       4.989  32.255  61.247  1.00  0.00     0.222 A 
HETATM    2  N   UNL     1       4.020  33.110  61.927  1.00  0.00    -0.090 N 
HETATM    3  C   UNL     1       3.305  34.104  61.324  1.00  0.00     0.735 A 
HETATM    4  N   UNL     1       2.477  34.608  62.205  1.00  0.00     0.030 NA
HETATM    5  N   UNL     1       2.662  33.870  63.358  1.00  0.00     0.033 NA
HETATM    6  N   UNL     1       3.582  32.927  63.185  1.00  0.00     0.012 NA
HETATM    7  N   UNL     1       3.520  34.367  60.021  1.00  0.00    -0.191 N 
HETATM    8  C   UNL     1       4.419  33.652  59.236  1.00  0.00     0.037 A 
HETATM    9  C   UNL     1       4.497  34.078  57.788  1.00  0.00     0.070 C 
HETATM   10  C   UNL     1       5.136  32.633  59.777  1.00  0.00     0.064 A 
HETATM   11  H   UNL     1       2.994  35.113  59.574  1.00  0.00     0.184 HD
ENDROOT
BRANCH  10  12
HETATM   12  C   UNL     1       6.179  31.927  58.969  1.00  0.00     0.256 C 
HETATM   13  N   UNL     1       5.800  30.683  58.508  1.00  0.00    -0.323 N 
HETATM   14  H   UNL     1       4.900  30.315  58.781  1.00  0.00     0.169 HD
HETATM   15  O   UNL     1       7.266  32.466  58.792  1.00  0.00    -0.267 OA
BRANCH  13  16
HETATM   16  C   UNL     1       6.561  29.807  57.700  1.00  0.00     0.035 A 
HETATM   17  C   UNL     1       7.684  29.107  58.143  1.00  0.00     0.029 A 
HETATM   18  C   UNL     1       8.391  28.272  57.271  1.00  0.00     0.002 A 
HETATM   19  C   UNL     1       7.978  28.128  55.949  1.00  0.00     0.000 A 
HETATM   20  C   UNL     1       6.859  28.819  55.496  1.00  0.00     0.002 A 
HETATM   21  C   UNL     1       6.156  29.657  56.366  1.00  0.00     0.029 A 
ENDBRANCH  13  16
ENDBRANCH  10  12
BRANCH   1  22
HETATM   22  C   UNL     1       6.274  32.245  62.014  1.00  0.00     0.083 A 
HETATM   23  O   UNL     1       7.088  31.168  61.798  1.00  0.00    -0.317 OA
HETATM   24  C   UNL     1       8.201  31.348  62.559  1.00  0.00     0.049 A 
HETATM   25  C   UNL     1       9.224  30.285  62.496  1.00  0.00     0.076 C 
HETATM   26  C   UNL     1       8.114  32.535  63.255  1.00  0.00     0.035 A 
HETATM   27  C   UNL     1       6.874  33.117  62.900  1.00  0.00     0.038 A 
ENDBRANCH   1  22
TORSDOF 3
ENDMDL
MODEL 10
REMARK VINA RESULT:      -7.9      6.229      9.657
REMARK  3 active torsions:
REMARK  status: ('A' for Active; 'I' for Inactive)
REMARK    1  A    between atoms: C_4  and  C_5 
REMARK    2  A    between atoms: C_14  and  C_15 
REMARK       I    between atoms: C_15  and  N_16 
REMARK    3  A    between atoms: N_16  and  C_17 
ROOT
HETATM    1  C   UNL     1       7.475  31.020  58.178  1.00  0.00     0.222 A 
HETATM    2  N   UNL     1       7.706  29.610  57.871  1.00  0.00    -0.090 N 
HETATM    3  C   UNL     1       6.721  28.698  57.626  1.00  0.00     0.735 A 
HETATM    4  N   UNL     1       7.285  27.559  57.308  1.00  0.00     0.030 NA
HETATM    5  N   UNL     1       8.645  27.799  57.316  1.00  0.00     0.033 NA
HETATM    6  N   UNL     1       8.910  29.064  57.627  1.00  0.00     0.012 NA
HETATM    7  N   UNL     1       5.435  29.086  57.708  1.00  0.00    -0.191 N 
HETATM    8  C   UNL     1       5.047  30.389  58.003  1.00  0.00     0.037 A 
HETATM    9  C   UNL     1       3.556  30.635  58.020  1.00  0.00     0.070 C 
HETATM   10  C   UNL     1       5.985  31.345  58.228  1.00  0.00     0.064 A 
HETATM   11  H   UNL     1       4.700  28.405  57.534  1.00  0.00     0.184 HD
ENDROOT
BRANCH  10  12
HETATM   12  C   UNL     1       5.580  32.723  58.646  1.00  0.00     0.256 C 
HETATM   13  N   UNL     1       5.286  32.850  59.987  1.00  0.00    -0.323 N 
HETATM   14  H   UNL     1       5.305  32.026  60.571  1.00  0.00     0.169 HD
HETATM   15  O   UNL     1       5.518  33.611  57.803  1.00  0.00    -0.267 OA
BRANCH  13  16
HETATM   16  C   UNL     1       4.907  34.031  60.669  1.00  0.00     0.035 A 
HETATM   17  C   UNL     1       3.830  34.837  60.301  1.00  0.00     0.029 A 
HETATM   18  C   UNL     1       3.535  36.000  61.020  1.00  0.00     0.002 A 
HETATM   19  C   UNL     1       4.313  36.364  62.116  1.00  0.00     0.000 A 
HETATM   20  C   UNL     1       5.389  35.567  62.493  1.00  0.00     0.002 A 
HETATM   21  C   UNL     1       5.687  34.408  61.771  1.00  0.00     0.029 A 
ENDBRANCH  13  16
ENDBRANCH  10  12
BRANCH   1  22
HETATM   22  C   UNL     1       8.231  31.395  59.412  1.00  0.00     0.083 A 
HETATM   23  O   UNL     1       7.597  31.145  60.597  1.00  0.00    -0.317 OA
HETATM   24  C   UNL     1       8.441  31.530  61.593  1.00  0.00     0.049 A 
HETATM   25  C   UNL     1       7.951  31.366  62.976  1.00  0.00     0.076 C 
HETATM   26  C   UNL     1       9.615  32.016  61.059  1.00  0.00     0.035 A 
HETATM   27  C   UNL     1       9.483  31.924  59.653  1.00  0.00     0.038 A 
ENDBRANCH   1  22
TORSDOF 3
ENDMDL
