MODEL 1
REMARK VINA RESULT:     -10.8      0.000      0.000
REMARK  7 active torsions:
REMARK  status: ('A' for Active; 'I' for Inactive)
REMARK    1  A    between atoms: C_3  and  C_4 
REMARK       I    between atoms: C_4  and  N_5 
REMARK    2  A    between atoms: C_8  and  N_9 
REMARK       I    between atoms: N_9  and  C_10 
REMARK    3  A    between atoms: C_10  and  C_11 
REMARK    4  A    between atoms: C_11  and  N_12 
REMARK       I    between atoms: N_15  and  C_16 
REMARK    5  A    between atoms: C_16  and  C_17 
REMARK    6  A    between atoms: C_32  and  C_33 
REMARK    7  A    between atoms: C_33  and  O_34 
ROOT
HETATM    1  C   UNL     1       5.781  30.742  56.947  1.00  0.00     0.375 C 
ENDROOT
BRANCH   1   2
HETATM    2  C   UNL     1       5.870  31.787  58.068  1.00  0.00     0.251 C 
HETATM    3  N   UNL     1       5.923  31.203  59.321  1.00  0.00    -0.319 N 
HETATM    4  H   UNL     1       5.996  30.191  59.342  1.00  0.00     0.169 HD
HETATM    5  O   UNL     1       5.998  32.981  57.814  1.00  0.00    -0.271 OA
BRANCH   3   6
HETATM    6  C   UNL     1       6.212  31.888  60.478  1.00  0.00     0.094 C 
HETATM    7  S   UNL     1       4.822  32.582  61.156  1.00  0.00    -0.065 SA
HETATM    8  C   UNL     1       5.639  32.997  62.604  1.00  0.00     0.081 C 
HETATM    9  C   UNL     1       7.006  32.753  62.495  1.00  0.00    -0.020 C 
HETATM   10  C   UNL     1       8.020  33.094  63.551  1.00  0.00     0.051 C 
HETATM   11  C   UNL     1       7.351  32.130  61.218  1.00  0.00     0.080 C 
BRANCH   8  12
HETATM   12  C   UNL     1       4.903  33.545  63.741  1.00  0.00     0.256 C 
HETATM   13  N   UNL     1       4.414  34.816  63.612  1.00  0.00    -0.365 N 
HETATM   14  H   UNL     1       4.541  35.357  62.770  1.00  0.00     0.159 HD
HETATM   15  H   UNL     1       3.890  35.200  64.385  1.00  0.00     0.159 HD
HETATM   16  O   UNL     1       4.688  32.948  64.793  1.00  0.00    -0.267 OA
ENDBRANCH   8  12
BRANCH  11  17
HETATM   17  C   UNL     1       8.717  31.838  60.780  1.00  0.00     0.296 C 
HETATM   18  O   UNL     1       9.522  31.209  61.458  1.00  0.00    -0.259 OA
BRANCH  17  19
HETATM   19  O   UNL     1       9.030  32.472  59.609  1.00  0.00    -0.322 OA
HETATM   20  C   UNL     1       9.764  31.661  58.694  1.00  0.00     0.213 C 
ENDBRANCH  17  19
ENDBRANCH  11  17
ENDBRANCH   3   6
ENDBRANCH   1   2
BRANCH   1  21
HETATM   21  N   UNL     1       4.695  29.772  57.213  1.00  0.00     0.100 N 
HETATM   22  C   UNL     1       3.726  29.726  56.090  1.00  0.00     0.293 C 
HETATM   23  C   UNL     1       4.254  29.085  54.790  1.00  0.00     0.156 C 
HETATM   24  N   UNL     1       4.934  27.804  55.007  1.00  0.00    -0.344 N 
HETATM   25  C   UNL     1       5.045  26.946  53.900  1.00  0.00     0.262 C 
HETATM   26  C   UNL     1       5.815  27.730  56.178  1.00  0.00     0.156 C 
HETATM   27  O   UNL     1       4.459  27.191  52.846  1.00  0.00    -0.267 OA
HETATM   28  C   UNL     1       5.221  28.409  57.424  1.00  0.00     0.293 C 
BRANCH  25  29
HETATM   29  C   UNL     1       5.836  25.745  54.051  1.00  0.00     0.096 A 
HETATM   30  S   UNL     1       5.972  24.995  55.574  1.00  0.00    -0.082 SA
HETATM   31  C   UNL     1       7.019  23.770  54.965  1.00  0.00     0.019 A 
HETATM   32  C   UNL     1       7.307  23.969  53.610  1.00  0.00     0.004 A 
HETATM   33  C   UNL     1       7.559  22.688  55.689  1.00  0.00     0.043 A 
HETATM   34  C   UNL     1       6.616  25.125  53.101  1.00  0.00     0.068 A 
HETATM   35  C   UNL     1       8.187  23.050  52.980  1.00  0.00     0.016 A 
HETATM   36 CL   UNL     1       6.753  25.637  51.466  1.00  0.00    -0.082 Cl
HETATM   37  C   UNL     1       8.731  21.977  53.694  1.00  0.00     0.025 A 
HETATM   38  C   UNL     1       8.411  21.801  55.031  1.00  0.00     0.035 A 
HETATM   39 CL   UNL     1       9.076  20.469  55.896  1.00  0.00    -0.084 Cl
ENDBRANCH  25  29
ENDBRANCH   1  21
TORSDOF 7
ENDMDL
MODEL 2
REMARK VINA RESULT:     -10.7      4.264     10.909
REMARK  7 active torsions:
REMARK  status: ('A' for Active; 'I' for Inactive)
REMARK    1  A    between atoms: C_3  and  C_4 
REMARK       I    between atoms: C_4  and  N_5 
REMARK    2  A    between atoms: C_8  and  N_9 
REMARK       I    between atoms: N_9  and  C_10 
REMARK    3  A    between atoms: C_10  and  C_11 
REMARK    4  A    between atoms: C_11  and  N_12 
REMARK       I    between atoms: N_15  and  C_16 
REMARK    5  A    between atoms: C_16  and  C_17 
REMARK    6  A    between atoms: C_32  and  C_33 
REMARK    7  A    between atoms: C_33  and  O_34 
ROOT
HETATM    1  C   UNL     1       6.000  27.371  56.584  1.00  0.00     0.375 C 
ENDROOT
BRANCH   1   2
HETATM    2  C   UNL     1       6.100  26.090  55.745  1.00  0.00     0.251 C 
HETATM    3  N   UNL     1       7.388  25.587  55.715  1.00  0.00    -0.319 N 
HETATM    4  H   UNL     1       8.065  26.050  56.311  1.00  0.00     0.169 HD
HETATM    5  O   UNL     1       5.098  25.556  55.280  1.00  0.00    -0.271 OA
BRANCH   3   6
HETATM    6  C   UNL     1       7.719  24.348  55.215  1.00  0.00     0.094 C 
HETATM    7  S   UNL     1       8.250  23.304  56.440  1.00  0.00    -0.065 SA
HETATM    8  C   UNL     1       8.223  21.942  55.399  1.00  0.00     0.081 C 
HETATM    9  C   UNL     1       7.969  22.322  54.083  1.00  0.00    -0.020 C 
HETATM   10  C   UNL     1       7.971  21.385  52.908  1.00  0.00     0.051 C 
HETATM   11  C   UNL     1       7.708  23.757  53.969  1.00  0.00     0.080 C 
BRANCH   8  12
HETATM   12  C   UNL     1       8.463  20.600  55.925  1.00  0.00     0.256 C 
HETATM   13  N   UNL     1       9.761  20.166  55.952  1.00  0.00    -0.365 N 
HETATM   14  H   UNL     1      10.526  20.740  55.633  1.00  0.00     0.159 HD
HETATM   15  H   UNL     1       9.941  19.246  56.328  1.00  0.00     0.159 HD
HETATM   16  O   UNL     1       7.592  19.844  56.348  1.00  0.00    -0.267 OA
ENDBRANCH   8  12
BRANCH  11  17
HETATM   17  C   UNL     1       7.500  24.463  52.704  1.00  0.00     0.296 C 
HETATM   18  O   UNL     1       8.387  25.076  52.119  1.00  0.00    -0.259 OA
BRANCH  17  19
HETATM   19  O   UNL     1       6.182  24.483  52.336  1.00  0.00    -0.322 OA
HETATM   20  C   UNL     1       5.781  25.696  51.701  1.00  0.00     0.213 C 
ENDBRANCH  17  19
ENDBRANCH  11  17
ENDBRANCH   3   6
ENDBRANCH   1   2
BRANCH   1  21
HETATM   21  N   UNL     1       7.261  28.144  56.522  1.00  0.00     0.100 N 
HETATM   22  C   UNL     1       7.104  29.367  55.696  1.00  0.00     0.293 C 
HETATM   23  C   UNL     1       6.222  30.471  56.315  1.00  0.00     0.156 C 
HETATM   24  N   UNL     1       6.555  30.767  57.711  1.00  0.00    -0.344 N 
HETATM   25  C   UNL     1       6.147  32.014  58.213  1.00  0.00     0.262 C 
HETATM   26  C   UNL     1       6.851  29.611  58.565  1.00  0.00     0.156 C 
HETATM   27  O   UNL     1       5.676  32.874  57.469  1.00  0.00    -0.267 OA
HETATM   28  C   UNL     1       7.719  28.551  57.865  1.00  0.00     0.293 C 
BRANCH  25  29
HETATM   29  C   UNL     1       6.334  32.272  59.624  1.00  0.00     0.096 A 
HETATM   30  S   UNL     1       5.004  32.696  60.599  1.00  0.00    -0.082 SA
HETATM   31  C   UNL     1       5.986  32.858  62.004  1.00  0.00     0.019 A 
HETATM   32  C   UNL     1       7.338  32.642  61.713  1.00  0.00     0.004 A 
HETATM   33  C   UNL     1       5.549  33.177  63.306  1.00  0.00     0.043 A 
HETATM   34  C   UNL     1       7.518  32.310  60.323  1.00  0.00     0.068 A 
HETATM   35  C   UNL     1       8.272  32.775  62.774  1.00  0.00     0.016 A 
HETATM   36 CL   UNL     1       9.062  31.977  59.646  1.00  0.00    -0.082 Cl
HETATM   37  C   UNL     1       7.845  33.096  64.066  1.00  0.00     0.025 A 
HETATM   38  C   UNL     1       6.497  33.288  64.323  1.00  0.00     0.035 A 
HETATM   39 CL   UNL     1       5.982  33.671  65.920  1.00  0.00    -0.084 Cl
ENDBRANCH  25  29
ENDBRANCH   1  21
TORSDOF 7
ENDMDL
MODEL 3
REMARK VINA RESULT:     -10.3      2.150      2.723
REMARK  7 active torsions:
REMARK  status: ('A' for Active; 'I' for Inactive)
REMARK    1  A    between atoms: C_3  and  C_4 
REMARK       I    between atoms: C_4  and  N_5 
REMARK    2  A    between atoms: C_8  and  N_9 
REMARK       I    between atoms: N_9  and  C_10 
REMARK    3  A    between atoms: C_10  and  C_11 
REMARK    4  A    between atoms: C_11  and  N_12 
REMARK       I    between atoms: N_15  and  C_16 
REMARK    5  A    between atoms: C_16  and  C_17 
REMARK    6  A    between atoms: C_32  and  C_33 
REMARK    7  A    between atoms: C_33  and  O_34 
ROOT
HETATM    1  C   UNL     1       3.529  30.806  58.422  1.00  0.00     0.375 C 
ENDROOT
BRANCH   1   2
HETATM    2  C   UNL     1       3.652  31.964  59.422  1.00  0.00     0.251 C 
HETATM    3  N   UNL     1       4.250  31.569  60.606  1.00  0.00    -0.319 N 
HETATM    4  H   UNL     1       4.613  30.622  60.631  1.00  0.00     0.169 HD
HETATM    5  O   UNL     1       3.349  33.111  59.106  1.00  0.00    -0.271 OA
BRANCH   3   6
HETATM    6  C   UNL     1       4.670  32.440  61.584  1.00  0.00     0.094 C 
HETATM    7  S   UNL     1       3.375  33.329  62.224  1.00  0.00    -0.065 SA
HETATM    8  C   UNL     1       4.334  33.959  63.497  1.00  0.00     0.081 C 
HETATM    9  C   UNL     1       5.675  33.618  63.331  1.00  0.00    -0.020 C 
HETATM   10  C   UNL     1       6.792  34.090  64.219  1.00  0.00     0.051 C 
HETATM   11  C   UNL     1       5.878  32.748  62.173  1.00  0.00     0.080 C 
BRANCH   8  12
HETATM   12  C   UNL     1       3.726  34.752  64.563  1.00  0.00     0.256 C 
HETATM   13  N   UNL     1       3.486  36.072  64.297  1.00  0.00    -0.365 N 
HETATM   14  H   UNL     1       3.708  36.489  63.405  1.00  0.00     0.159 HD
HETATM   15  H   UNL     1       3.052  36.627  65.020  1.00  0.00     0.159 HD
HETATM   16  O   UNL     1       3.410  34.319  65.668  1.00  0.00    -0.267 OA
ENDBRANCH   8  12
BRANCH  11  17
HETATM   17  C   UNL     1       7.187  32.300  61.693  1.00  0.00     0.296 C 
HETATM   18  O   UNL     1       7.734  32.760  60.696  1.00  0.00    -0.259 OA
BRANCH  17  19
HETATM   19  O   UNL     1       7.649  31.217  62.391  1.00  0.00    -0.322 OA
HETATM   20  C   UNL     1       8.866  30.680  61.879  1.00  0.00     0.213 C 
ENDBRANCH  17  19
ENDBRANCH  11  17
ENDBRANCH   3   6
ENDBRANCH   1   2
BRANCH   1  21
HETATM   21  N   UNL     1       4.247  31.114  57.165  1.00  0.00     0.100 N 
HETATM   22  C   UNL     1       5.622  31.604  57.436  1.00  0.00     0.293 C 
HETATM   23  C   UNL     1       6.605  30.544  57.975  1.00  0.00     0.156 C 
HETATM   24  N   UNL     1       6.587  29.292  57.211  1.00  0.00    -0.344 N 
HETATM   25  C   UNL     1       7.716  28.463  57.320  1.00  0.00     0.262 C 
HETATM   26  C   UNL     1       5.267  28.808  56.794  1.00  0.00     0.156 C 
HETATM   27  O   UNL     1       8.731  28.846  57.901  1.00  0.00    -0.267 OA
HETATM   28  C   UNL     1       4.344  29.930  56.288  1.00  0.00     0.293 C 
BRANCH  25  29
HETATM   29  C   UNL     1       7.663  27.160  56.695  1.00  0.00     0.096 A 
HETATM   30  S   UNL     1       7.789  25.751  57.643  1.00  0.00    -0.082 SA
HETATM   31  C   UNL     1       7.687  24.721  56.266  1.00  0.00     0.019 A 
HETATM   32  C   UNL     1       7.612  25.459  55.079  1.00  0.00     0.004 A 
HETATM   33  C   UNL     1       7.685  23.312  56.267  1.00  0.00     0.043 A 
HETATM   34  C   UNL     1       7.607  26.873  55.350  1.00  0.00     0.068 A 
HETATM   35  C   UNL     1       7.555  24.739  53.856  1.00  0.00     0.016 A 
HETATM   36 CL   UNL     1       7.515  28.052  54.104  1.00  0.00    -0.082 Cl
HETATM   37  C   UNL     1       7.559  23.340  53.850  1.00  0.00     0.025 A 
HETATM   38  C   UNL     1       7.617  22.641  55.045  1.00  0.00     0.035 A 
HETATM   39 CL   UNL     1       7.608  20.920  55.026  1.00  0.00    -0.084 Cl
ENDBRANCH  25  29
ENDBRANCH   1  21
TORSDOF 7
ENDMDL
MODEL 4
REMARK VINA RESULT:     -10.0      4.625     10.921
REMARK  7 active torsions:
REMARK  status: ('A' for Active; 'I' for Inactive)
REMARK    1  A    between atoms: C_3  and  C_4 
REMARK       I    between atoms: C_4  and  N_5 
REMARK    2  A    between atoms: C_8  and  N_9 
REMARK       I    between atoms: N_9  and  C_10 
REMARK    3  A    between atoms: C_10  and  C_11 
REMARK    4  A    between atoms: C_11  and  N_12 
REMARK       I    between atoms: N_15  and  C_16 
REMARK    5  A    between atoms: C_16  and  C_17 
REMARK    6  A    between atoms: C_32  and  C_33 
REMARK    7  A    between atoms: C_33  and  O_34 
ROOT
HETATM    1  C   UNL     1       6.789  27.678  57.421  1.00  0.00     0.375 C 
ENDROOT
BRANCH   1   2
HETATM    2  C   UNL     1       6.604  26.402  56.587  1.00  0.00     0.251 C 
HETATM    3  N   UNL     1       7.810  25.904  56.125  1.00  0.00    -0.319 N 
HETATM    4  H   UNL     1       8.646  26.366  56.464  1.00  0.00     0.169 HD
HETATM    5  O   UNL     1       5.505  25.867  56.480  1.00  0.00    -0.271 OA
BRANCH   3   6
HETATM    6  C   UNL     1       7.957  24.670  55.535  1.00  0.00     0.094 C 
HETATM    7  S   UNL     1       8.502  23.510  56.644  1.00  0.00    -0.065 SA
HETATM    8  C   UNL     1       8.226  22.219  55.550  1.00  0.00     0.081 C 
HETATM    9  C   UNL     1       7.876  22.697  54.289  1.00  0.00    -0.020 C 
HETATM   10  C   UNL     1       7.658  21.833  53.079  1.00  0.00     0.051 C 
HETATM   11  C   UNL     1       7.754  24.154  54.272  1.00  0.00     0.080 C 
BRANCH   8  12
HETATM   12  C   UNL     1       8.381  20.832  55.984  1.00  0.00     0.256 C 
HETATM   13  N   UNL     1       9.650  20.320  55.989  1.00  0.00    -0.365 N 
HETATM   14  H   UNL     1      10.452  20.869  55.718  1.00  0.00     0.159 HD
HETATM   15  H   UNL     1       9.772  19.368  56.302  1.00  0.00     0.159 HD
HETATM   16  O   UNL     1       7.462  20.103  56.347  1.00  0.00    -0.267 OA
ENDBRANCH   8  12
BRANCH  11  17
HETATM   17  C   UNL     1       7.487  24.949  53.071  1.00  0.00     0.296 C 
HETATM   18  O   UNL     1       8.278  25.049  52.139  1.00  0.00    -0.259 OA
BRANCH  17  19
HETATM   19  O   UNL     1       6.333  25.676  53.180  1.00  0.00    -0.322 OA
HETATM   20  C   UNL     1       5.152  24.924  52.914  1.00  0.00     0.213 C 
ENDBRANCH  17  19
ENDBRANCH  11  17
ENDBRANCH   3   6
ENDBRANCH   1   2
BRANCH   1  21
HETATM   21  N   UNL     1       7.070  28.842  56.551  1.00  0.00     0.100 N 
HETATM   22  C   UNL     1       5.993  29.039  55.549  1.00  0.00     0.293 C 
HETATM   23  C   UNL     1       4.647  29.534  56.118  1.00  0.00     0.156 C 
HETATM   24  N   UNL     1       4.785  30.669  57.035  1.00  0.00    -0.344 N 
HETATM   25  C   UNL     1       3.644  31.461  57.245  1.00  0.00     0.262 C 
HETATM   26  C   UNL     1       5.909  30.607  57.976  1.00  0.00     0.156 C 
HETATM   27  O   UNL     1       2.628  31.302  56.569  1.00  0.00    -0.267 OA
HETATM   28  C   UNL     1       7.207  30.087  57.333  1.00  0.00     0.293 C 
BRANCH  25  29
HETATM   29  C   UNL     1       3.713  32.495  58.254  1.00  0.00     0.096 A 
HETATM   30  S   UNL     1       3.328  32.137  59.874  1.00  0.00    -0.082 SA
HETATM   31  C   UNL     1       3.593  33.763  60.378  1.00  0.00     0.019 A 
HETATM   32  C   UNL     1       3.922  34.588  59.296  1.00  0.00     0.004 A 
HETATM   33  C   UNL     1       3.497  34.264  61.692  1.00  0.00     0.043 A 
HETATM   34  C   UNL     1       3.979  33.833  58.071  1.00  0.00     0.068 A 
HETATM   35  C   UNL     1       4.138  35.967  59.558  1.00  0.00     0.016 A 
HETATM   36 CL   UNL     1       4.366  34.554  56.560  1.00  0.00    -0.082 Cl
HETATM   37  C   UNL     1       4.039  36.471  60.860  1.00  0.00     0.025 A 
HETATM   38  C   UNL     1       3.727  35.622  61.910  1.00  0.00     0.035 A 
HETATM   39 CL   UNL     1       3.620  36.252  63.508  1.00  0.00    -0.084 Cl
ENDBRANCH  25  29
ENDBRANCH   1  21
TORSDOF 7
ENDMDL
MODEL 5
REMARK VINA RESULT:      -9.8      4.659     11.017
REMARK  7 active torsions:
REMARK  status: ('A' for Active; 'I' for Inactive)
REMARK    1  A    between atoms: C_3  and  C_4 
REMARK       I    between atoms: C_4  and  N_5 
REMARK    2  A    between atoms: C_8  and  N_9 
REMARK       I    between atoms: N_9  and  C_10 
REMARK    3  A    between atoms: C_10  and  C_11 
REMARK    4  A    between atoms: C_11  and  N_12 
REMARK       I    between atoms: N_15  and  C_16 
REMARK    5  A    between atoms: C_16  and  C_17 
REMARK    6  A    between atoms: C_32  and  C_33 
REMARK    7  A    between atoms: C_33  and  O_34 
ROOT
HETATM    1  C   UNL     1       7.763  29.309  58.444  1.00  0.00     0.375 C 
ENDROOT
BRANCH   1   2
HETATM    2  C   UNL     1       8.289  28.274  57.438  1.00  0.00     0.251 C 
HETATM    3  N   UNL     1       7.480  27.154  57.372  1.00  0.00    -0.319 N 
HETATM    4  H   UNL     1       6.615  27.194  57.900  1.00  0.00     0.169 HD
HETATM    5  O   UNL     1       9.252  28.521  56.719  1.00  0.00    -0.271 OA
BRANCH   3   6
HETATM    6  C   UNL     1       7.599  26.174  56.414  1.00  0.00     0.094 C 
HETATM    7  S   UNL     1       8.393  24.805  57.019  1.00  0.00    -0.065 SA
HETATM    8  C   UNL     1       8.014  23.874  55.631  1.00  0.00     0.081 C 
HETATM    9  C   UNL     1       7.427  24.663  54.644  1.00  0.00    -0.020 C 
HETATM   10  C   UNL     1       7.060  24.178  53.269  1.00  0.00     0.051 C 
HETATM   11  C   UNL     1       7.216  26.038  55.096  1.00  0.00     0.080 C 
BRANCH   8  12
HETATM   12  C   UNL     1       8.322  22.446  55.586  1.00  0.00     0.256 C 
HETATM   13  N   UNL     1       9.514  22.085  55.019  1.00  0.00    -0.365 N 
HETATM   14  H   UNL     1      10.163  22.766  54.653  1.00  0.00     0.159 HD
HETATM   15  H   UNL     1       9.746  21.103  54.996  1.00  0.00     0.159 HD
HETATM   16  O   UNL     1       7.598  21.556  56.024  1.00  0.00    -0.267 OA
ENDBRANCH   8  12
BRANCH  11  17
HETATM   17  C   UNL     1       6.703  27.118  54.252  1.00  0.00     0.296 C 
HETATM   18  O   UNL     1       7.418  27.977  53.746  1.00  0.00    -0.259 OA
BRANCH  17  19
HETATM   19  O   UNL     1       5.335  27.142  54.220  1.00  0.00    -0.322 OA
HETATM   20  C   UNL     1       4.763  28.226  54.948  1.00  0.00     0.213 C 
ENDBRANCH  17  19
ENDBRANCH  11  17
ENDBRANCH   3   6
ENDBRANCH   1   2
BRANCH   1  21
HETATM   21  N   UNL     1       7.713  30.658  57.837  1.00  0.00     0.100 N 
HETATM   22  C   UNL     1       6.472  30.847  57.045  1.00  0.00     0.293 C 
HETATM   23  C   UNL     1       5.173  30.950  57.870  1.00  0.00     0.156 C 
HETATM   24  N   UNL     1       5.274  31.878  59.001  1.00  0.00    -0.344 N 
HETATM   25  C   UNL     1       4.069  32.378  59.523  1.00  0.00     0.262 C 
HETATM   26  C   UNL     1       6.529  31.841  59.759  1.00  0.00     0.156 C 
HETATM   27  O   UNL     1       2.997  32.171  58.957  1.00  0.00    -0.267 OA
HETATM   28  C   UNL     1       7.773  31.719  58.861  1.00  0.00     0.293 C 
BRANCH  25  29
HETATM   29  C   UNL     1       4.133  33.178  60.726  1.00  0.00     0.096 A 
HETATM   30  S   UNL     1       4.139  32.426  62.254  1.00  0.00    -0.082 SA
HETATM   31  C   UNL     1       4.184  33.935  63.084  1.00  0.00     0.019 A 
HETATM   32  C   UNL     1       4.139  35.012  62.191  1.00  0.00     0.004 A 
HETATM   33  C   UNL     1       4.248  34.128  64.478  1.00  0.00     0.043 A 
HETATM   34  C   UNL     1       4.102  34.551  60.828  1.00  0.00     0.068 A 
HETATM   35  C   UNL     1       4.137  36.323  62.737  1.00  0.00     0.016 A 
HETATM   36 CL   UNL     1       4.050  35.627  59.490  1.00  0.00    -0.082 Cl
HETATM   37  C   UNL     1       4.194  36.521  64.121  1.00  0.00     0.025 A 
HETATM   38  C   UNL     1       4.255  35.432  64.975  1.00  0.00     0.035 A 
HETATM   39 CL   UNL     1       4.338  35.688  66.676  1.00  0.00    -0.084 Cl
ENDBRANCH  25  29
ENDBRANCH   1  21
TORSDOF 7
ENDMDL
MODEL 6
REMARK VINA RESULT:      -9.6      1.793      2.082
REMARK  7 active torsions:
REMARK  status: ('A' for Active; 'I' for Inactive)
REMARK    1  A    between atoms: C_3  and  C_4 
REMARK       I    between atoms: C_4  and  N_5 
REMARK    2  A    between atoms: C_8  and  N_9 
REMARK       I    between atoms: N_9  and  C_10 
REMARK    3  A    between atoms: C_10  and  C_11 
REMARK    4  A    between atoms: C_11  and  N_12 
REMARK       I    between atoms: N_15  and  C_16 
REMARK    5  A    between atoms: C_16  and  C_17 
REMARK    6  A    between atoms: C_32  and  C_33 
REMARK    7  A    between atoms: C_33  and  O_34 
ROOT
HETATM    1  C   UNL     1       4.169  32.029  56.790  1.00  0.00     0.375 C 
ENDROOT
BRANCH   1   2
HETATM    2  C   UNL     1       4.415  31.909  58.301  1.00  0.00     0.251 C 
HETATM    3  N   UNL     1       5.593  32.524  58.686  1.00  0.00    -0.319 N 
HETATM    4  H   UNL     1       6.082  33.047  57.968  1.00  0.00     0.169 HD
HETATM    5  O   UNL     1       3.571  31.419  59.044  1.00  0.00    -0.271 OA
BRANCH   3   6
HETATM    6  C   UNL     1       5.952  32.748  59.995  1.00  0.00     0.094 C 
HETATM    7  S   UNL     1       4.715  33.523  60.856  1.00  0.00    -0.065 SA
HETATM    8  C   UNL     1       5.504  33.285  62.360  1.00  0.00     0.081 C 
HETATM    9  C   UNL     1       6.783  32.762  62.176  1.00  0.00    -0.020 C 
HETATM   10  C   UNL     1       7.773  32.523  63.281  1.00  0.00     0.051 C 
HETATM   11  C   UNL     1       7.062  32.480  60.769  1.00  0.00     0.080 C 
BRANCH   8  12
HETATM   12  C   UNL     1       4.837  33.633  63.612  1.00  0.00     0.256 C 
HETATM   13  N   UNL     1       4.444  34.934  63.767  1.00  0.00    -0.365 N 
HETATM   14  H   UNL     1       4.595  35.630  63.052  1.00  0.00     0.159 HD
HETATM   15  H   UNL     1       3.968  35.184  64.622  1.00  0.00     0.159 HD
HETATM   16  O   UNL     1       4.600  32.845  64.524  1.00  0.00    -0.267 OA
ENDBRANCH   8  12
BRANCH  11  17
HETATM   17  C   UNL     1       8.351  32.011  60.258  1.00  0.00     0.296 C 
HETATM   18  O   UNL     1       9.168  32.746  59.713  1.00  0.00    -0.259 OA
BRANCH  17  19
HETATM   19  O   UNL     1       8.467  30.649  60.323  1.00  0.00    -0.322 OA
HETATM   20  C   UNL     1       8.436  30.008  59.050  1.00  0.00     0.213 C 
ENDBRANCH  17  19
ENDBRANCH  11  17
ENDBRANCH   3   6
ENDBRANCH   1   2
BRANCH   1  21
HETATM   21  N   UNL     1       3.214  30.996  56.327  1.00  0.00     0.100 N 
HETATM   22  C   UNL     1       3.136  30.960  54.845  1.00  0.00     0.293 C 
HETATM   23  C   UNL     1       4.389  30.409  54.133  1.00  0.00     0.156 C 
HETATM   24  N   UNL     1       4.881  29.153  54.708  1.00  0.00    -0.344 N 
HETATM   25  C   UNL     1       5.701  28.357  53.891  1.00  0.00     0.262 C 
HETATM   26  C   UNL     1       4.869  29.064  56.172  1.00  0.00     0.156 C 
HETATM   27  O   UNL     1       5.864  28.626  52.701  1.00  0.00    -0.267 OA
HETATM   28  C   UNL     1       3.594  29.651  56.802  1.00  0.00     0.293 C 
BRANCH  25  29
HETATM   29  C   UNL     1       6.316  27.189  54.481  1.00  0.00     0.096 A 
HETATM   30  S   UNL     1       5.640  25.647  54.228  1.00  0.00    -0.082 SA
HETATM   31  C   UNL     1       6.829  24.879  55.209  1.00  0.00     0.019 A 
HETATM   32  C   UNL     1       7.707  25.810  55.773  1.00  0.00     0.004 A 
HETATM   33  C   UNL     1       6.949  23.497  55.460  1.00  0.00     0.043 A 
HETATM   34  C   UNL     1       7.387  27.147  55.344  1.00  0.00     0.068 A 
HETATM   35  C   UNL     1       8.725  25.321  56.636  1.00  0.00     0.016 A 
HETATM   36 CL   UNL     1       8.285  28.520  55.854  1.00  0.00    -0.082 Cl
HETATM   37  C   UNL     1       8.846  23.951  56.894  1.00  0.00     0.025 A 
HETATM   38  C   UNL     1       7.968  23.055  56.304  1.00  0.00     0.035 A 
HETATM   39 CL   UNL     1       8.135  21.371  56.619  1.00  0.00    -0.084 Cl
ENDBRANCH  25  29
ENDBRANCH   1  21
TORSDOF 7
ENDMDL
MODEL 7
REMARK VINA RESULT:      -9.4      4.593      5.091
REMARK  7 active torsions:
REMARK  status: ('A' for Active; 'I' for Inactive)
REMARK    1  A    between atoms: C_3  and  C_4 
REMARK       I    between atoms: C_4  and  N_5 
REMARK    2  A    between atoms: C_8  and  N_9 
REMARK       I    between atoms: N_9  and  C_10 
REMARK    3  A    between atoms: C_10  and  C_11 
REMARK    4  A    between atoms: C_11  and  N_12 
REMARK       I    between atoms: N_15  and  C_16 
REMARK    5  A    between atoms: C_16  and  C_17 
REMARK    6  A    between atoms: C_32  and  C_33 
REMARK    7  A    between atoms: C_33  and  O_34 
ROOT
HETATM    1  C   UNL     1       5.279  31.275  56.047  1.00  0.00     0.375 C 
ENDROOT
BRANCH   1   2
HETATM    2  C   UNL     1       5.477  32.122  57.313  1.00  0.00     0.251 C 
HETATM    3  N   UNL     1       5.731  31.341  58.427  1.00  0.00    -0.319 N 
HETATM    4  H   UNL     1       5.853  30.348  58.260  1.00  0.00     0.169 HD
HETATM    5  O   UNL     1       5.514  33.347  57.258  1.00  0.00    -0.271 OA
BRANCH   3   6
HETATM    6  C   UNL     1       6.149  31.842  59.638  1.00  0.00     0.094 C 
HETATM    7  S   UNL     1       4.852  32.463  60.536  1.00  0.00    -0.065 SA
HETATM    8  C   UNL     1       5.810  32.641  61.946  1.00  0.00     0.081 C 
HETATM    9  C   UNL     1       7.152  32.381  61.675  1.00  0.00    -0.020 C 
HETATM   10  C   UNL     1       8.269  32.538  62.669  1.00  0.00     0.051 C 
HETATM   11  C   UNL     1       7.358  31.944  60.295  1.00  0.00     0.080 C 
BRANCH   8  12
HETATM   12  C   UNL     1       5.200  33.033  63.214  1.00  0.00     0.256 C 
HETATM   13  N   UNL     1       5.144  34.372  63.489  1.00  0.00    -0.365 N 
HETATM   14  H   UNL     1       5.497  35.068  62.849  1.00  0.00     0.159 HD
HETATM   15  H   UNL     1       4.711  34.657  64.356  1.00  0.00     0.159 HD
HETATM   16  O   UNL     1       4.732  32.254  64.040  1.00  0.00    -0.267 OA
ENDBRANCH   8  12
BRANCH  11  17
HETATM   17  C   UNL     1       8.667  31.686  59.694  1.00  0.00     0.296 C 
HETATM   18  O   UNL     1       9.443  32.576  59.359  1.00  0.00    -0.259 OA
BRANCH  17  19
HETATM   19  O   UNL     1       8.854  30.360  59.414  1.00  0.00    -0.322 OA
HETATM   20  C   UNL     1       9.222  30.104  58.060  1.00  0.00     0.213 C 
ENDBRANCH  17  19
ENDBRANCH  11  17
ENDBRANCH   3   6
ENDBRANCH   1   2
BRANCH   1  21
HETATM   21  N   UNL     1       3.883  30.792  55.948  1.00  0.00     0.100 N 
HETATM   22  C   UNL     1       2.971  31.870  55.490  1.00  0.00     0.293 C 
HETATM   23  C   UNL     1       3.142  32.297  54.017  1.00  0.00     0.156 C 
HETATM   24  N   UNL     1       3.198  31.165  53.086  1.00  0.00    -0.344 N 
HETATM   25  C   UNL     1       2.903  31.434  51.740  1.00  0.00     0.262 C 
HETATM   26  C   UNL     1       3.980  30.004  53.526  1.00  0.00     0.156 C 
HETATM   27  O   UNL     1       2.464  32.530  51.392  1.00  0.00    -0.267 OA
HETATM   28  C   UNL     1       3.765  29.658  55.009  1.00  0.00     0.293 C 
BRANCH  25  29
HETATM   29  C   UNL     1       3.092  30.369  50.779  1.00  0.00     0.096 A 
HETATM   30  S   UNL     1       1.819  29.291  50.435  1.00  0.00    -0.082 SA
HETATM   31  C   UNL     1       2.781  28.386  49.329  1.00  0.00     0.019 A 
HETATM   32  C   UNL     1       4.090  28.878  49.266  1.00  0.00     0.004 A 
HETATM   33  C   UNL     1       2.366  27.278  48.564  1.00  0.00     0.043 A 
HETATM   34  C   UNL     1       4.251  30.024  50.122  1.00  0.00     0.068 A 
HETATM   35  C   UNL     1       5.007  28.206  48.415  1.00  0.00     0.016 A 
HETATM   36 CL   UNL     1       5.742  30.867  50.265  1.00  0.00    -0.082 Cl
HETATM   37  C   UNL     1       4.603  27.102  47.657  1.00  0.00     0.025 A 
HETATM   38  C   UNL     1       3.294  26.653  47.731  1.00  0.00     0.035 A 
HETATM   39 CL   UNL     1       2.805  25.301  46.784  1.00  0.00    -0.084 Cl
ENDBRANCH  25  29
ENDBRANCH   1  21
TORSDOF 7
ENDMDL
MODEL 8
REMARK VINA RESULT:      -9.4      4.634     10.950
REMARK  7 active torsions:
REMARK  status: ('A' for Active; 'I' for Inactive)
REMARK    1  A    between atoms: C_3  and  C_4 
REMARK       I    between atoms: C_4  and  N_5 
REMARK    2  A    between atoms: C_8  and  N_9 
REMARK       I    between atoms: N_9  and  C_10 
REMARK    3  A    between atoms: C_10  and  C_11 
REMARK    4  A    between atoms: C_11  and  N_12 
REMARK       I    between atoms: N_15  and  C_16 
REMARK    5  A    between atoms: C_16  and  C_17 
REMARK    6  A    between atoms: C_32  and  C_33 
REMARK    7  A    between atoms: C_33  and  O_34 
ROOT
HETATM    1  C   UNL     1       7.997  29.595  58.739  1.00  0.00     0.375 C 
ENDROOT
BRANCH   1   2
HETATM    2  C   UNL     1       8.015  28.591  57.577  1.00  0.00     0.251 C 
HETATM    3  N   UNL     1       6.875  27.808  57.549  1.00  0.00    -0.319 N 
HETATM    4  H   UNL     1       6.147  28.051  58.212  1.00  0.00     0.169 HD
HETATM    5  O   UNL     1       8.907  28.612  56.735  1.00  0.00    -0.271 OA
BRANCH   3   6
HETATM    6  C   UNL     1       6.538  26.979  56.504  1.00  0.00     0.094 C 
HETATM    7  S   UNL     1       5.315  27.654  55.543  1.00  0.00    -0.065 SA
HETATM    8  C   UNL     1       5.499  26.457  54.329  1.00  0.00     0.081 C 
HETATM    9  C   UNL     1       6.377  25.456  54.742  1.00  0.00    -0.020 C 
HETATM   10  C   UNL     1       6.686  24.214  53.955  1.00  0.00     0.051 C 
HETATM   11  C   UNL     1       6.963  25.748  56.050  1.00  0.00     0.080 C 
BRANCH   8  12
HETATM   12  C   UNL     1       4.771  26.561  53.067  1.00  0.00     0.256 C 
HETATM   13  N   UNL     1       3.531  27.137  53.110  1.00  0.00    -0.365 N 
HETATM   14  H   UNL     1       3.131  27.487  53.967  1.00  0.00     0.159 HD
HETATM   15  H   UNL     1       3.024  27.229  52.241  1.00  0.00     0.159 HD
HETATM   16  O   UNL     1       5.193  26.177  51.979  1.00  0.00    -0.267 OA
ENDBRANCH   8  12
BRANCH  11  17
HETATM   17  C   UNL     1       7.849  24.841  56.781  1.00  0.00     0.296 C 
HETATM   18  O   UNL     1       8.945  25.177  57.220  1.00  0.00    -0.259 OA
BRANCH  17  19
HETATM   19  O   UNL     1       7.383  23.555  56.784  1.00  0.00    -0.322 OA
HETATM   20  C   UNL     1       8.413  22.569  56.771  1.00  0.00     0.213 C 
ENDBRANCH  17  19
ENDBRANCH  11  17
ENDBRANCH   3   6
ENDBRANCH   1   2
BRANCH   1  21
HETATM   21  N   UNL     1       7.915  30.985  58.235  1.00  0.00     0.100 N 
HETATM   22  C   UNL     1       6.639  31.223  57.516  1.00  0.00     0.293 C 
HETATM   23  C   UNL     1       5.378  31.257  58.405  1.00  0.00     0.156 C 
HETATM   24  N   UNL     1       5.528  32.101  59.595  1.00  0.00    -0.344 N 
HETATM   25  C   UNL     1       4.347  32.554  60.206  1.00  0.00     0.262 C 
HETATM   26  C   UNL     1       6.816  32.017  60.290  1.00  0.00     0.156 C 
HETATM   27  O   UNL     1       3.251  32.382  59.675  1.00  0.00    -0.267 OA
HETATM   28  C   UNL     1       8.018  31.969  59.331  1.00  0.00     0.293 C 
BRANCH  25  29
HETATM   29  C   UNL     1       4.463  33.265  61.460  1.00  0.00     0.096 A 
HETATM   30  S   UNL     1       4.616  32.402  62.921  1.00  0.00    -0.082 SA
HETATM   31  C   UNL     1       4.654  33.846  63.860  1.00  0.00     0.019 A 
HETATM   32  C   UNL     1       4.494  34.983  63.060  1.00  0.00     0.004 A 
HETATM   33  C   UNL     1       4.812  33.937  65.258  1.00  0.00     0.043 A 
HETATM   34  C   UNL     1       4.377  34.622  61.670  1.00  0.00     0.068 A 
HETATM   35  C   UNL     1       4.473  36.248  63.705  1.00  0.00     0.016 A 
HETATM   36 CL   UNL     1       4.178  35.791  60.427  1.00  0.00    -0.082 Cl
HETATM   37  C   UNL     1       4.623  36.345  65.093  1.00  0.00     0.025 A 
HETATM   38  C   UNL     1       4.796  35.199  65.853  1.00  0.00     0.035 A 
HETATM   39 CL   UNL     1       4.993  35.332  67.558  1.00  0.00    -0.084 Cl
ENDBRANCH  25  29
ENDBRANCH   1  21
TORSDOF 7
ENDMDL
MODEL 9
REMARK VINA RESULT:      -8.9      2.384      3.479
REMARK  7 active torsions:
REMARK  status: ('A' for Active; 'I' for Inactive)
REMARK    1  A    between atoms: C_3  and  C_4 
REMARK       I    between atoms: C_4  and  N_5 
REMARK    2  A    between atoms: C_8  and  N_9 
REMARK       I    between atoms: N_9  and  C_10 
REMARK    3  A    between atoms: C_10  and  C_11 
REMARK    4  A    between atoms: C_11  and  N_12 
REMARK       I    between atoms: N_15  and  C_16 
REMARK    5  A    between atoms: C_16  and  C_17 
REMARK    6  A    between atoms: C_32  and  C_33 
REMARK    7  A    between atoms: C_33  and  O_34 
ROOT
HETATM    1  C   UNL     1       3.835  31.903  56.408  1.00  0.00     0.375 C 
ENDROOT
BRANCH   1   2
HETATM    2  C   UNL     1       4.268  31.552  57.838  1.00  0.00     0.251 C 
HETATM    3  N   UNL     1       5.537  32.019  58.127  1.00  0.00    -0.319 N 
HETATM    4  H   UNL     1       5.973  32.602  57.421  1.00  0.00     0.169 HD
HETATM    5  O   UNL     1       3.488  31.024  58.625  1.00  0.00    -0.271 OA
BRANCH   3   6
HETATM    6  C   UNL     1       6.086  32.027  59.389  1.00  0.00     0.094 C 
HETATM    7  S   UNL     1       7.422  30.989  59.494  1.00  0.00    -0.065 SA
HETATM    8  C   UNL     1       7.861  31.582  61.041  1.00  0.00     0.081 C 
HETATM    9  C   UNL     1       6.891  32.450  61.538  1.00  0.00    -0.020 C 
HETATM   10  C   UNL     1       6.923  33.072  62.906  1.00  0.00     0.051 C 
HETATM   11  C   UNL     1       5.819  32.684  60.572  1.00  0.00     0.080 C 
BRANCH   8  12
HETATM   12  C   UNL     1       9.107  31.156  61.674  1.00  0.00     0.256 C 
HETATM   13  N   UNL     1       9.080  29.978  62.369  1.00  0.00    -0.365 N 
HETATM   14  H   UNL     1       8.245  29.415  62.441  1.00  0.00     0.159 HD
HETATM   15  H   UNL     1       9.939  29.664  62.798  1.00  0.00     0.159 HD
HETATM   16  O   UNL     1      10.169  31.771  61.620  1.00  0.00    -0.267 OA
ENDBRANCH   8  12
BRANCH  11  17
HETATM   17  C   UNL     1       4.618  33.476  60.842  1.00  0.00     0.296 C 
HETATM   18  O   UNL     1       3.545  32.984  61.175  1.00  0.00    -0.259 OA
BRANCH  17  19
HETATM   19  O   UNL     1       4.793  34.799  60.536  1.00  0.00    -0.322 OA
HETATM   20  C   UNL     1       3.776  35.333  59.692  1.00  0.00     0.213 C 
ENDBRANCH  17  19
ENDBRANCH  11  17
ENDBRANCH   3   6
ENDBRANCH   1   2
BRANCH   1  21
HETATM   21  N   UNL     1       3.005  30.824  55.827  1.00  0.00     0.100 N 
HETATM   22  C   UNL     1       3.143  30.773  54.350  1.00  0.00     0.293 C 
HETATM   23  C   UNL     1       4.509  30.277  53.832  1.00  0.00     0.156 C 
HETATM   24  N   UNL     1       4.969  29.049  54.489  1.00  0.00    -0.344 N 
HETATM   25  C   UNL     1       5.933  28.287  53.810  1.00  0.00     0.262 C 
HETATM   26  C   UNL     1       4.750  28.970  55.938  1.00  0.00     0.156 C 
HETATM   27  O   UNL     1       6.254  28.554  52.652  1.00  0.00    -0.267 OA
HETATM   28  C   UNL     1       3.373  29.501  56.370  1.00  0.00     0.293 C 
BRANCH  25  29
HETATM   29  C   UNL     1       6.509  27.153  54.498  1.00  0.00     0.096 A 
HETATM   30  S   UNL     1       5.971  25.576  54.148  1.00  0.00    -0.082 SA
HETATM   31  C   UNL     1       7.027  24.872  55.313  1.00  0.00     0.019 A 
HETATM   32  C   UNL     1       7.749  25.850  56.007  1.00  0.00     0.004 A 
HETATM   33  C   UNL     1       7.182  23.499  55.588  1.00  0.00     0.043 A 
HETATM   34  C   UNL     1       7.428  27.168  55.524  1.00  0.00     0.068 A 
HETATM   35  C   UNL     1       8.639  25.416  57.025  1.00  0.00     0.016 A 
HETATM   36 CL   UNL     1       8.152  28.588  56.164  1.00  0.00    -0.082 Cl
HETATM   37  C   UNL     1       8.793  24.054  57.307  1.00  0.00     0.025 A 
HETATM   38  C   UNL     1       8.074  23.112  56.589  1.00  0.00     0.035 A 
HETATM   39 CL   UNL     1       8.282  21.439  56.935  1.00  0.00    -0.084 Cl
ENDBRANCH  25  29
ENDBRANCH   1  21
TORSDOF 7
ENDMDL
MODEL 10
REMARK VINA RESULT:      -8.8      5.420      7.980
REMARK  7 active torsions:
REMARK  status: ('A' for Active; 'I' for Inactive)
REMARK    1  A    between atoms: C_3  and  C_4 
REMARK       I    between atoms: C_4  and  N_5 
REMARK    2  A    between atoms: C_8  and  N_9 
REMARK       I    between atoms: N_9  and  C_10 
REMARK    3  A    between atoms: C_10  and  C_11 
REMARK    4  A    between atoms: C_11  and  N_12 
REMARK       I    between atoms: N_15  and  C_16 
REMARK    5  A    between atoms: C_16  and  C_17 
REMARK    6  A    between atoms: C_32  and  C_33 
REMARK    7  A    between atoms: C_33  and  O_34 
ROOT
HETATM    1  C   UNL     1       4.363  28.231  53.932  1.00  0.00     0.375 C 
ENDROOT
BRANCH   1   2
HETATM    2  C   UNL     1       4.748  28.542  55.385  1.00  0.00     0.251 C 
HETATM    3  N   UNL     1       5.621  29.611  55.475  1.00  0.00    -0.319 N 
HETATM    4  H   UNL     1       5.815  30.106  54.611  1.00  0.00     0.169 HD
HETATM    5  O   UNL     1       4.216  27.954  56.322  1.00  0.00    -0.271 OA
BRANCH   3   6
HETATM    6  C   UNL     1       5.961  30.230  56.656  1.00  0.00     0.094 C 
HETATM    7  S   UNL     1       7.542  29.841  57.129  1.00  0.00    -0.065 SA
HETATM    8  C   UNL     1       7.546  31.024  58.369  1.00  0.00     0.081 C 
HETATM    9  C   UNL     1       6.284  31.594  58.522  1.00  0.00    -0.020 C 
HETATM   10  C   UNL     1       5.922  32.595  59.583  1.00  0.00     0.051 C 
HETATM   11  C   UNL     1       5.334  31.093  57.529  1.00  0.00     0.080 C 
BRANCH   8  12
HETATM   12  C   UNL     1       8.767  31.311  59.119  1.00  0.00     0.256 C 
HETATM   13  N   UNL     1       9.031  30.519  60.203  1.00  0.00    -0.365 N 
HETATM   14  H   UNL     1       8.422  29.762  60.477  1.00  0.00     0.159 HD
HETATM   15  H   UNL     1       9.880  30.697  60.721  1.00  0.00     0.159 HD
HETATM   16  O   UNL     1       9.569  32.199  58.843  1.00  0.00    -0.267 OA
ENDBRANCH   8  12
BRANCH  11  17
HETATM   17  C   UNL     1       3.912  31.439  57.495  1.00  0.00     0.296 C 
HETATM   18  O   UNL     1       3.102  31.045  58.327  1.00  0.00    -0.259 OA
BRANCH  17  19
HETATM   19  O   UNL     1       3.573  32.118  56.356  1.00  0.00    -0.322 OA
HETATM   20  C   UNL     1       2.500  31.523  55.630  1.00  0.00     0.213 C 
ENDBRANCH  17  19
ENDBRANCH  11  17
ENDBRANCH   3   6
ENDBRANCH   1   2
BRANCH   1  21
HETATM   21  N   UNL     1       5.195  29.010  52.987  1.00  0.00     0.100 N 
HETATM   22  C   UNL     1       6.103  28.126  52.213  1.00  0.00     0.293 C 
HETATM   23  C   UNL     1       5.412  27.219  51.174  1.00  0.00     0.156 C 
HETATM   24  N   UNL     1       4.454  27.933  50.324  1.00  0.00    -0.344 N 
HETATM   25  C   UNL     1       4.122  27.335  49.097  1.00  0.00     0.262 C 
HETATM   26  C   UNL     1       3.604  28.921  50.997  1.00  0.00     0.156 C 
HETATM   27  O   UNL     1       4.727  26.344  48.690  1.00  0.00    -0.267 OA
HETATM   28  C   UNL     1       4.366  29.770  52.030  1.00  0.00     0.293 C 
BRANCH  25  29
HETATM   29  C   UNL     1       3.072  27.943  48.309  1.00  0.00     0.096 A 
HETATM   30  S   UNL     1       1.626  27.094  48.011  1.00  0.00    -0.082 SA
HETATM   31  C   UNL     1       0.981  28.374  47.055  1.00  0.00     0.019 A 
HETATM   32  C   UNL     1       1.895  29.425  46.921  1.00  0.00     0.004 A 
HETATM   33  C   UNL     1      -0.292  28.414  46.450  1.00  0.00     0.043 A 
HETATM   34  C   UNL     1       3.106  29.151  47.650  1.00  0.00     0.068 A 
HETATM   35  C   UNL     1       1.510  30.539  46.129  1.00  0.00     0.016 A 
HETATM   36 CL   UNL     1       4.427  30.249  47.694  1.00  0.00    -0.082 Cl
HETATM   37  C   UNL     1       0.251  30.583  45.521  1.00  0.00     0.025 A 
HETATM   38  C   UNL     1      -0.637  29.531  45.689  1.00  0.00     0.035 A 
HETATM   39 CL   UNL     1      -2.188  29.602  44.947  1.00  0.00    -0.084 Cl
ENDBRANCH  25  29
ENDBRANCH   1  21
TORSDOF 7
ENDMDL
