MODEL 1
REMARK VINA RESULT:     -10.2      0.000      0.000
REMARK  6 active torsions:
REMARK  status: ('A' for Active; 'I' for Inactive)
REMARK    1  A    between atoms: C_5  and  C_6 
REMARK    2  A    between atoms: C_12  and  C_13 
REMARK       I    between atoms: C_13  and  N_14 
REMARK    3  A    between atoms: N_14  and  C_15 
REMARK    4  A    between atoms: C_18  and  C_19 
REMARK    5  A    between atoms: C_19  and  O_20 
REMARK    6  A    between atoms: C_25  and  C_26 
ROOT
HETATM    1  C   UNL     1       6.000  24.908  53.965  1.00  0.00     0.097 C 
HETATM    2  N   UNL     1       6.531  26.000  54.807  1.00  0.00    -0.268 NA
HETATM    3  C   UNL     1       5.825  27.172  54.778  1.00  0.00     0.118 C 
HETATM    4  N   UNL     1       4.982  27.452  53.723  1.00  0.00    -0.245 N 
HETATM    5  N   UNL     1       4.244  28.554  53.900  1.00  0.00    -0.182 NA
HETATM    6  C   UNL     1       4.738  29.073  55.026  1.00  0.00     0.159 C 
HETATM    7  C   UNL     1       5.746  28.268  55.618  1.00  0.00     0.091 C 
HETATM    8  C   UNL     1       4.814  26.619  52.545  1.00  0.00     0.221 C 
HETATM    9  C   UNL     1       5.821  25.451  52.544  1.00  0.00     0.061 C 
HETATM   10  H   UNL     1       7.548  26.072  54.716  1.00  0.00     0.130 HD
ENDROOT
BRANCH   7  11
HETATM   11  C   UNL     1       6.458  28.596  56.844  1.00  0.00     0.261 C 
HETATM   12  N   UNL     1       6.654  29.947  57.047  1.00  0.00    -0.323 N 
HETATM   13  H   UNL     1       6.407  30.544  56.266  1.00  0.00     0.169 HD
HETATM   14  O   UNL     1       6.801  27.700  57.607  1.00  0.00    -0.267 OA
BRANCH  12  15
HETATM   15  C   UNL     1       7.078  30.576  58.236  1.00  0.00     0.035 A 
HETATM   16  C   UNL     1       8.188  30.172  58.978  1.00  0.00     0.030 A 
HETATM   17  C   UNL     1       8.507  30.788  60.195  1.00  0.00     0.012 A 
HETATM   18  C   UNL     1       7.717  31.822  60.706  1.00  0.00    -0.030 A 
HETATM   19  C   UNL     1       6.621  32.249  59.939  1.00  0.00     0.012 A 
HETATM   20  C   UNL     1       6.307  31.638  58.718  1.00  0.00     0.030 A 
BRANCH  18  21
HETATM   21  C   UNL     1       7.990  32.501  62.034  1.00  0.00     0.147 C 
HETATM   22  C   UNL     1       6.903  33.439  62.553  1.00  0.00     0.044 C 
BRANCH  21  23
HETATM   23  O   UNL     1       8.217  31.508  63.035  1.00  0.00    -0.391 OA
HETATM   24  H   UNL     1       8.051  30.641  62.626  1.00  0.00     0.210 HD
ENDBRANCH  21  23
ENDBRANCH  18  21
ENDBRANCH  12  15
ENDBRANCH   7  11
BRANCH   1  25
HETATM   25  C   UNL     1       6.866  23.671  54.109  1.00  0.00    -0.040 A 
HETATM   26  C   UNL     1       7.112  23.172  55.401  1.00  0.00     0.009 A 
HETATM   27  C   UNL     1       7.819  21.982  55.594  1.00  0.00     0.007 A 
HETATM   28  C   UNL     1       8.312  21.266  54.500  1.00  0.00    -0.062 A 
HETATM   29  C   UNL     1       8.999  19.948  54.701  1.00  0.00     0.048 C 
HETATM   30  C   UNL     1       8.088  21.763  53.213  1.00  0.00     0.007 A 
HETATM   31  C   UNL     1       7.382  22.955  53.019  1.00  0.00     0.009 A 
ENDBRANCH   1  25
BRANCH   8  32
HETATM   32  C   UNL     1       4.983  27.425  51.274  1.00  0.00     0.409 C 
HETATM   33  F   UNL     1       5.921  28.392  51.407  1.00  0.00    -0.169 F 
HETATM   34  F   UNL     1       5.414  26.608  50.274  1.00  0.00    -0.169 F 
HETATM   35  F   UNL     1       3.846  27.993  50.831  1.00  0.00    -0.169 F 
ENDBRANCH   8  32
TORSDOF 6
ENDMDL
MODEL 2
REMARK VINA RESULT:     -10.0      2.808      9.014
REMARK  6 active torsions:
REMARK  status: ('A' for Active; 'I' for Inactive)
REMARK    1  A    between atoms: C_5  and  C_6 
REMARK    2  A    between atoms: C_12  and  C_13 
REMARK       I    between atoms: C_13  and  N_14 
REMARK    3  A    between atoms: N_14  and  C_15 
REMARK    4  A    between atoms: C_18  and  C_19 
REMARK    5  A    between atoms: C_19  and  O_20 
REMARK    6  A    between atoms: C_25  and  C_26 
ROOT
HETATM    1  C   UNL     1       6.346  31.184  57.530  1.00  0.00     0.097 C 
HETATM    2  N   UNL     1       6.369  29.740  57.217  1.00  0.00    -0.268 NA
HETATM    3  C   UNL     1       5.861  29.386  55.997  1.00  0.00     0.118 C 
HETATM    4  N   UNL     1       4.998  30.230  55.331  1.00  0.00    -0.245 N 
HETATM    5  N   UNL     1       4.702  29.828  54.088  1.00  0.00    -0.182 NA
HETATM    6  C   UNL     1       5.270  28.623  54.015  1.00  0.00     0.159 C 
HETATM    7  C   UNL     1       5.996  28.275  55.185  1.00  0.00     0.091 C 
HETATM    8  C   UNL     1       4.490  31.488  55.852  1.00  0.00     0.221 C 
HETATM    9  C   UNL     1       4.916  31.689  57.320  1.00  0.00     0.061 C 
HETATM   10  H   UNL     1       6.066  29.185  58.022  1.00  0.00     0.130 HD
ENDROOT
BRANCH   7  11
HETATM   11  C   UNL     1       6.706  27.019  55.379  1.00  0.00     0.261 C 
HETATM   12  N   UNL     1       6.315  26.004  54.529  1.00  0.00    -0.323 N 
HETATM   13  H   UNL     1       5.495  26.200  53.966  1.00  0.00     0.169 HD
HETATM   14  O   UNL     1       7.591  26.945  56.224  1.00  0.00    -0.267 OA
BRANCH  12  15
HETATM   15  C   UNL     1       6.975  24.778  54.309  1.00  0.00     0.035 A 
HETATM   16  C   UNL     1       7.554  24.413  53.093  1.00  0.00     0.030 A 
HETATM   17  C   UNL     1       8.122  23.145  52.915  1.00  0.00     0.012 A 
HETATM   18  C   UNL     1       8.119  22.204  53.950  1.00  0.00    -0.030 A 
HETATM   19  C   UNL     1       7.566  22.588  55.182  1.00  0.00     0.012 A 
HETATM   20  C   UNL     1       7.004  23.858  55.362  1.00  0.00     0.030 A 
BRANCH  18  21
HETATM   21  C   UNL     1       8.684  20.805  53.805  1.00  0.00     0.147 C 
HETATM   22  C   UNL     1       8.635  19.921  55.048  1.00  0.00     0.044 C 
BRANCH  21  23
HETATM   23  O   UNL     1       7.990  20.120  52.761  1.00  0.00    -0.391 OA
HETATM   24  H   UNL     1       7.336  19.536  53.182  1.00  0.00     0.210 HD
ENDBRANCH  21  23
ENDBRANCH  18  21
ENDBRANCH  12  15
ENDBRANCH   7  11
BRANCH   1  25
HETATM   25  C   UNL     1       6.954  31.431  58.898  1.00  0.00    -0.040 A 
HETATM   26  C   UNL     1       6.360  32.396  59.731  1.00  0.00     0.009 A 
HETATM   27  C   UNL     1       6.812  32.600  61.037  1.00  0.00     0.007 A 
HETATM   28  C   UNL     1       7.880  31.854  61.541  1.00  0.00    -0.062 A 
HETATM   29  C   UNL     1       8.312  32.014  62.969  1.00  0.00     0.048 C 
HETATM   30  C   UNL     1       8.488  30.904  60.716  1.00  0.00     0.007 A 
HETATM   31  C   UNL     1       8.037  30.701  59.407  1.00  0.00     0.009 A 
ENDBRANCH   1  25
BRANCH   8  32
HETATM   32  C   UNL     1       2.981  31.553  55.756  1.00  0.00     0.409 C 
HETATM   33  F   UNL     1       2.385  30.528  56.408  1.00  0.00    -0.169 F 
HETATM   34  F   UNL     1       2.538  32.695  56.352  1.00  0.00    -0.169 F 
HETATM   35  F   UNL     1       2.513  31.583  54.493  1.00  0.00    -0.169 F 
ENDBRANCH   8  32
TORSDOF 6
ENDMDL
MODEL 3
REMARK VINA RESULT:     -10.0      1.612      2.004
REMARK  6 active torsions:
REMARK  status: ('A' for Active; 'I' for Inactive)
REMARK    1  A    between atoms: C_5  and  C_6 
REMARK    2  A    between atoms: C_12  and  C_13 
REMARK       I    between atoms: C_13  and  N_14 
REMARK    3  A    between atoms: N_14  and  C_15 
REMARK    4  A    between atoms: C_18  and  C_19 
REMARK    5  A    between atoms: C_19  and  O_20 
REMARK    6  A    between atoms: C_25  and  C_26 
ROOT
HETATM    1  C   UNL     1       5.628  25.575  52.972  1.00  0.00     0.097 C 
HETATM    2  N   UNL     1       5.907  26.882  53.600  1.00  0.00    -0.268 NA
HETATM    3  C   UNL     1       5.083  27.910  53.232  1.00  0.00     0.118 C 
HETATM    4  N   UNL     1       4.368  27.841  52.055  1.00  0.00    -0.245 N 
HETATM    5  N   UNL     1       3.491  28.840  51.897  1.00  0.00    -0.182 NA
HETATM    6  C   UNL     1       3.761  29.647  52.925  1.00  0.00     0.159 C 
HETATM    7  C   UNL     1       4.763  29.134  53.791  1.00  0.00     0.091 C 
HETATM    8  C   UNL     1       4.461  26.766  51.082  1.00  0.00     0.221 C 
HETATM    9  C   UNL     1       5.586  25.779  51.455  1.00  0.00     0.061 C 
HETATM   10  H   UNL     1       6.913  27.078  53.609  1.00  0.00     0.130 HD
ENDROOT
BRANCH   7  11
HETATM   11  C   UNL     1       5.256  29.808  54.983  1.00  0.00     0.261 C 
HETATM   12  N   UNL     1       6.157  29.072  55.724  1.00  0.00    -0.323 N 
HETATM   13  H   UNL     1       6.271  28.107  55.437  1.00  0.00     0.169 HD
HETATM   14  O   UNL     1       4.883  30.949  55.234  1.00  0.00    -0.267 OA
BRANCH  12  15
HETATM   15  C   UNL     1       6.982  29.539  56.769  1.00  0.00     0.035 A 
HETATM   16  C   UNL     1       8.334  29.219  56.895  1.00  0.00     0.030 A 
HETATM   17  C   UNL     1       9.077  29.649  58.002  1.00  0.00     0.012 A 
HETATM   18  C   UNL     1       8.483  30.405  59.018  1.00  0.00    -0.030 A 
HETATM   19  C   UNL     1       7.131  30.753  58.869  1.00  0.00     0.012 A 
HETATM   20  C   UNL     1       6.390  30.330  57.758  1.00  0.00     0.030 A 
BRANCH  18  21
HETATM   21  C   UNL     1       9.226  30.865  60.257  1.00  0.00     0.147 C 
HETATM   22  C   UNL     1       8.933  32.285  60.735  1.00  0.00     0.044 C 
BRANCH  21  23
HETATM   23  O   UNL     1       8.939  29.978  61.338  1.00  0.00    -0.391 OA
HETATM   24  H   UNL     1       8.411  30.473  61.987  1.00  0.00     0.210 HD
ENDBRANCH  21  23
ENDBRANCH  18  21
ENDBRANCH  12  15
ENDBRANCH   7  11
BRANCH   1  25
HETATM   25  C   UNL     1       6.602  24.531  53.485  1.00  0.00    -0.040 A 
HETATM   26  C   UNL     1       6.621  24.252  54.863  1.00  0.00     0.009 A 
HETATM   27  C   UNL     1       7.424  23.234  55.384  1.00  0.00     0.007 A 
HETATM   28  C   UNL     1       8.240  22.476  54.542  1.00  0.00    -0.062 A 
HETATM   29  C   UNL     1       9.040  21.330  55.087  1.00  0.00     0.048 C 
HETATM   30  C   UNL     1       8.241  22.756  53.173  1.00  0.00     0.007 A 
HETATM   31  C   UNL     1       7.439  23.776  52.651  1.00  0.00     0.009 A 
ENDBRANCH   1  25
BRANCH   8  32
HETATM   32  C   UNL     1       4.712  27.306  49.689  1.00  0.00     0.409 C 
HETATM   33  F   UNL     1       5.721  28.209  49.668  1.00  0.00    -0.169 F 
HETATM   34  F   UNL     1       5.093  26.286  48.871  1.00  0.00    -0.169 F 
HETATM   35  F   UNL     1       3.629  27.863  49.116  1.00  0.00    -0.169 F 
ENDBRANCH   8  32
TORSDOF 6
ENDMDL
MODEL 4
REMARK VINA RESULT:      -9.5      4.892      9.281
REMARK  6 active torsions:
REMARK  status: ('A' for Active; 'I' for Inactive)
REMARK    1  A    between atoms: C_5  and  C_6 
REMARK    2  A    between atoms: C_12  and  C_13 
REMARK       I    between atoms: C_13  and  N_14 
REMARK    3  A    between atoms: N_14  and  C_15 
REMARK    4  A    between atoms: C_18  and  C_19 
REMARK    5  A    between atoms: C_19  and  O_20 
REMARK    6  A    between atoms: C_25  and  C_26 
ROOT
HETATM    1  C   UNL     1       6.571  26.512  53.775  1.00  0.00     0.097 C 
HETATM    2  N   UNL     1       5.492  26.706  52.784  1.00  0.00    -0.268 NA
HETATM    3  C   UNL     1       4.949  27.960  52.732  1.00  0.00     0.118 C 
HETATM    4  N   UNL     1       5.072  28.817  53.804  1.00  0.00    -0.245 N 
HETATM    5  N   UNL     1       4.628  30.056  53.558  1.00  0.00    -0.182 NA
HETATM    6  C   UNL     1       4.070  29.945  52.351  1.00  0.00     0.159 C 
HETATM    7  C   UNL     1       4.217  28.652  51.784  1.00  0.00     0.091 C 
HETATM    8  C   UNL     1       5.689  28.482  55.076  1.00  0.00     0.221 C 
HETATM    9  C   UNL     1       6.053  26.985  55.136  1.00  0.00     0.061 C 
HETATM   10  H   UNL     1       4.838  25.918  52.797  1.00  0.00     0.130 HD
ENDROOT
BRANCH   7  11
HETATM   11  C   UNL     1       3.700  28.251  50.483  1.00  0.00     0.261 C 
HETATM   12  N   UNL     1       2.378  28.583  50.267  1.00  0.00    -0.323 N 
HETATM   13  H   UNL     1       1.882  28.940  51.075  1.00  0.00     0.169 HD
HETATM   14  O   UNL     1       4.441  27.696  49.680  1.00  0.00    -0.267 OA
BRANCH  12  15
HETATM   15  C   UNL     1       1.684  28.555  49.040  1.00  0.00     0.035 A 
HETATM   16  C   UNL     1       1.176  29.690  48.406  1.00  0.00     0.030 A 
HETATM   17  C   UNL     1       0.423  29.583  47.229  1.00  0.00     0.012 A 
HETATM   18  C   UNL     1       0.152  28.336  46.659  1.00  0.00    -0.030 A 
HETATM   19  C   UNL     1       0.694  27.200  47.281  1.00  0.00     0.012 A 
HETATM   20  C   UNL     1       1.453  27.307  48.454  1.00  0.00     0.030 A 
BRANCH  18  21
HETATM   21  C   UNL     1      -0.688  28.156  45.410  1.00  0.00     0.147 C 
HETATM   22  C   UNL     1      -0.815  29.372  44.496  1.00  0.00     0.044 C 
BRANCH  21  23
HETATM   23  O   UNL     1      -0.153  27.085  44.631  1.00  0.00    -0.391 OA
HETATM   24  H   UNL     1      -0.623  26.274  44.891  1.00  0.00     0.210 HD
ENDBRANCH  21  23
ENDBRANCH  18  21
ENDBRANCH  12  15
ENDBRANCH   7  11
BRANCH   1  25
HETATM   25  C   UNL     1       7.091  25.088  53.709  1.00  0.00    -0.040 A 
HETATM   26  C   UNL     1       6.971  24.278  54.852  1.00  0.00     0.009 A 
HETATM   27  C   UNL     1       7.340  22.931  54.826  1.00  0.00     0.007 A 
HETATM   28  C   UNL     1       7.852  22.360  53.658  1.00  0.00    -0.062 A 
HETATM   29  C   UNL     1       8.171  20.895  53.604  1.00  0.00     0.048 C 
HETATM   30  C   UNL     1       7.991  23.161  52.521  1.00  0.00     0.007 A 
HETATM   31  C   UNL     1       7.624  24.511  52.548  1.00  0.00     0.009 A 
ENDBRANCH   1  25
BRANCH   8  32
HETATM   32  C   UNL     1       4.777  28.821  56.236  1.00  0.00     0.409 C 
HETATM   33  F   UNL     1       3.491  28.478  55.989  1.00  0.00    -0.169 F 
HETATM   34  F   UNL     1       5.159  28.112  57.334  1.00  0.00    -0.169 F 
HETATM   35  F   UNL     1       4.810  30.118  56.596  1.00  0.00    -0.169 F 
ENDBRANCH   8  32
TORSDOF 6
ENDMDL
MODEL 5
REMARK VINA RESULT:      -9.5      2.958      5.283
REMARK  6 active torsions:
REMARK  status: ('A' for Active; 'I' for Inactive)
REMARK    1  A    between atoms: C_5  and  C_6 
REMARK    2  A    between atoms: C_12  and  C_13 
REMARK       I    between atoms: C_13  and  N_14 
REMARK    3  A    between atoms: N_14  and  C_15 
REMARK    4  A    between atoms: C_18  and  C_19 
REMARK    5  A    between atoms: C_19  and  O_20 
REMARK    6  A    between atoms: C_25  and  C_26 
ROOT
HETATM    1  C   UNL     1       7.230  25.333  52.971  1.00  0.00     0.097 C 
HETATM    2  N   UNL     1       7.048  25.674  54.397  1.00  0.00    -0.268 NA
HETATM    3  C   UNL     1       7.864  25.016  55.276  1.00  0.00     0.118 C 
HETATM    4  N   UNL     1       8.464  23.828  54.914  1.00  0.00    -0.245 N 
HETATM    5  N   UNL     1       9.350  23.377  55.810  1.00  0.00    -0.182 NA
HETATM    6  C   UNL     1       9.201  24.217  56.835  1.00  0.00     0.159 C 
HETATM    7  C   UNL     1       8.270  25.257  56.576  1.00  0.00     0.091 C 
HETATM    8  C   UNL     1       8.249  23.133  53.657  1.00  0.00     0.221 C 
HETATM    9  C   UNL     1       7.136  23.811  52.833  1.00  0.00     0.061 C 
HETATM   10  H   UNL     1       6.054  25.723  54.638  1.00  0.00     0.130 HD
ENDROOT
BRANCH   7  11
HETATM   11  C   UNL     1       7.910  26.305  57.520  1.00  0.00     0.261 C 
HETATM   12  N   UNL     1       7.858  27.572  56.975  1.00  0.00    -0.323 N 
HETATM   13  H   UNL     1       8.204  27.651  56.026  1.00  0.00     0.169 HD
HETATM   14  O   UNL     1       7.656  26.014  58.684  1.00  0.00    -0.267 OA
BRANCH  12  15
HETATM   15  C   UNL     1       7.308  28.729  57.563  1.00  0.00     0.035 A 
HETATM   16  C   UNL     1       6.033  29.217  57.275  1.00  0.00     0.030 A 
HETATM   17  C   UNL     1       5.577  30.419  57.832  1.00  0.00     0.012 A 
HETATM   18  C   UNL     1       6.390  31.169  58.688  1.00  0.00    -0.030 A 
HETATM   19  C   UNL     1       7.658  30.656  59.002  1.00  0.00     0.012 A 
HETATM   20  C   UNL     1       8.111  29.451  58.451  1.00  0.00     0.030 A 
BRANCH  18  21
HETATM   21  C   UNL     1       5.966  32.494  59.290  1.00  0.00     0.147 C 
HETATM   22  C   UNL     1       4.852  33.244  58.565  1.00  0.00     0.044 C 
BRANCH  21  23
HETATM   23  O   UNL     1       5.541  32.288  60.638  1.00  0.00    -0.391 OA
HETATM   24  H   UNL     1       5.067  31.439  60.665  1.00  0.00     0.210 HD
ENDBRANCH  21  23
ENDBRANCH  18  21
ENDBRANCH  12  15
ENDBRANCH   7  11
BRANCH   1  25
HETATM   25  C   UNL     1       6.278  26.147  52.115  1.00  0.00    -0.040 A 
HETATM   26  C   UNL     1       6.129  27.517  52.395  1.00  0.00     0.009 A 
HETATM   27  C   UNL     1       5.345  28.341  51.584  1.00  0.00     0.007 A 
HETATM   28  C   UNL     1       4.676  27.813  50.477  1.00  0.00    -0.062 A 
HETATM   29  C   UNL     1       3.901  28.711  49.558  1.00  0.00     0.048 C 
HETATM   30  C   UNL     1       4.804  26.450  50.199  1.00  0.00     0.007 A 
HETATM   31  C   UNL     1       5.587  25.624  51.013  1.00  0.00     0.009 A 
ENDBRANCH   1  25
BRANCH   8  32
HETATM   32  C   UNL     1       7.885  21.681  53.887  1.00  0.00     0.409 C 
HETATM   33  F   UNL     1       7.167  21.167  52.861  1.00  0.00    -0.169 F 
HETATM   34  F   UNL     1       9.023  20.937  53.968  1.00  0.00    -0.169 F 
HETATM   35  F   UNL     1       7.211  21.461  55.032  1.00  0.00    -0.169 F 
ENDBRANCH   8  32
TORSDOF 6
ENDMDL
MODEL 6
REMARK VINA RESULT:      -9.5      4.172      8.392
REMARK  6 active torsions:
REMARK  status: ('A' for Active; 'I' for Inactive)
REMARK    1  A    between atoms: C_5  and  C_6 
REMARK    2  A    between atoms: C_12  and  C_13 
REMARK       I    between atoms: C_13  and  N_14 
REMARK    3  A    between atoms: N_14  and  C_15 
REMARK    4  A    between atoms: C_18  and  C_19 
REMARK    5  A    between atoms: C_19  and  O_20 
REMARK    6  A    between atoms: C_25  and  C_26 
ROOT
HETATM    1  C   UNL     1       7.693  25.960  54.528  1.00  0.00     0.097 C 
HETATM    2  N   UNL     1       6.387  26.452  54.042  1.00  0.00    -0.268 NA
HETATM    3  C   UNL     1       6.068  27.737  54.384  1.00  0.00     0.118 C 
HETATM    4  N   UNL     1       6.687  28.347  55.455  1.00  0.00    -0.245 N 
HETATM    5  N   UNL     1       6.393  29.647  55.579  1.00  0.00    -0.182 NA
HETATM    6  C   UNL     1       5.446  29.834  54.658  1.00  0.00     0.159 C 
HETATM    7  C   UNL     1       5.179  28.672  53.886  1.00  0.00     0.091 C 
HETATM    8  C   UNL     1       7.639  27.706  56.346  1.00  0.00     0.221 C 
HETATM    9  C   UNL     1       7.754  26.199  56.040  1.00  0.00     0.061 C 
HETATM   10  H   UNL     1       5.658  25.745  54.173  1.00  0.00     0.130 HD
ENDROOT
BRANCH   7  11
HETATM   11  C   UNL     1       4.192  28.592  52.820  1.00  0.00     0.261 C 
HETATM   12  N   UNL     1       4.710  28.256  51.586  1.00  0.00    -0.323 N 
HETATM   13  H   UNL     1       5.722  28.236  51.529  1.00  0.00     0.169 HD
HETATM   14  O   UNL     1       3.008  28.789  53.071  1.00  0.00    -0.267 OA
BRANCH  12  15
HETATM   15  C   UNL     1       3.989  27.863  50.439  1.00  0.00     0.035 A 
HETATM   16  C   UNL     1       2.893  28.561  49.932  1.00  0.00     0.030 A 
HETATM   17  C   UNL     1       2.169  28.072  48.836  1.00  0.00     0.012 A 
HETATM   18  C   UNL     1       2.520  26.866  48.223  1.00  0.00    -0.030 A 
HETATM   19  C   UNL     1       3.645  26.185  48.715  1.00  0.00     0.012 A 
HETATM   20  C   UNL     1       4.373  26.677  49.806  1.00  0.00     0.030 A 
BRANCH  18  21
HETATM   21  C   UNL     1       1.753  26.268  47.060  1.00  0.00     0.147 C 
HETATM   22  C   UNL     1       0.796  27.203  46.326  1.00  0.00     0.044 C 
BRANCH  21  23
HETATM   23  O   UNL     1       2.676  25.754  46.099  1.00  0.00    -0.391 OA
HETATM   24  H   UNL     1       2.367  26.037  45.221  1.00  0.00     0.210 HD
ENDBRANCH  21  23
ENDBRANCH  18  21
ENDBRANCH  12  15
ENDBRANCH   7  11
BRANCH   1  25
HETATM   25  C   UNL     1       7.921  24.535  54.061  1.00  0.00    -0.040 A 
HETATM   26  C   UNL     1       8.352  23.583  55.002  1.00  0.00     0.009 A 
HETATM   27  C   UNL     1       8.486  22.236  54.658  1.00  0.00     0.007 A 
HETATM   28  C   UNL     1       8.206  21.806  53.358  1.00  0.00    -0.062 A 
HETATM   29  C   UNL     1       8.270  20.349  53.008  1.00  0.00     0.048 C 
HETATM   30  C   UNL     1       7.793  22.747  52.411  1.00  0.00     0.007 A 
HETATM   31  C   UNL     1       7.661  24.097  52.755  1.00  0.00     0.009 A 
ENDBRANCH   1  25
BRANCH   8  32
HETATM   32  C   UNL     1       7.245  27.892  57.796  1.00  0.00     0.409 C 
HETATM   33  F   UNL     1       7.848  28.969  58.353  1.00  0.00    -0.169 F 
HETATM   34  F   UNL     1       5.905  28.121  57.875  1.00  0.00    -0.169 F 
HETATM   35  F   UNL     1       7.489  26.819  58.572  1.00  0.00    -0.169 F 
ENDBRANCH   8  32
TORSDOF 6
ENDMDL
MODEL 7
REMARK VINA RESULT:      -9.5      3.714      8.220
REMARK  6 active torsions:
REMARK  status: ('A' for Active; 'I' for Inactive)
REMARK    1  A    between atoms: C_5  and  C_6 
REMARK    2  A    between atoms: C_12  and  C_13 
REMARK       I    between atoms: C_13  and  N_14 
REMARK    3  A    between atoms: N_14  and  C_15 
REMARK    4  A    between atoms: C_18  and  C_19 
REMARK    5  A    between atoms: C_19  and  O_20 
REMARK    6  A    between atoms: C_25  and  C_26 
ROOT
HETATM    1  C   UNL     1       3.469  28.952  52.805  1.00  0.00     0.097 C 
HETATM    2  N   UNL     1       4.631  28.296  53.441  1.00  0.00    -0.268 NA
HETATM    3  C   UNL     1       4.790  28.531  54.779  1.00  0.00     0.118 C 
HETATM    4  N   UNL     1       4.202  29.630  55.368  1.00  0.00    -0.245 N 
HETATM    5  N   UNL     1       4.313  29.651  56.702  1.00  0.00    -0.182 NA
HETATM    6  C   UNL     1       5.120  28.620  56.956  1.00  0.00     0.159 C 
HETATM    7  C   UNL     1       5.474  27.886  55.793  1.00  0.00     0.091 C 
HETATM    8  C   UNL     1       3.454  30.656  54.662  1.00  0.00     0.221 C 
HETATM    9  C   UNL     1       3.531  30.446  53.136  1.00  0.00     0.061 C 
HETATM   10  H   UNL     1       5.466  28.381  52.854  1.00  0.00     0.130 HD
ENDROOT
BRANCH   7  11
HETATM   11  C   UNL     1       6.346  26.721  55.780  1.00  0.00     0.261 C 
HETATM   12  N   UNL     1       5.914  25.693  54.965  1.00  0.00    -0.323 N 
HETATM   13  H   UNL     1       4.983  25.806  54.580  1.00  0.00     0.169 HD
HETATM   14  O   UNL     1       7.381  26.728  56.437  1.00  0.00    -0.267 OA
BRANCH  12  15
HETATM   15  C   UNL     1       6.652  24.564  54.557  1.00  0.00     0.035 A 
HETATM   16  C   UNL     1       7.024  24.313  53.235  1.00  0.00     0.030 A 
HETATM   17  C   UNL     1       7.686  23.129  52.884  1.00  0.00     0.012 A 
HETATM   18  C   UNL     1       7.988  22.161  53.846  1.00  0.00    -0.030 A 
HETATM   19  C   UNL     1       7.643  22.433  55.180  1.00  0.00     0.012 A 
HETATM   20  C   UNL     1       6.987  23.620  55.532  1.00  0.00     0.030 A 
BRANCH  18  21
HETATM   21  C   UNL     1       8.668  20.846  53.520  1.00  0.00     0.147 C 
HETATM   22  C   UNL     1       8.952  19.918  54.698  1.00  0.00     0.044 C 
BRANCH  21  23
HETATM   23  O   UNL     1       7.872  20.121  52.582  1.00  0.00    -0.391 OA
HETATM   24  H   UNL     1       7.857  19.193  52.871  1.00  0.00     0.210 HD
ENDBRANCH  21  23
ENDBRANCH  18  21
ENDBRANCH  12  15
ENDBRANCH   7  11
BRANCH   1  25
HETATM   25  C   UNL     1       3.407  28.591  51.333  1.00  0.00    -0.040 A 
HETATM   26  C   UNL     1       4.431  27.790  50.796  1.00  0.00     0.009 A 
HETATM   27  C   UNL     1       4.380  27.342  49.473  1.00  0.00     0.007 A 
HETATM   28  C   UNL     1       3.309  27.694  48.648  1.00  0.00    -0.062 A 
HETATM   29  C   UNL     1       3.211  27.147  47.254  1.00  0.00     0.048 C 
HETATM   30  C   UNL     1       2.295  28.503  49.167  1.00  0.00     0.007 A 
HETATM   31  C   UNL     1       2.347  28.954  50.490  1.00  0.00     0.009 A 
ENDBRANCH   1  25
BRANCH   8  32
HETATM   32  C   UNL     1       3.964  32.040  55.002  1.00  0.00     0.409 C 
HETATM   33  F   UNL     1       3.781  32.914  53.985  1.00  0.00    -0.169 F 
HETATM   34  F   UNL     1       3.265  32.533  56.061  1.00  0.00    -0.169 F 
HETATM   35  F   UNL     1       5.261  32.072  55.362  1.00  0.00    -0.169 F 
ENDBRANCH   8  32
TORSDOF 6
ENDMDL
MODEL 8
REMARK VINA RESULT:      -9.4      4.125      9.141
REMARK  6 active torsions:
REMARK  status: ('A' for Active; 'I' for Inactive)
REMARK    1  A    between atoms: C_5  and  C_6 
REMARK    2  A    between atoms: C_12  and  C_13 
REMARK       I    between atoms: C_13  and  N_14 
REMARK    3  A    between atoms: N_14  and  C_15 
REMARK    4  A    between atoms: C_18  and  C_19 
REMARK    5  A    between atoms: C_19  and  O_20 
REMARK    6  A    between atoms: C_25  and  C_26 
ROOT
HETATM    1  C   UNL     1       7.420  27.064  56.410  1.00  0.00     0.097 C 
HETATM    2  N   UNL     1       7.255  27.374  54.975  1.00  0.00    -0.268 NA
HETATM    3  C   UNL     1       6.629  26.415  54.225  1.00  0.00     0.118 C 
HETATM    4  N   UNL     1       6.578  25.110  54.667  1.00  0.00    -0.245 N 
HETATM    5  N   UNL     1       5.808  24.316  53.913  1.00  0.00    -0.182 NA
HETATM    6  C   UNL     1       5.482  25.097  52.882  1.00  0.00     0.159 C 
HETATM    7  C   UNL     1       5.981  26.421  53.004  1.00  0.00     0.091 C 
HETATM    8  C   UNL     1       7.216  24.610  55.872  1.00  0.00     0.221 C 
HETATM    9  C   UNL     1       8.098  25.695  56.522  1.00  0.00     0.061 C 
HETATM   10  H   UNL     1       8.111  27.778  54.586  1.00  0.00     0.130 HD
ENDROOT
BRANCH   7  11
HETATM   11  C   UNL     1       5.782  27.477  52.023  1.00  0.00     0.261 C 
HETATM   12  N   UNL     1       5.286  27.044  50.810  1.00  0.00    -0.323 N 
HETATM   13  H   UNL     1       5.246  26.038  50.690  1.00  0.00     0.169 HD
HETATM   14  O   UNL     1       6.024  28.640  52.324  1.00  0.00    -0.267 OA
BRANCH  12  15
HETATM   15  C   UNL     1       4.762  27.842  49.771  1.00  0.00     0.035 A 
HETATM   16  C   UNL     1       5.499  28.256  48.661  1.00  0.00     0.030 A 
HETATM   17  C   UNL     1       4.943  29.117  47.706  1.00  0.00     0.012 A 
HETATM   18  C   UNL     1       3.635  29.592  47.840  1.00  0.00    -0.030 A 
HETATM   19  C   UNL     1       2.886  29.145  48.941  1.00  0.00     0.012 A 
HETATM   20  C   UNL     1       3.440  28.278  49.892  1.00  0.00     0.030 A 
BRANCH  18  21
HETATM   21  C   UNL     1       2.993  30.554  46.860  1.00  0.00     0.147 C 
HETATM   22  C   UNL     1       3.925  31.215  45.848  1.00  0.00     0.044 C 
BRANCH  21  23
HETATM   23  O   UNL     1       1.974  29.874  46.128  1.00  0.00    -0.391 OA
HETATM   24  H   UNL     1       1.120  30.109  46.531  1.00  0.00     0.210 HD
ENDBRANCH  21  23
ENDBRANCH  18  21
ENDBRANCH  12  15
ENDBRANCH   7  11
BRANCH   1  25
HETATM   25  C   UNL     1       8.107  28.217  57.117  1.00  0.00    -0.040 A 
HETATM   26  C   UNL     1       9.368  28.632  56.652  1.00  0.00     0.009 A 
HETATM   27  C   UNL     1      10.008  29.748  57.196  1.00  0.00     0.007 A 
HETATM   28  C   UNL     1       9.411  30.472  58.231  1.00  0.00    -0.062 A 
HETATM   29  C   UNL     1      10.058  31.717  58.759  1.00  0.00     0.048 C 
HETATM   30  C   UNL     1       8.166  30.058  58.712  1.00  0.00     0.007 A 
HETATM   31  C   UNL     1       7.525  28.938  58.168  1.00  0.00     0.009 A 
ENDBRANCH   1  25
BRANCH   8  32
HETATM   32  C   UNL     1       8.062  23.388  55.580  1.00  0.00     0.409 C 
HETATM   33  F   UNL     1       8.755  23.514  54.425  1.00  0.00    -0.169 F 
HETATM   34  F   UNL     1       8.987  23.232  56.567  1.00  0.00    -0.169 F 
HETATM   35  F   UNL     1       7.364  22.238  55.535  1.00  0.00    -0.169 F 
ENDBRANCH   8  32
TORSDOF 6
ENDMDL
MODEL 9
REMARK VINA RESULT:      -9.2      7.730     13.048
REMARK  6 active torsions:
REMARK  status: ('A' for Active; 'I' for Inactive)
REMARK    1  A    between atoms: C_5  and  C_6 
REMARK    2  A    between atoms: C_12  and  C_13 
REMARK       I    between atoms: C_13  and  N_14 
REMARK    3  A    between atoms: N_14  and  C_15 
REMARK    4  A    between atoms: C_18  and  C_19 
REMARK    5  A    between atoms: C_19  and  O_20 
REMARK    6  A    between atoms: C_25  and  C_26 
ROOT
HETATM    1  C   UNL     1       4.831  36.566  62.938  1.00  0.00     0.097 C 
HETATM    2  N   UNL     1       5.661  35.540  62.272  1.00  0.00    -0.268 NA
HETATM    3  C   UNL     1       5.474  34.254  62.698  1.00  0.00     0.118 C 
HETATM    4  N   UNL     1       4.914  34.003  63.933  1.00  0.00    -0.245 N 
HETATM    5  N   UNL     1       4.652  32.709  64.153  1.00  0.00    -0.182 NA
HETATM    6  C   UNL     1       5.197  32.104  63.096  1.00  0.00     0.159 C 
HETATM    7  C   UNL     1       5.748  33.012  62.154  1.00  0.00     0.091 C 
HETATM    8  C   UNL     1       4.551  35.017  64.907  1.00  0.00     0.221 C 
HETATM    9  C   UNL     1       5.017  36.414  64.451  1.00  0.00     0.061 C 
HETATM   10  H   UNL     1       6.629  35.859  62.175  1.00  0.00     0.130 HD
ENDROOT
BRANCH   7  11
HETATM   11  C   UNL     1       6.408  32.626  60.916  1.00  0.00     0.261 C 
HETATM   12  N   UNL     1       7.718  32.219  61.069  1.00  0.00    -0.323 N 
HETATM   13  H   UNL     1       8.112  32.362  61.992  1.00  0.00     0.169 HD
HETATM   14  O   UNL     1       5.785  32.653  59.860  1.00  0.00    -0.267 OA
BRANCH  12  15
HETATM   15  C   UNL     1       8.522  31.561  60.115  1.00  0.00     0.035 A 
HETATM   16  C   UNL     1       9.702  32.092  59.593  1.00  0.00     0.030 A 
HETATM   17  C   UNL     1      10.411  31.424  58.586  1.00  0.00     0.012 A 
HETATM   18  C   UNL     1       9.952  30.208  58.069  1.00  0.00    -0.030 A 
HETATM   19  C   UNL     1       8.783  29.661  58.622  1.00  0.00     0.012 A 
HETATM   20  C   UNL     1       8.078  30.326  59.634  1.00  0.00     0.030 A 
BRANCH  18  21
HETATM   21  C   UNL     1      10.655  29.459  56.954  1.00  0.00     0.147 C 
HETATM   22  C   UNL     1      10.121  29.686  55.542  1.00  0.00     0.044 C 
BRANCH  21  23
HETATM   23  O   UNL     1      12.040  29.803  56.953  1.00  0.00    -0.391 OA
HETATM   24  H   UNL     1      12.296  29.974  56.030  1.00  0.00     0.210 HD
ENDBRANCH  21  23
ENDBRANCH  18  21
ENDBRANCH  12  15
ENDBRANCH   7  11
BRANCH   1  25
HETATM   25  C   UNL     1       5.127  37.935  62.356  1.00  0.00    -0.040 A 
HETATM   26  C   UNL     1       6.463  38.373  62.321  1.00  0.00     0.009 A 
HETATM   27  C   UNL     1       6.812  39.580  61.710  1.00  0.00     0.007 A 
HETATM   28  C   UNL     1       5.832  40.389  61.130  1.00  0.00    -0.062 A 
HETATM   29  C   UNL     1       6.215  41.644  60.402  1.00  0.00     0.048 C 
HETATM   30  C   UNL     1       4.500  39.971  61.174  1.00  0.00     0.007 A 
HETATM   31  C   UNL     1       4.149  38.763  61.788  1.00  0.00     0.009 A 
ENDBRANCH   1  25
BRANCH   8  32
HETATM   32  C   UNL     1       5.144  34.711  66.266  1.00  0.00     0.409 C 
HETATM   33  F   UNL     1       6.417  34.259  66.175  1.00  0.00    -0.169 F 
HETATM   34  F   UNL     1       5.196  35.854  67.004  1.00  0.00    -0.169 F 
HETATM   35  F   UNL     1       4.429  33.829  66.989  1.00  0.00    -0.169 F 
ENDBRANCH   8  32
TORSDOF 6
ENDMDL
MODEL 10
REMARK VINA RESULT:      -9.0      4.266      8.428
REMARK  6 active torsions:
REMARK  status: ('A' for Active; 'I' for Inactive)
REMARK    1  A    between atoms: C_5  and  C_6 
REMARK    2  A    between atoms: C_12  and  C_13 
REMARK       I    between atoms: C_13  and  N_14 
REMARK    3  A    between atoms: N_14  and  C_15 
REMARK    4  A    between atoms: C_18  and  C_19 
REMARK    5  A    between atoms: C_19  and  O_20 
REMARK    6  A    between atoms: C_25  and  C_26 
ROOT
HETATM    1  C   UNL     1       7.247  26.376  54.458  1.00  0.00     0.097 C 
HETATM    2  N   UNL     1       5.893  26.740  53.994  1.00  0.00    -0.268 NA
HETATM    3  C   UNL     1       5.510  28.033  54.222  1.00  0.00     0.118 C 
HETATM    4  N   UNL     1       6.138  28.784  55.194  1.00  0.00    -0.245 N 
HETATM    5  N   UNL     1       5.769  30.070  55.204  1.00  0.00    -0.182 NA
HETATM    6  C   UNL     1       4.772  30.108  54.318  1.00  0.00     0.159 C 
HETATM    7  C   UNL     1       4.543  28.860  53.680  1.00  0.00     0.091 C 
HETATM    8  C   UNL     1       7.167  28.293  56.094  1.00  0.00     0.221 C 
HETATM    9  C   UNL     1       7.362  26.771  55.934  1.00  0.00     0.061 C 
HETATM   10  H   UNL     1       5.215  26.009  54.231  1.00  0.00     0.130 HD
ENDROOT
BRANCH   7  11
HETATM   11  C   UNL     1       3.516  28.615  52.679  1.00  0.00     0.261 C 
HETATM   12  N   UNL     1       3.792  29.145  51.435  1.00  0.00    -0.323 N 
HETATM   13  H   UNL     1       4.602  29.753  51.392  1.00  0.00     0.169 HD
HETATM   14  O   UNL     1       2.524  27.958  52.974  1.00  0.00    -0.267 OA
BRANCH  12  15
HETATM   15  C   UNL     1       3.125  28.866  50.224  1.00  0.00     0.035 A 
HETATM   16  C   UNL     1       3.547  27.902  49.307  1.00  0.00     0.030 A 
HETATM   17  C   UNL     1       2.886  27.732  48.083  1.00  0.00     0.012 A 
HETATM   18  C   UNL     1       1.788  28.528  47.742  1.00  0.00    -0.030 A 
HETATM   19  C   UNL     1       1.346  29.472  48.683  1.00  0.00     0.012 A 
HETATM   20  C   UNL     1       2.003  29.637  49.909  1.00  0.00     0.030 A 
BRANCH  18  21
HETATM   21  C   UNL     1       1.058  28.416  46.419  1.00  0.00     0.147 C 
HETATM   22  C   UNL     1      -0.360  27.853  46.472  1.00  0.00     0.044 C 
BRANCH  21  23
HETATM   23  O   UNL     1       0.987  29.703  45.806  1.00  0.00    -0.391 OA
HETATM   24  H   UNL     1       1.865  29.895  45.433  1.00  0.00     0.210 HD
ENDBRANCH  21  23
ENDBRANCH  18  21
ENDBRANCH  12  15
ENDBRANCH   7  11
BRANCH   1  25
HETATM   25  C   UNL     1       7.542  24.927  54.124  1.00  0.00    -0.040 A 
HETATM   26  C   UNL     1       7.555  23.987  55.170  1.00  0.00     0.009 A 
HETATM   27  C   UNL     1       7.723  22.624  54.916  1.00  0.00     0.007 A 
HETATM   28  C   UNL     1       7.897  22.164  53.608  1.00  0.00    -0.062 A 
HETATM   29  C   UNL     1       7.995  20.694  53.325  1.00  0.00     0.048 C 
HETATM   30  C   UNL     1       7.903  23.091  52.563  1.00  0.00     0.007 A 
HETATM   31  C   UNL     1       7.737  24.457  52.817  1.00  0.00     0.009 A 
ENDBRANCH   1  25
BRANCH   8  32
HETATM   32  C   UNL     1       6.829  28.603  57.537  1.00  0.00     0.409 C 
HETATM   33  F   UNL     1       5.509  28.446  57.795  1.00  0.00    -0.169 F 
HETATM   34  F   UNL     1       7.485  27.733  58.353  1.00  0.00    -0.169 F 
HETATM   35  F   UNL     1       7.196  29.837  57.931  1.00  0.00    -0.169 F 
ENDBRANCH   8  32
TORSDOF 6
ENDMDL
