MODEL 1
REMARK VINA RESULT:     -10.6      0.000      0.000
REMARK  4 active torsions:
REMARK  status: ('A' for Active; 'I' for Inactive)
REMARK    1  A    between atoms: C_5  and  C_6 
REMARK    2  A    between atoms: C_6  and  N_7 
REMARK    3  A    between atoms: C_17  and  C_18 
REMARK    4  A    between atoms: C_27  and  C_28 
ROOT
HETATM    1  N   UNL     1       5.882  28.937  56.241  1.00  0.00    -0.067 N 
HETATM    2  H   UNL     1       5.607  29.930  56.198  1.00  0.00     0.280 HD
HETATM    3  C   UNL     1       6.858  28.703  55.124  1.00  0.00     0.236 C 
HETATM    4  C   UNL     1       7.153  27.214  54.931  1.00  0.00     0.039 C 
HETATM    5  C   UNL     1       5.899  26.309  54.777  1.00  0.00    -0.013 C 
HETATM    6  C   UNL     1       5.210  26.464  53.391  1.00  0.00     0.244 C 
HETATM    7  N   UNL     1       6.043  25.895  52.268  1.00  0.00    -0.073 N 
HETATM    8  H   UNL     1       6.937  26.398  52.188  1.00  0.00     0.279 HD
HETATM    9  C   UNL     1       5.367  26.081  50.923  1.00  0.00     0.269 C 
HETATM   10  C   UNL     1       6.390  24.427  52.473  1.00  0.00     0.243 C 
HETATM   11  C   UNL     1       7.140  24.262  53.799  1.00  0.00     0.045 C 
HETATM   12  C   UNL     1       6.300  24.816  54.964  1.00  0.00     0.022 C 
HETATM   13  C   UNL     1       4.894  26.671  55.912  1.00  0.00     0.039 C 
HETATM   14  C   UNL     1       4.604  28.164  56.057  1.00  0.00     0.236 C 
ENDROOT
BRANCH  11  15
HETATM   15  C   UNL     1       7.547  22.820  54.017  1.00  0.00    -0.052 A 
HETATM   16  C   UNL     1       7.577  22.300  55.322  1.00  0.00     0.007 A 
HETATM   17  C   UNL     1       7.968  20.982  55.556  1.00  0.00     0.001 A 
HETATM   18  C   UNL     1       8.334  20.163  54.492  1.00  0.00     0.000 A 
HETATM   19  C   UNL     1       8.306  20.661  53.192  1.00  0.00     0.001 A 
HETATM   20  C   UNL     1       7.916  21.981  52.954  1.00  0.00     0.007 A 
ENDBRANCH  11  15
BRANCH   1  21
HETATM   21  C   UNL     1       6.458  28.812  57.655  1.00  0.00     0.277 C 
BRANCH  21  22
HETATM   22  C   UNL     1       7.289  29.941  58.151  1.00  0.00     0.011 A 
HETATM   23  C   UNL     1       6.856  31.061  58.907  1.00  0.00     0.149 A 
HETATM   24  N   UNL     1       7.822  31.935  59.152  1.00  0.00    -0.185 NA
HETATM   25  N   UNL     1       8.916  31.369  58.624  1.00  0.00    -0.278 N 
HETATM   26  C   UNL     1      10.190  32.046  58.744  1.00  0.00     0.179 C 
HETATM   27  C   UNL     1       8.661  30.147  58.040  1.00  0.00     0.043 A 
BRANCH  27  28
HETATM   28  C   UNL     1       9.766  29.267  57.453  1.00  0.00     0.038 A 
HETATM   29  C   UNL     1      10.237  29.520  56.037  1.00  0.00     0.011 A 
HETATM   30  C   UNL     1      11.157  29.783  57.180  1.00  0.00     0.011 A 
ENDBRANCH  27  28
ENDBRANCH  21  22
ENDBRANCH   1  21
TORSDOF 4
ENDMDL
MODEL 2
REMARK VINA RESULT:      -9.8      0.770      2.079
REMARK  4 active torsions:
REMARK  status: ('A' for Active; 'I' for Inactive)
REMARK    1  A    between atoms: C_5  and  C_6 
REMARK    2  A    between atoms: C_6  and  N_7 
REMARK    3  A    between atoms: C_17  and  C_18 
REMARK    4  A    between atoms: C_27  and  C_28 
ROOT
HETATM    1  N   UNL     1       5.997  28.839  56.325  1.00  0.00    -0.067 N 
HETATM    2  H   UNL     1       5.735  29.835  56.291  1.00  0.00     0.280 HD
HETATM    3  C   UNL     1       6.999  28.611  55.229  1.00  0.00     0.236 C 
HETATM    4  C   UNL     1       7.282  27.123  55.020  1.00  0.00     0.039 C 
HETATM    5  C   UNL     1       6.023  26.235  54.820  1.00  0.00    -0.013 C 
HETATM    6  C   UNL     1       5.371  26.420  53.420  1.00  0.00     0.244 C 
HETATM    7  N   UNL     1       6.226  25.859  52.309  1.00  0.00    -0.073 N 
HETATM    8  H   UNL     1       7.126  26.353  52.260  1.00  0.00     0.279 HD
HETATM    9  C   UNL     1       5.585  26.074  50.950  1.00  0.00     0.269 C 
HETATM   10  C   UNL     1       6.551  24.384  52.498  1.00  0.00     0.243 C 
HETATM   11  C   UNL     1       7.266  24.189  53.840  1.00  0.00     0.045 C 
HETATM   12  C   UNL     1       6.403  24.735  54.993  1.00  0.00     0.022 C 
HETATM   13  C   UNL     1       4.994  26.590  55.935  1.00  0.00     0.039 C 
HETATM   14  C   UNL     1       4.717  28.084  56.097  1.00  0.00     0.236 C 
ENDROOT
BRANCH  11  15
HETATM   15  C   UNL     1       7.651  22.740  54.045  1.00  0.00    -0.052 A 
HETATM   16  C   UNL     1       7.643  22.199  55.342  1.00  0.00     0.007 A 
HETATM   17  C   UNL     1       8.013  20.872  55.564  1.00  0.00     0.001 A 
HETATM   18  C   UNL     1       8.396  20.067  54.496  1.00  0.00     0.000 A 
HETATM   19  C   UNL     1       8.407  20.586  53.204  1.00  0.00     0.001 A 
HETATM   20  C   UNL     1       8.037  21.913  52.978  1.00  0.00     0.007 A 
ENDBRANCH  11  15
BRANCH   1  21
HETATM   21  C   UNL     1       6.537  28.685  57.751  1.00  0.00     0.277 C 
BRANCH  21  22
HETATM   22  C   UNL     1       7.607  29.625  58.176  1.00  0.00     0.011 A 
HETATM   23  C   UNL     1       8.999  29.515  57.926  1.00  0.00     0.149 A 
HETATM   24  N   UNL     1       9.712  30.482  58.483  1.00  0.00    -0.185 NA
HETATM   25  N   UNL     1       8.795  31.281  59.047  1.00  0.00    -0.278 N 
HETATM   26  C   UNL     1       9.227  32.483  59.726  1.00  0.00     0.179 C 
HETATM   27  C   UNL     1       7.505  30.833  58.860  1.00  0.00     0.043 A 
BRANCH  27  28
HETATM   28  C   UNL     1       6.282  31.623  59.329  1.00  0.00     0.038 A 
HETATM   29  C   UNL     1       5.735  32.727  58.450  1.00  0.00     0.011 A 
HETATM   30  C   UNL     1       4.930  31.492  58.673  1.00  0.00     0.011 A 
ENDBRANCH  27  28
ENDBRANCH  21  22
ENDBRANCH   1  21
TORSDOF 4
ENDMDL
MODEL 3
REMARK VINA RESULT:      -9.6      3.385      7.315
REMARK  4 active torsions:
REMARK  status: ('A' for Active; 'I' for Inactive)
REMARK    1  A    between atoms: C_5  and  C_6 
REMARK    2  A    between atoms: C_6  and  N_7 
REMARK    3  A    between atoms: C_17  and  C_18 
REMARK    4  A    between atoms: C_27  and  C_28 
ROOT
HETATM    1  N   UNL     1       4.863  27.848  52.114  1.00  0.00    -0.067 N 
HETATM    2  H   UNL     1       4.397  28.767  52.115  1.00  0.00     0.280 HD
HETATM    3  C   UNL     1       4.253  27.044  53.227  1.00  0.00     0.236 C 
HETATM    4  C   UNL     1       5.028  25.751  53.484  1.00  0.00     0.039 C 
HETATM    5  C   UNL     1       6.556  25.931  53.699  1.00  0.00    -0.013 C 
HETATM    6  C   UNL     1       6.903  26.544  55.086  1.00  0.00     0.244 C 
HETATM    7  N   UNL     1       6.622  25.590  56.222  1.00  0.00    -0.073 N 
HETATM    8  H   UNL     1       5.621  25.361  56.265  1.00  0.00     0.279 HD
HETATM    9  C   UNL     1       6.940  26.216  57.567  1.00  0.00     0.269 C 
HETATM   10  C   UNL     1       7.362  24.266  56.081  1.00  0.00     0.243 C 
HETATM   11  C   UNL     1       6.975  23.607  54.753  1.00  0.00     0.045 C 
HETATM   12  C   UNL     1       7.272  24.553  53.576  1.00  0.00     0.022 C 
HETATM   13  C   UNL     1       7.103  26.847  52.563  1.00  0.00     0.039 C 
HETATM   14  C   UNL     1       6.319  28.142  52.353  1.00  0.00     0.236 C 
ENDROOT
BRANCH  11  15
HETATM   15  C   UNL     1       7.653  22.262  54.596  1.00  0.00    -0.052 A 
HETATM   16  C   UNL     1       7.985  21.801  53.311  1.00  0.00     0.007 A 
HETATM   17  C   UNL     1       8.592  20.557  53.135  1.00  0.00     0.001 A 
HETATM   18  C   UNL     1       8.877  19.757  54.236  1.00  0.00     0.000 A 
HETATM   19  C   UNL     1       8.557  20.200  55.517  1.00  0.00     0.001 A 
HETATM   20  C   UNL     1       7.949  21.444  55.698  1.00  0.00     0.007 A 
ENDBRANCH  11  15
BRANCH   1  21
HETATM   21  C   UNL     1       4.582  27.332  50.699  1.00  0.00     0.277 C 
BRANCH  21  22
HETATM   22  C   UNL     1       3.930  28.275  49.752  1.00  0.00     0.011 A 
HETATM   23  C   UNL     1       4.162  29.668  49.629  1.00  0.00     0.149 A 
HETATM   24  N   UNL     1       3.384  30.254  48.730  1.00  0.00    -0.185 NA
HETATM   25  N   UNL     1       2.680  29.243  48.199  1.00  0.00    -0.278 N 
HETATM   26  C   UNL     1       1.738  29.520  47.137  1.00  0.00     0.179 C 
HETATM   27  C   UNL     1       2.996  28.021  48.752  1.00  0.00     0.043 A 
BRANCH  27  28
HETATM   28  C   UNL     1       2.394  26.708  48.247  1.00  0.00     0.038 A 
HETATM   29  C   UNL     1       2.865  26.141  46.925  1.00  0.00     0.011 A 
HETATM   30  C   UNL     1       3.181  25.422  48.193  1.00  0.00     0.011 A 
ENDBRANCH  27  28
ENDBRANCH  21  22
ENDBRANCH   1  21
TORSDOF 4
ENDMDL
MODEL 4
REMARK VINA RESULT:      -9.6      2.011      8.472
REMARK  4 active torsions:
REMARK  status: ('A' for Active; 'I' for Inactive)
REMARK    1  A    between atoms: C_5  and  C_6 
REMARK    2  A    between atoms: C_6  and  N_7 
REMARK    3  A    between atoms: C_17  and  C_18 
REMARK    4  A    between atoms: C_27  and  C_28 
ROOT
HETATM    1  N   UNL     1       5.827  25.123  55.456  1.00  0.00    -0.067 N 
HETATM    2  H   UNL     1       5.192  24.437  55.023  1.00  0.00     0.280 HD
HETATM    3  C   UNL     1       5.153  25.617  56.705  1.00  0.00     0.236 C 
HETATM    4  C   UNL     1       5.884  26.817  57.308  1.00  0.00     0.039 C 
HETATM    5  C   UNL     1       6.157  27.986  56.320  1.00  0.00    -0.013 C 
HETATM    6  C   UNL     1       4.875  28.798  55.980  1.00  0.00     0.244 C 
HETATM    7  N   UNL     1       4.375  29.603  57.156  1.00  0.00    -0.073 N 
HETATM    8  H   UNL     1       4.109  28.984  57.932  1.00  0.00     0.279 HD
HETATM    9  C   UNL     1       3.109  30.366  56.811  1.00  0.00     0.269 C 
HETATM   10  C   UNL     1       5.422  30.562  57.706  1.00  0.00     0.243 C 
HETATM   11  C   UNL     1       6.667  29.771  58.121  1.00  0.00     0.045 C 
HETATM   12  C   UNL     1       7.209  28.958  56.931  1.00  0.00     0.022 C 
HETATM   13  C   UNL     1       6.769  27.390  55.017  1.00  0.00     0.039 C 
HETATM   14  C   UNL     1       5.996  26.210  54.429  1.00  0.00     0.236 C 
ENDROOT
BRANCH  11  15
HETATM   15  C   UNL     1       7.716  30.684  58.720  1.00  0.00    -0.052 A 
HETATM   16  C   UNL     1       9.035  30.631  58.238  1.00  0.00     0.007 A 
HETATM   17  C   UNL     1      10.027  31.446  58.785  1.00  0.00     0.001 A 
HETATM   18  C   UNL     1       9.718  32.324  59.818  1.00  0.00     0.000 A 
HETATM   19  C   UNL     1       8.415  32.391  60.306  1.00  0.00     0.001 A 
HETATM   20  C   UNL     1       7.419  31.577  59.762  1.00  0.00     0.007 A 
ENDBRANCH  11  15
BRANCH   1  21
HETATM   21  C   UNL     1       7.104  24.305  55.677  1.00  0.00     0.277 C 
BRANCH  21  22
HETATM   22  C   UNL     1       7.518  23.388  54.583  1.00  0.00     0.011 A 
HETATM   23  C   UNL     1       7.814  23.730  53.239  1.00  0.00     0.149 A 
HETATM   24  N   UNL     1       8.099  22.682  52.480  1.00  0.00    -0.185 NA
HETATM   25  N   UNL     1       8.065  21.645  53.329  1.00  0.00    -0.278 N 
HETATM   26  C   UNL     1       8.371  20.318  52.837  1.00  0.00     0.179 C 
HETATM   27  C   UNL     1       7.756  22.017  54.619  1.00  0.00     0.043 A 
BRANCH  27  28
HETATM   28  C   UNL     1       7.749  21.025  55.784  1.00  0.00     0.038 A 
HETATM   29  C   UNL     1       9.061  20.443  56.265  1.00  0.00     0.011 A 
HETATM   30  C   UNL     1       8.296  21.369  57.147  1.00  0.00     0.011 A 
ENDBRANCH  27  28
ENDBRANCH  21  22
ENDBRANCH   1  21
TORSDOF 4
ENDMDL
MODEL 5
REMARK VINA RESULT:      -9.3      2.159      8.198
REMARK  4 active torsions:
REMARK  status: ('A' for Active; 'I' for Inactive)
REMARK    1  A    between atoms: C_5  and  C_6 
REMARK    2  A    between atoms: C_6  and  N_7 
REMARK    3  A    between atoms: C_17  and  C_18 
REMARK    4  A    between atoms: C_27  and  C_28 
ROOT
HETATM    1  N   UNL     1       6.482  25.733  54.381  1.00  0.00    -0.067 N 
HETATM    2  H   UNL     1       5.941  25.064  53.813  1.00  0.00     0.280 HD
HETATM    3  C   UNL     1       5.773  25.867  55.698  1.00  0.00     0.236 C 
HETATM    4  C   UNL     1       6.342  27.014  56.534  1.00  0.00     0.039 C 
HETATM    5  C   UNL     1       6.427  28.383  55.803  1.00  0.00    -0.013 C 
HETATM    6  C   UNL     1       5.037  29.058  55.623  1.00  0.00     0.244 C 
HETATM    7  N   UNL     1       4.455  29.533  56.933  1.00  0.00    -0.073 N 
HETATM    8  H   UNL     1       4.295  28.739  57.568  1.00  0.00     0.279 HD
HETATM    9  C   UNL     1       3.088  30.162  56.739  1.00  0.00     0.269 C 
HETATM   10  C   UNL     1       5.369  30.501  57.672  1.00  0.00     0.243 C 
HETATM   11  C   UNL     1       6.721  29.827  57.929  1.00  0.00     0.045 C 
HETATM   12  C   UNL     1       7.346  29.352  56.604  1.00  0.00     0.022 C 
HETATM   13  C   UNL     1       7.088  28.151  54.411  1.00  0.00     0.039 C 
HETATM   14  C   UNL     1       6.476  27.015  53.594  1.00  0.00     0.236 C 
ENDROOT
BRANCH  11  15
HETATM   15  C   UNL     1       7.644  30.741  58.706  1.00  0.00    -0.052 A 
HETATM   16  C   UNL     1       9.017  30.755  58.405  1.00  0.00     0.007 A 
HETATM   17  C   UNL     1       9.895  31.571  59.119  1.00  0.00     0.001 A 
HETATM   18  C   UNL     1       9.417  32.385  60.141  1.00  0.00     0.000 A 
HETATM   19  C   UNL     1       8.059  32.385  60.450  1.00  0.00     0.001 A 
HETATM   20  C   UNL     1       7.177  31.569  59.739  1.00  0.00     0.007 A 
ENDBRANCH  11  15
BRANCH   1  21
HETATM   21  C   UNL     1       7.865  25.076  54.442  1.00  0.00     0.277 C 
BRANCH  21  22
HETATM   22  C   UNL     1       8.023  23.916  55.359  1.00  0.00     0.011 A 
HETATM   23  C   UNL     1       8.288  23.949  56.752  1.00  0.00     0.149 A 
HETATM   24  N   UNL     1       8.434  22.746  57.289  1.00  0.00    -0.185 NA
HETATM   25  N   UNL     1       8.195  21.904  56.274  1.00  0.00    -0.278 N 
HETATM   26  C   UNL     1       8.232  20.478  56.515  1.00  0.00     0.179 C 
HETATM   27  C   UNL     1       7.905  22.554  55.094  1.00  0.00     0.043 A 
BRANCH  27  28
HETATM   28  C   UNL     1       7.506  21.809  53.819  1.00  0.00     0.038 A 
HETATM   29  C   UNL     1       8.465  21.785  52.648  1.00  0.00     0.011 A 
HETATM   30  C   UNL     1       8.170  20.525  53.387  1.00  0.00     0.011 A 
ENDBRANCH  27  28
ENDBRANCH  21  22
ENDBRANCH   1  21
TORSDOF 4
ENDMDL
MODEL 6
REMARK VINA RESULT:      -9.0      3.526      7.338
REMARK  4 active torsions:
REMARK  status: ('A' for Active; 'I' for Inactive)
REMARK    1  A    between atoms: C_5  and  C_6 
REMARK    2  A    between atoms: C_6  and  N_7 
REMARK    3  A    between atoms: C_17  and  C_18 
REMARK    4  A    between atoms: C_27  and  C_28 
ROOT
HETATM    1  N   UNL     1       7.377  26.061  55.120  1.00  0.00    -0.067 N 
HETATM    2  H   UNL     1       7.809  26.204  56.045  1.00  0.00     0.280 HD
HETATM    3  C   UNL     1       7.547  27.341  54.353  1.00  0.00     0.236 C 
HETATM    4  C   UNL     1       6.734  27.338  53.057  1.00  0.00     0.039 C 
HETATM    5  C   UNL     1       5.231  26.981  53.224  1.00  0.00    -0.013 C 
HETATM    6  C   UNL     1       4.405  28.131  53.867  1.00  0.00     0.244 C 
HETATM    7  N   UNL     1       4.258  29.318  52.946  1.00  0.00    -0.073 N 
HETATM    8  H   UNL     1       5.177  29.727  52.732  1.00  0.00     0.279 HD
HETATM    9  C   UNL     1       3.474  30.439  53.603  1.00  0.00     0.269 C 
HETATM   10  C   UNL     1       3.623  28.957  51.610  1.00  0.00     0.243 C 
HETATM   11  C   UNL     1       4.465  27.878  50.922  1.00  0.00     0.045 C 
HETATM   12  C   UNL     1       4.612  26.647  51.834  1.00  0.00     0.022 C 
HETATM   13  C   UNL     1       5.129  25.698  54.103  1.00  0.00     0.039 C 
HETATM   14  C   UNL     1       5.933  25.748  55.402  1.00  0.00     0.236 C 
ENDROOT
BRANCH  11  15
HETATM   15  C   UNL     1       3.893  27.525  49.566  1.00  0.00    -0.052 A 
HETATM   16  C   UNL     1       4.170  26.267  49.004  1.00  0.00     0.007 A 
HETATM   17  C   UNL     1       3.673  25.923  47.747  1.00  0.00     0.001 A 
HETATM   18  C   UNL     1       2.893  26.826  47.032  1.00  0.00     0.000 A 
HETATM   19  C   UNL     1       2.607  28.076  47.575  1.00  0.00     0.001 A 
HETATM   20  C   UNL     1       3.102  28.426  48.833  1.00  0.00     0.007 A 
ENDBRANCH  11  15
BRANCH   1  21
HETATM   21  C   UNL     1       8.153  24.858  54.571  1.00  0.00     0.277 C 
BRANCH  21  22
HETATM   22  C   UNL     1       8.317  23.689  55.475  1.00  0.00     0.011 A 
HETATM   23  C   UNL     1       8.136  23.656  56.882  1.00  0.00     0.149 A 
HETATM   24  N   UNL     1       8.413  22.478  57.420  1.00  0.00    -0.185 NA
HETATM   25  N   UNL     1       8.711  21.700  56.369  1.00  0.00    -0.278 N 
HETATM   26  C   UNL     1       9.033  20.307  56.590  1.00  0.00     0.179 C 
HETATM   27  C   UNL     1       8.632  22.368  55.167  1.00  0.00     0.043 A 
BRANCH  27  28
HETATM   28  C   UNL     1       8.835  21.671  53.821  1.00  0.00     0.038 A 
HETATM   29  C   UNL     1       7.791  20.689  53.334  1.00  0.00     0.011 A 
HETATM   30  C   UNL     1       7.988  21.978  52.611  1.00  0.00     0.011 A 
ENDBRANCH  27  28
ENDBRANCH  21  22
ENDBRANCH   1  21
TORSDOF 4
ENDMDL
MODEL 7
REMARK VINA RESULT:      -9.0      3.123      7.159
REMARK  4 active torsions:
REMARK  status: ('A' for Active; 'I' for Inactive)
REMARK    1  A    between atoms: C_5  and  C_6 
REMARK    2  A    between atoms: C_6  and  N_7 
REMARK    3  A    between atoms: C_17  and  C_18 
REMARK    4  A    between atoms: C_27  and  C_28 
ROOT
HETATM    1  N   UNL     1       4.561  27.958  51.964  1.00  0.00    -0.067 N 
HETATM    2  H   UNL     1       4.130  28.894  51.957  1.00  0.00     0.280 HD
HETATM    3  C   UNL     1       4.146  27.292  53.245  1.00  0.00     0.236 C 
HETATM    4  C   UNL     1       4.918  25.994  53.487  1.00  0.00     0.039 C 
HETATM    5  C   UNL     1       6.464  26.122  53.399  1.00  0.00    -0.013 C 
HETATM    6  C   UNL     1       7.080  26.846  54.630  1.00  0.00     0.244 C 
HETATM    7  N   UNL     1       6.989  26.017  55.889  1.00  0.00    -0.073 N 
HETATM    8  H   UNL     1       6.006  25.842  56.138  1.00  0.00     0.279 HD
HETATM    9  C   UNL     1       7.570  26.752  57.083  1.00  0.00     0.269 C 
HETATM   10  C   UNL     1       7.651  24.653  55.751  1.00  0.00     0.243 C 
HETATM   11  C   UNL     1       7.004  23.890  54.590  1.00  0.00     0.045 C 
HETATM   12  C   UNL     1       7.104  24.706  53.288  1.00  0.00     0.022 C 
HETATM   13  C   UNL     1       6.816  26.899  52.095  1.00  0.00     0.039 C 
HETATM   14  C   UNL     1       6.044  28.204  51.901  1.00  0.00     0.236 C 
ENDROOT
BRANCH  11  15
HETATM   15  C   UNL     1       7.602  22.506  54.449  1.00  0.00    -0.052 A 
HETATM   16  C   UNL     1       7.891  22.004  53.169  1.00  0.00     0.007 A 
HETATM   17  C   UNL     1       8.423  20.725  53.007  1.00  0.00     0.001 A 
HETATM   18  C   UNL     1       8.675  19.929  54.119  1.00  0.00     0.000 A 
HETATM   19  C   UNL     1       8.398  20.411  55.396  1.00  0.00     0.001 A 
HETATM   20  C   UNL     1       7.865  21.691  55.562  1.00  0.00     0.007 A 
ENDBRANCH  11  15
BRANCH   1  21
HETATM   21  C   UNL     1       4.006  27.324  50.684  1.00  0.00     0.277 C 
BRANCH  21  22
HETATM   22  C   UNL     1       4.287  28.027  49.404  1.00  0.00     0.011 A 
HETATM   23  C   UNL     1       5.155  27.606  48.364  1.00  0.00     0.149 A 
HETATM   24  N   UNL     1       5.243  28.476  47.368  1.00  0.00    -0.185 NA
HETATM   25  N   UNL     1       4.381  29.446  47.705  1.00  0.00    -0.278 N 
HETATM   26  C   UNL     1       4.189  30.564  46.807  1.00  0.00     0.179 C 
HETATM   27  C   UNL     1       3.747  29.209  48.905  1.00  0.00     0.043 A 
BRANCH  27  28
HETATM   28  C   UNL     1       2.652  30.125  49.455  1.00  0.00     0.038 A 
HETATM   29  C   UNL     1       1.249  30.013  48.899  1.00  0.00     0.011 A 
HETATM   30  C   UNL     1       1.519  29.614  50.310  1.00  0.00     0.011 A 
ENDBRANCH  27  28
ENDBRANCH  21  22
ENDBRANCH   1  21
TORSDOF 4
ENDMDL
MODEL 8
REMARK VINA RESULT:      -9.0      2.855      7.132
REMARK  4 active torsions:
REMARK  status: ('A' for Active; 'I' for Inactive)
REMARK    1  A    between atoms: C_5  and  C_6 
REMARK    2  A    between atoms: C_6  and  N_7 
REMARK    3  A    between atoms: C_17  and  C_18 
REMARK    4  A    between atoms: C_27  and  C_28 
ROOT
HETATM    1  N   UNL     1       7.895  25.547  57.224  1.00  0.00    -0.067 N 
HETATM    2  H   UNL     1       8.090  25.412  58.227  1.00  0.00     0.280 HD
HETATM    3  C   UNL     1       7.982  27.022  56.954  1.00  0.00     0.236 C 
HETATM    4  C   UNL     1       7.472  27.373  55.555  1.00  0.00     0.039 C 
HETATM    5  C   UNL     1       6.060  26.824  55.212  1.00  0.00    -0.013 C 
HETATM    6  C   UNL     1       4.921  27.594  55.939  1.00  0.00     0.244 C 
HETATM    7  N   UNL     1       4.753  29.001  55.417  1.00  0.00    -0.073 N 
HETATM    8  H   UNL     1       5.606  29.553  55.582  1.00  0.00     0.279 HD
HETATM    9  C   UNL     1       3.657  29.743  56.159  1.00  0.00     0.269 C 
HETATM   10  C   UNL     1       4.488  29.050  53.919  1.00  0.00     0.243 C 
HETATM   11  C   UNL     1       5.640  28.364  53.176  1.00  0.00     0.045 C 
HETATM   12  C   UNL     1       5.817  26.919  53.676  1.00  0.00     0.022 C 
HETATM   13  C   UNL     1       6.014  25.316  55.602  1.00  0.00     0.039 C 
HETATM   14  C   UNL     1       6.506  25.007  57.016  1.00  0.00     0.236 C 
ENDROOT
BRANCH  11  15
HETATM   15  C   UNL     1       5.438  28.434  51.677  1.00  0.00    -0.052 A 
HETATM   16  C   UNL     1       5.534  29.675  51.024  1.00  0.00     0.007 A 
HETATM   17  C   UNL     1       5.332  29.774  49.648  1.00  0.00     0.001 A 
HETATM   18  C   UNL     1       5.033  28.638  48.903  1.00  0.00     0.000 A 
HETATM   19  C   UNL     1       4.937  27.400  49.533  1.00  0.00     0.001 A 
HETATM   20  C   UNL     1       5.138  27.297  50.911  1.00  0.00     0.007 A 
ENDBRANCH  11  15
BRANCH   1  21
HETATM   21  C   UNL     1       8.975  24.691  56.555  1.00  0.00     0.277 C 
BRANCH  21  22
HETATM   22  C   UNL     1       8.694  23.238  56.409  1.00  0.00     0.011 A 
HETATM   23  C   UNL     1       8.405  22.309  57.442  1.00  0.00     0.149 A 
HETATM   24  N   UNL     1       8.255  21.067  57.005  1.00  0.00    -0.185 NA
HETATM   25  N   UNL     1       8.372  21.172  55.674  1.00  0.00    -0.278 N 
HETATM   26  C   UNL     1       8.222  19.988  54.855  1.00  0.00     0.179 C 
HETATM   27  C   UNL     1       8.600  22.465  55.255  1.00  0.00     0.043 A 
BRANCH  27  28
HETATM   28  C   UNL     1       8.675  22.852  53.777  1.00  0.00     0.038 A 
HETATM   29  C   UNL     1       7.394  22.984  52.982  1.00  0.00     0.011 A 
HETATM   30  C   UNL     1       8.216  24.195  53.264  1.00  0.00     0.011 A 
ENDBRANCH  27  28
ENDBRANCH  21  22
ENDBRANCH   1  21
TORSDOF 4
ENDMDL
MODEL 9
REMARK VINA RESULT:      -9.0      2.892      8.376
REMARK  4 active torsions:
REMARK  status: ('A' for Active; 'I' for Inactive)
REMARK    1  A    between atoms: C_5  and  C_6 
REMARK    2  A    between atoms: C_6  and  N_7 
REMARK    3  A    between atoms: C_17  and  C_18 
REMARK    4  A    between atoms: C_27  and  C_28 
ROOT
HETATM    1  N   UNL     1       5.621  25.921  51.683  1.00  0.00    -0.067 N 
HETATM    2  H   UNL     1       5.326  25.206  51.002  1.00  0.00     0.280 HD
HETATM    3  C   UNL     1       7.031  25.592  52.084  1.00  0.00     0.236 C 
HETATM    4  C   UNL     1       7.496  26.436  53.272  1.00  0.00     0.039 C 
HETATM    5  C   UNL     1       6.547  26.419  54.502  1.00  0.00    -0.013 C 
HETATM    6  C   UNL     1       6.606  25.079  55.290  1.00  0.00     0.244 C 
HETATM    7  N   UNL     1       7.919  24.893  56.011  1.00  0.00    -0.073 N 
HETATM    8  H   UNL     1       8.698  24.851  55.340  1.00  0.00     0.279 HD
HETATM    9  C   UNL     1       7.967  23.569  56.750  1.00  0.00     0.269 C 
HETATM   10  C   UNL     1       8.236  26.032  56.971  1.00  0.00     0.243 C 
HETATM   11  C   UNL     1       8.260  27.356  56.199  1.00  0.00     0.045 C 
HETATM   12  C   UNL     1       6.921  27.579  55.472  1.00  0.00     0.022 C 
HETATM   13  C   UNL     1       5.094  26.676  54.001  1.00  0.00     0.039 C 
HETATM   14  C   UNL     1       4.656  25.796  52.831  1.00  0.00     0.236 C 
ENDROOT
BRANCH  11  15
HETATM   15  C   UNL     1       8.620  28.510  57.110  1.00  0.00    -0.052 A 
HETATM   16  C   UNL     1       9.860  29.152  56.955  1.00  0.00     0.007 A 
HETATM   17  C   UNL     1      10.227  30.205  57.794  1.00  0.00     0.001 A 
HETATM   18  C   UNL     1       9.364  30.631  58.798  1.00  0.00     0.000 A 
HETATM   19  C   UNL     1       8.130  30.008  58.964  1.00  0.00     0.001 A 
HETATM   20  C   UNL     1       7.759  28.953  58.126  1.00  0.00     0.007 A 
ENDBRANCH  11  15
BRANCH   1  21
HETATM   21  C   UNL     1       5.448  27.224  50.896  1.00  0.00     0.277 C 
BRANCH  21  22
HETATM   22  C   UNL     1       4.652  27.157  49.642  1.00  0.00     0.011 A 
HETATM   23  C   UNL     1       4.728  26.171  48.626  1.00  0.00     0.149 A 
HETATM   24  N   UNL     1       3.930  26.413  47.597  1.00  0.00    -0.185 NA
HETATM   25  N   UNL     1       3.265  27.522  47.953  1.00  0.00    -0.278 N 
HETATM   26  C   UNL     1       2.261  28.061  47.061  1.00  0.00     0.179 C 
HETATM   27  C   UNL     1       3.634  27.994  49.194  1.00  0.00     0.043 A 
BRANCH  27  28
HETATM   28  C   UNL     1       2.951  29.191  49.856  1.00  0.00     0.038 A 
HETATM   29  C   UNL     1       1.570  29.017  50.452  1.00  0.00     0.011 A 
HETATM   30  C   UNL     1       2.733  29.280  51.347  1.00  0.00     0.011 A 
ENDBRANCH  27  28
ENDBRANCH  21  22
ENDBRANCH   1  21
TORSDOF 4
ENDMDL
MODEL 10
REMARK VINA RESULT:      -8.7      5.876     12.536
REMARK  4 active torsions:
REMARK  status: ('A' for Active; 'I' for Inactive)
REMARK    1  A    between atoms: C_5  and  C_6 
REMARK    2  A    between atoms: C_6  and  N_7 
REMARK    3  A    between atoms: C_17  and  C_18 
REMARK    4  A    between atoms: C_27  and  C_28 
ROOT
HETATM    1  N   UNL     1       5.323  32.062  60.552  1.00  0.00    -0.067 N 
HETATM    2  H   UNL     1       5.104  31.056  60.517  1.00  0.00     0.280 HD
HETATM    3  C   UNL     1       6.076  32.305  61.829  1.00  0.00     0.236 C 
HETATM    4  C   UNL     1       6.245  33.798  62.114  1.00  0.00     0.039 C 
HETATM    5  C   UNL     1       4.932  34.628  62.072  1.00  0.00    -0.013 C 
HETATM    6  C   UNL     1       4.024  34.383  63.311  1.00  0.00     0.244 C 
HETATM    7  N   UNL     1       4.616  34.951  64.579  1.00  0.00    -0.073 N 
HETATM    8  H   UNL     1       5.510  34.493  64.799  1.00  0.00     0.279 HD
HETATM    9  C   UNL     1       3.729  34.677  65.779  1.00  0.00     0.269 C 
HETATM   10  C   UNL     1       4.906  36.443  64.481  1.00  0.00     0.243 C 
HETATM   11  C   UNL     1       5.862  36.699  63.312  1.00  0.00     0.045 C 
HETATM   12  C   UNL     1       5.271  36.146  62.002  1.00  0.00     0.022 C 
HETATM   13  C   UNL     1       4.162  34.258  60.769  1.00  0.00     0.039 C 
HETATM   14  C   UNL     1       3.990  32.758  60.532  1.00  0.00     0.236 C 
ENDROOT
BRANCH  11  15
HETATM   15  C   UNL     1       6.215  38.168  63.210  1.00  0.00    -0.052 A 
HETATM   16  C   UNL     1       6.015  39.005  64.321  1.00  0.00     0.007 A 
HETATM   17  C   UNL     1       6.311  40.366  64.250  1.00  0.00     0.001 A 
HETATM   18  C   UNL     1       6.811  40.912  63.072  1.00  0.00     0.000 A 
HETATM   19  C   UNL     1       7.018  40.096  61.963  1.00  0.00     0.001 A 
HETATM   20  C   UNL     1       6.723  38.732  62.029  1.00  0.00     0.007 A 
ENDBRANCH  11  15
BRANCH   1  21
HETATM   21  C   UNL     1       6.127  32.273  59.264  1.00  0.00     0.277 C 
BRANCH  21  22
HETATM   22  C   UNL     1       6.521  31.057  58.505  1.00  0.00     0.011 A 
HETATM   23  C   UNL     1       5.752  30.358  57.540  1.00  0.00     0.149 A 
HETATM   24  N   UNL     1       6.351  29.272  57.075  1.00  0.00    -0.185 NA
HETATM   25  N   UNL     1       7.551  29.280  57.674  1.00  0.00    -0.278 N 
HETATM   26  C   UNL     1       8.503  28.235  57.363  1.00  0.00     0.179 C 
HETATM   27  C   UNL     1       7.723  30.355  58.518  1.00  0.00     0.043 A 
BRANCH  27  28
HETATM   28  C   UNL     1       9.041  30.632  59.242  1.00  0.00     0.038 A 
HETATM   29  C   UNL     1      10.053  31.559  58.604  1.00  0.00     0.011 A 
HETATM   30  C   UNL     1       9.363  31.970  59.860  1.00  0.00     0.011 A 
ENDBRANCH  27  28
ENDBRANCH  21  22
ENDBRANCH   1  21
TORSDOF 4
ENDMDL
