MODEL 1
REMARK VINA RESULT:      -9.6      0.000      0.000
REMARK  7 active torsions:
REMARK  status: ('A' for Active; 'I' for Inactive)
REMARK    1  A    between atoms: C_3  and  C_4 
REMARK    2  A    between atoms: C_4  and  N_5 
REMARK    3  A    between atoms: C_4  and  C_9 
REMARK       I    between atoms: N_5  and  C_6 
REMARK       I    between atoms: C_6  and  N_7 
REMARK    4  A    between atoms: C_9  and  C_10 
REMARK       I    between atoms: C_10  and  N_11 
REMARK    5  A    between atoms: N_11  and  C_12 
REMARK    6  A    between atoms: C_12  and  C_13 
REMARK    7  A    between atoms: C_13  and  N_14 
ROOT
HETATM    1  C   UNL     1       6.536  24.839  56.715  1.00  0.00     0.132 C 
ENDROOT
BRANCH   1   2
HETATM    2  C   UNL     1       6.774  24.786  55.199  1.00  0.00     0.128 C 
BRANCH   2   3
HETATM    3  C   UNL     1       7.350  23.452  54.724  1.00  0.00    -0.029 A 
HETATM    4  C   UNL     1       7.836  23.264  53.409  1.00  0.00    -0.054 A 
HETATM    5  C   UNL     1       7.811  24.358  52.375  1.00  0.00     0.049 C 
HETATM    6  C   UNL     1       8.351  22.010  53.035  1.00  0.00     0.007 A 
HETATM    7  C   UNL     1       8.382  20.949  53.937  1.00  0.00     0.001 A 
HETATM    8  C   UNL     1       7.898  21.121  55.226  1.00  0.00     0.001 A 
HETATM    9  C   UNL     1       7.385  22.359  55.614  1.00  0.00     0.010 A 
ENDBRANCH   2   3
BRANCH   2  10
HETATM   10  N   UNL     1       5.613  25.156  54.393  1.00  0.00    -0.334 N 
HETATM   11  C   UNL     1       5.256  26.428  54.073  1.00  0.00     0.314 C 
HETATM   12  N   UNL     1       4.088  26.490  53.390  1.00  0.00    -0.352 N 
HETATM   13  O   UNL     1       5.910  27.433  54.307  1.00  0.00    -0.248 OA
HETATM   14  H   UNL     1       3.355  25.831  53.602  1.00  0.00     0.160 HD
HETATM   15  H   UNL     1       3.769  27.433  53.204  1.00  0.00     0.160 HD
HETATM   16  H   UNL     1       4.913  24.445  54.251  1.00  0.00     0.165 HD
ENDBRANCH   2  10
ENDBRANCH   1   2
BRANCH   1  17
HETATM   17  C   UNL     1       7.465  25.834  57.368  1.00  0.00     0.219 C 
HETATM   18  N   UNL     1       7.284  27.144  56.995  1.00  0.00    -0.359 N 
HETATM   19  H   UNL     1       6.427  27.337  56.478  1.00  0.00     0.162 HD
HETATM   20  O   UNL     1       8.368  25.497  58.130  1.00  0.00    -0.274 OA
BRANCH  18  21
HETATM   21  C   UNL     1       7.911  28.311  57.612  1.00  0.00     0.150 C 
BRANCH  21  22
HETATM   22  C   UNL     1       7.262  29.704  57.442  1.00  0.00     0.254 C 
BRANCH  22  23
HETATM   23  N   UNL     1       7.032  30.435  58.739  1.00  0.00    -0.065 N 
HETATM   24  H   UNL     1       6.295  29.877  59.210  1.00  0.00     0.280 HD
HETATM   25  C   UNL     1       8.221  30.477  59.672  1.00  0.00     0.274 C 
HETATM   26  C   UNL     1       7.951  31.321  60.873  1.00  0.00    -0.019 A 
HETATM   27  C   UNL     1       6.875  32.185  60.941  1.00  0.00    -0.008 A 
HETATM   28  C   UNL     1       8.727  31.377  62.073  1.00  0.00     0.017 A 
HETATM   29  S   UNL     1       6.792  33.035  62.409  1.00  0.00    -0.106 SA
HETATM   30  C   UNL     1       5.855  32.355  59.861  1.00  0.00     0.074 C 
HETATM   31  C   UNL     1       8.207  32.268  62.988  1.00  0.00     0.051 A 
HETATM   32  C   UNL     1       6.406  31.807  58.534  1.00  0.00     0.240 C 
ENDBRANCH  22  23
ENDBRANCH  21  22
ENDBRANCH  18  21
ENDBRANCH   1  17
TORSDOF 7
ENDMDL
MODEL 2
REMARK VINA RESULT:      -9.5      1.319      1.637
REMARK  7 active torsions:
REMARK  status: ('A' for Active; 'I' for Inactive)
REMARK    1  A    between atoms: C_3  and  C_4 
REMARK    2  A    between atoms: C_4  and  N_5 
REMARK    3  A    between atoms: C_4  and  C_9 
REMARK       I    between atoms: N_5  and  C_6 
REMARK       I    between atoms: C_6  and  N_7 
REMARK    4  A    between atoms: C_9  and  C_10 
REMARK       I    between atoms: C_10  and  N_11 
REMARK    5  A    between atoms: N_11  and  C_12 
REMARK    6  A    between atoms: C_12  and  C_13 
REMARK    7  A    between atoms: C_13  and  N_14 
ROOT
HETATM    1  C   UNL     1       7.327  26.336  56.285  1.00  0.00     0.132 C 
ENDROOT
BRANCH   1   2
HETATM    2  C   UNL     1       6.946  25.903  54.861  1.00  0.00     0.128 C 
BRANCH   2   3
HETATM    3  C   UNL     1       7.328  24.457  54.547  1.00  0.00    -0.029 A 
HETATM    4  C   UNL     1       7.782  24.057  53.268  1.00  0.00    -0.054 A 
HETATM    5  C   UNL     1       7.911  25.021  52.118  1.00  0.00     0.049 C 
HETATM    6  C   UNL     1       8.115  22.709  53.044  1.00  0.00     0.007 A 
HETATM    7  C   UNL     1       7.997  21.762  54.059  1.00  0.00     0.001 A 
HETATM    8  C   UNL     1       7.543  22.144  55.313  1.00  0.00     0.001 A 
HETATM    9  C   UNL     1       7.210  23.476  55.554  1.00  0.00     0.010 A 
ENDBRANCH   2   3
BRANCH   2  10
HETATM   10  N   UNL     1       5.550  26.151  54.509  1.00  0.00    -0.334 N 
HETATM   11  C   UNL     1       5.126  27.016  53.551  1.00  0.00     0.314 C 
HETATM   12  N   UNL     1       3.777  27.116  53.493  1.00  0.00    -0.352 N 
HETATM   13  O   UNL     1       5.843  27.621  52.768  1.00  0.00    -0.248 OA
HETATM   14  H   UNL     1       3.238  27.049  54.343  1.00  0.00     0.160 HD
HETATM   15  H   UNL     1       3.443  27.809  52.834  1.00  0.00     0.160 HD
HETATM   16  H   UNL     1       4.853  25.828  55.163  1.00  0.00     0.165 HD
ENDBRANCH   2  10
ENDBRANCH   1   2
BRANCH   1  17
HETATM   17  C   UNL     1       7.460  27.837  56.371  1.00  0.00     0.219 C 
HETATM   18  N   UNL     1       7.293  28.373  57.626  1.00  0.00    -0.359 N 
HETATM   19  H   UNL     1       7.296  27.701  58.392  1.00  0.00     0.162 HD
HETATM   20  O   UNL     1       7.636  28.545  55.382  1.00  0.00    -0.274 OA
BRANCH  18  21
HETATM   21  C   UNL     1       7.557  29.757  58.014  1.00  0.00     0.150 C 
BRANCH  21  22
HETATM   22  C   UNL     1       8.357  30.047  59.304  1.00  0.00     0.254 C 
BRANCH  22  23
HETATM   23  N   UNL     1       7.609  30.876  60.316  1.00  0.00    -0.065 N 
HETATM   24  H   UNL     1       6.891  30.225  60.686  1.00  0.00     0.280 HD
HETATM   25  C   UNL     1       8.431  31.346  61.494  1.00  0.00     0.274 C 
HETATM   26  C   UNL     1       7.652  32.260  62.381  1.00  0.00    -0.019 A 
HETATM   27  C   UNL     1       6.456  32.829  61.987  1.00  0.00    -0.008 A 
HETATM   28  C   UNL     1       8.006  32.679  63.702  1.00  0.00     0.017 A 
HETATM   29  S   UNL     1       5.771  33.833  63.172  1.00  0.00    -0.106 SA
HETATM   30  C   UNL     1       5.794  32.582  60.670  1.00  0.00     0.074 C 
HETATM   31  C   UNL     1       7.071  33.535  64.245  1.00  0.00     0.051 A 
HETATM   32  C   UNL     1       6.814  32.004  59.674  1.00  0.00     0.240 C 
ENDBRANCH  22  23
ENDBRANCH  21  22
ENDBRANCH  18  21
ENDBRANCH   1  17
TORSDOF 7
ENDMDL
MODEL 3
REMARK VINA RESULT:      -8.8      3.216      8.941
REMARK  7 active torsions:
REMARK  status: ('A' for Active; 'I' for Inactive)
REMARK    1  A    between atoms: C_3  and  C_4 
REMARK    2  A    between atoms: C_4  and  N_5 
REMARK    3  A    between atoms: C_4  and  C_9 
REMARK       I    between atoms: N_5  and  C_6 
REMARK       I    between atoms: C_6  and  N_7 
REMARK    4  A    between atoms: C_9  and  C_10 
REMARK       I    between atoms: C_10  and  N_11 
REMARK    5  A    between atoms: N_11  and  C_12 
REMARK    6  A    between atoms: C_12  and  C_13 
REMARK    7  A    between atoms: C_13  and  N_14 
ROOT
HETATM    1  C   UNL     1       8.393  28.946  55.310  1.00  0.00     0.132 C 
ENDROOT
BRANCH   1   2
HETATM    2  C   UNL     1       8.532  28.529  56.782  1.00  0.00     0.128 C 
BRANCH   2   3
HETATM    3  C   UNL     1       8.676  29.715  57.735  1.00  0.00    -0.029 A 
HETATM    4  C   UNL     1       9.911  30.372  57.942  1.00  0.00    -0.054 A 
HETATM    5  C   UNL     1      11.179  29.946  57.250  1.00  0.00     0.049 C 
HETATM    6  C   UNL     1       9.975  31.456  58.835  1.00  0.00     0.007 A 
HETATM    7  C   UNL     1       8.844  31.887  59.525  1.00  0.00     0.001 A 
HETATM    8  C   UNL     1       7.631  31.242  59.335  1.00  0.00     0.001 A 
HETATM    9  C   UNL     1       7.548  30.166  58.451  1.00  0.00     0.010 A 
ENDBRANCH   2   3
BRANCH   2  10
HETATM   10  N   UNL     1       7.491  27.619  57.252  1.00  0.00    -0.334 N 
HETATM   11  C   UNL     1       7.683  26.318  57.592  1.00  0.00     0.314 C 
HETATM   12  N   UNL     1       6.530  25.681  57.909  1.00  0.00    -0.352 N 
HETATM   13  O   UNL     1       8.764  25.753  57.669  1.00  0.00    -0.248 OA
HETATM   14  H   UNL     1       5.681  25.924  57.422  1.00  0.00     0.160 HD
HETATM   15  H   UNL     1       6.644  24.693  58.096  1.00  0.00     0.160 HD
HETATM   16  H   UNL     1       6.536  27.908  57.104  1.00  0.00     0.165 HD
ENDBRANCH   2  10
ENDBRANCH   1   2
BRANCH   1  17
HETATM   17  C   UNL     1       7.171  28.316  54.688  1.00  0.00     0.219 C 
HETATM   18  N   UNL     1       7.414  27.481  53.623  1.00  0.00    -0.359 N 
HETATM   19  H   UNL     1       8.388  27.217  53.490  1.00  0.00     0.162 HD
HETATM   20  O   UNL     1       6.028  28.581  55.056  1.00  0.00    -0.274 OA
BRANCH  18  21
HETATM   21  C   UNL     1       6.439  26.607  52.974  1.00  0.00     0.150 C 
BRANCH  21  22
HETATM   22  C   UNL     1       6.927  25.346  52.226  1.00  0.00     0.254 C 
BRANCH  22  23
HETATM   23  N   UNL     1       7.065  24.128  53.103  1.00  0.00    -0.065 N 
HETATM   24  H   UNL     1       6.106  23.731  53.126  1.00  0.00     0.280 HD
HETATM   25  C   UNL     1       7.979  23.051  52.566  1.00  0.00     0.274 C 
HETATM   26  C   UNL     1       8.157  21.939  53.546  1.00  0.00    -0.019 A 
HETATM   27  C   UNL     1       7.784  22.057  54.871  1.00  0.00    -0.008 A 
HETATM   28  C   UNL     1       8.725  20.652  53.287  1.00  0.00     0.017 A 
HETATM   29  S   UNL     1       8.097  20.657  55.780  1.00  0.00    -0.106 SA
HETATM   30  C   UNL     1       7.142  23.268  55.466  1.00  0.00     0.074 C 
HETATM   31  C   UNL     1       8.751  19.859  54.415  1.00  0.00     0.051 A 
HETATM   32  C   UNL     1       7.372  24.483  54.551  1.00  0.00     0.240 C 
ENDBRANCH  22  23
ENDBRANCH  21  22
ENDBRANCH  18  21
ENDBRANCH   1  17
TORSDOF 7
ENDMDL
MODEL 4
REMARK VINA RESULT:      -8.7      5.853      9.724
REMARK  7 active torsions:
REMARK  status: ('A' for Active; 'I' for Inactive)
REMARK    1  A    between atoms: C_3  and  C_4 
REMARK    2  A    between atoms: C_4  and  N_5 
REMARK    3  A    between atoms: C_4  and  C_9 
REMARK       I    between atoms: N_5  and  C_6 
REMARK       I    between atoms: C_6  and  N_7 
REMARK    4  A    between atoms: C_9  and  C_10 
REMARK       I    between atoms: C_10  and  N_11 
REMARK    5  A    between atoms: N_11  and  C_12 
REMARK    6  A    between atoms: C_12  and  C_13 
REMARK    7  A    between atoms: C_13  and  N_14 
ROOT
HETATM    1  C   UNL     1       4.892  25.169  53.484  1.00  0.00     0.132 C 
ENDROOT
BRANCH   1   2
HETATM    2  C   UNL     1       6.207  25.302  54.266  1.00  0.00     0.128 C 
BRANCH   2   3
HETATM    3  C   UNL     1       7.059  24.033  54.236  1.00  0.00    -0.029 A 
HETATM    4  C   UNL     1       7.676  23.511  55.397  1.00  0.00    -0.054 A 
HETATM    5  C   UNL     1       7.552  24.170  56.745  1.00  0.00     0.049 C 
HETATM    6  C   UNL     1       8.449  22.340  55.300  1.00  0.00     0.007 A 
HETATM    7  C   UNL     1       8.623  21.692  54.078  1.00  0.00     0.001 A 
HETATM    8  C   UNL     1       8.029  22.204  52.934  1.00  0.00     0.001 A 
HETATM    9  C   UNL     1       7.257  23.363  53.011  1.00  0.00     0.010 A 
ENDBRANCH   2   3
BRANCH   2  10
HETATM   10  N   UNL     1       7.011  26.465  53.901  1.00  0.00    -0.334 N 
HETATM   11  C   UNL     1       7.342  27.482  54.739  1.00  0.00     0.314 C 
HETATM   12  N   UNL     1       8.020  28.477  54.117  1.00  0.00    -0.352 N 
HETATM   13  O   UNL     1       7.121  27.518  55.940  1.00  0.00    -0.248 OA
HETATM   14  H   UNL     1       7.797  28.704  53.160  1.00  0.00     0.160 HD
HETATM   15  H   UNL     1       8.213  29.276  54.708  1.00  0.00     0.160 HD
HETATM   16  H   UNL     1       7.142  26.635  52.915  1.00  0.00     0.165 HD
ENDBRANCH   2  10
ENDBRANCH   1   2
BRANCH   1  17
HETATM   17  C   UNL     1       4.791  26.235  52.419  1.00  0.00     0.219 C 
HETATM   18  N   UNL     1       5.009  25.805  51.132  1.00  0.00    -0.359 N 
HETATM   19  H   UNL     1       5.018  24.795  51.004  1.00  0.00     0.162 HD
HETATM   20  O   UNL     1       4.597  27.419  52.683  1.00  0.00    -0.274 OA
BRANCH  18  21
HETATM   21  C   UNL     1       4.784  26.583  49.915  1.00  0.00     0.150 C 
BRANCH  21  22
HETATM   22  C   UNL     1       3.857  26.020  48.813  1.00  0.00     0.254 C 
BRANCH  22  23
HETATM   23  N   UNL     1       2.979  27.058  48.162  1.00  0.00    -0.065 N 
HETATM   24  H   UNL     1       3.615  27.534  47.493  1.00  0.00     0.280 HD
HETATM   25  C   UNL     1       1.823  26.508  47.360  1.00  0.00     0.274 C 
HETATM   26  C   UNL     1       0.936  27.596  46.852  1.00  0.00    -0.019 A 
HETATM   27  C   UNL     1       1.009  28.890  47.331  1.00  0.00    -0.008 A 
HETATM   28  C   UNL     1      -0.084  27.476  45.856  1.00  0.00     0.017 A 
HETATM   29  S   UNL     1      -0.110  29.937  46.598  1.00  0.00    -0.106 SA
HETATM   30  C   UNL     1       1.980  29.358  48.366  1.00  0.00     0.074 C 
HETATM   31  C   UNL     1      -0.727  28.673  45.624  1.00  0.00     0.051 A 
HETATM   32  C   UNL     1       2.548  28.150  49.130  1.00  0.00     0.240 C 
ENDBRANCH  22  23
ENDBRANCH  21  22
ENDBRANCH  18  21
ENDBRANCH   1  17
TORSDOF 7
ENDMDL
MODEL 5
REMARK VINA RESULT:      -8.7      1.441      1.878
REMARK  7 active torsions:
REMARK  status: ('A' for Active; 'I' for Inactive)
REMARK    1  A    between atoms: C_3  and  C_4 
REMARK    2  A    between atoms: C_4  and  N_5 
REMARK    3  A    between atoms: C_4  and  C_9 
REMARK       I    between atoms: N_5  and  C_6 
REMARK       I    between atoms: C_6  and  N_7 
REMARK    4  A    between atoms: C_9  and  C_10 
REMARK       I    between atoms: C_10  and  N_11 
REMARK    5  A    between atoms: N_11  and  C_12 
REMARK    6  A    between atoms: C_12  and  C_13 
REMARK    7  A    between atoms: C_13  and  N_14 
ROOT
HETATM    1  C   UNL     1       5.902  24.529  55.205  1.00  0.00     0.132 C 
ENDROOT
BRANCH   1   2
HETATM    2  C   UNL     1       7.090  24.414  54.239  1.00  0.00     0.128 C 
BRANCH   2   3
HETATM    3  C   UNL     1       7.729  23.026  54.230  1.00  0.00    -0.029 A 
HETATM    4  C   UNL     1       8.523  22.552  55.300  1.00  0.00    -0.054 A 
HETATM    5  C   UNL     1       8.809  23.384  56.523  1.00  0.00     0.049 C 
HETATM    6  C   UNL     1       9.084  21.265  55.227  1.00  0.00     0.007 A 
HETATM    7  C   UNL     1       8.876  20.453  54.115  1.00  0.00     0.001 A 
HETATM    8  C   UNL     1       8.107  20.913  53.055  1.00  0.00     0.001 A 
HETATM    9  C   UNL     1       7.542  22.187  53.112  1.00  0.00     0.010 A 
ENDBRANCH   2   3
BRANCH   2  10
HETATM   10  N   UNL     1       6.804  24.854  52.876  1.00  0.00    -0.334 N 
HETATM   11  C   UNL     1       6.644  26.146  52.488  1.00  0.00     0.314 C 
HETATM   12  N   UNL     1       6.299  26.264  51.183  1.00  0.00    -0.352 N 
HETATM   13  O   UNL     1       6.832  27.130  53.187  1.00  0.00    -0.248 OA
HETATM   14  H   UNL     1       5.704  25.566  50.764  1.00  0.00     0.160 HD
HETATM   15  H   UNL     1       6.106  27.215  50.893  1.00  0.00     0.160 HD
HETATM   16  H   UNL     1       6.487  24.148  52.229  1.00  0.00     0.165 HD
ENDBRANCH   2  10
ENDBRANCH   1   2
BRANCH   1  17
HETATM   17  C   UNL     1       6.204  25.510  56.313  1.00  0.00     0.219 C 
HETATM   18  N   UNL     1       7.199  26.419  56.041  1.00  0.00    -0.359 N 
HETATM   19  H   UNL     1       7.489  26.470  55.066  1.00  0.00     0.162 HD
HETATM   20  O   UNL     1       5.653  25.462  57.410  1.00  0.00    -0.274 OA
BRANCH  18  21
HETATM   21  C   UNL     1       7.549  27.582  56.854  1.00  0.00     0.150 C 
BRANCH  21  22
HETATM   22  C   UNL     1       6.628  28.824  56.844  1.00  0.00     0.254 C 
BRANCH  22  23
HETATM   23  N   UNL     1       6.775  29.706  58.057  1.00  0.00    -0.065 N 
HETATM   24  H   UNL     1       6.080  29.322  58.725  1.00  0.00     0.280 HD
HETATM   25  C   UNL     1       8.124  29.645  58.735  1.00  0.00     0.274 C 
HETATM   26  C   UNL     1       8.228  30.634  59.848  1.00  0.00    -0.019 A 
HETATM   27  C   UNL     1       7.319  31.664  60.007  1.00  0.00    -0.008 A 
HETATM   28  C   UNL     1       9.235  30.681  60.862  1.00  0.00     0.017 A 
HETATM   29  S   UNL     1       7.660  32.654  61.343  1.00  0.00    -0.106 SA
HETATM   30  C   UNL     1       6.133  31.890  59.127  1.00  0.00     0.074 C 
HETATM   31  C   UNL     1       9.044  31.729  61.738  1.00  0.00     0.051 A 
HETATM   32  C   UNL     1       6.317  31.134  57.800  1.00  0.00     0.240 C 
ENDBRANCH  22  23
ENDBRANCH  21  22
ENDBRANCH  18  21
ENDBRANCH   1  17
TORSDOF 7
ENDMDL
MODEL 6
REMARK VINA RESULT:      -8.6      1.885      3.314
REMARK  7 active torsions:
REMARK  status: ('A' for Active; 'I' for Inactive)
REMARK    1  A    between atoms: C_3  and  C_4 
REMARK    2  A    between atoms: C_4  and  N_5 
REMARK    3  A    between atoms: C_4  and  C_9 
REMARK       I    between atoms: N_5  and  C_6 
REMARK       I    between atoms: C_6  and  N_7 
REMARK    4  A    between atoms: C_9  and  C_10 
REMARK       I    between atoms: C_10  and  N_11 
REMARK    5  A    between atoms: N_11  and  C_12 
REMARK    6  A    between atoms: C_12  and  C_13 
REMARK    7  A    between atoms: C_13  and  N_14 
ROOT
HETATM    1  C   UNL     1       6.253  24.324  53.981  1.00  0.00     0.132 C 
ENDROOT
BRANCH   1   2
HETATM    2  C   UNL     1       6.990  23.551  55.085  1.00  0.00     0.128 C 
BRANCH   2   3
HETATM    3  C   UNL     1       7.651  22.267  54.585  1.00  0.00    -0.029 A 
HETATM    4  C   UNL     1       8.179  21.296  55.467  1.00  0.00    -0.054 A 
HETATM    5  C   UNL     1       8.141  21.459  56.964  1.00  0.00     0.049 C 
HETATM    6  C   UNL     1       8.777  20.137  54.941  1.00  0.00     0.007 A 
HETATM    7  C   UNL     1       8.865  19.935  53.566  1.00  0.00     0.001 A 
HETATM    8  C   UNL     1       8.359  20.888  52.693  1.00  0.00     0.001 A 
HETATM    9  C   UNL     1       7.761  22.042  53.197  1.00  0.00     0.010 A 
ENDBRANCH   2   3
BRANCH   2  10
HETATM   10  N   UNL     1       7.942  24.352  55.849  1.00  0.00    -0.334 N 
HETATM   11  C   UNL     1       7.631  25.122  56.925  1.00  0.00     0.314 C 
HETATM   12  N   UNL     1       8.690  25.828  57.389  1.00  0.00    -0.352 N 
HETATM   13  O   UNL     1       6.544  25.166  57.481  1.00  0.00    -0.248 OA
HETATM   14  H   UNL     1       9.376  26.178  56.738  1.00  0.00     0.160 HD
HETATM   15  H   UNL     1       8.463  26.462  58.146  1.00  0.00     0.160 HD
HETATM   16  H   UNL     1       8.840  24.519  55.422  1.00  0.00     0.165 HD
ENDBRANCH   2  10
ENDBRANCH   1   2
BRANCH   1  17
HETATM   17  C   UNL     1       6.934  25.643  53.704  1.00  0.00     0.219 C 
HETATM   18  N   UNL     1       6.280  26.756  54.175  1.00  0.00    -0.359 N 
HETATM   19  H   UNL     1       5.519  26.572  54.826  1.00  0.00     0.162 HD
HETATM   20  O   UNL     1       7.967  25.729  53.043  1.00  0.00    -0.274 OA
BRANCH  18  21
HETATM   21  C   UNL     1       6.812  28.117  54.210  1.00  0.00     0.150 C 
BRANCH  21  22
HETATM   22  C   UNL     1       8.107  28.409  55.002  1.00  0.00     0.254 C 
BRANCH  22  23
HETATM   23  N   UNL     1       7.877  29.115  56.313  1.00  0.00    -0.065 N 
HETATM   24  H   UNL     1       7.676  28.342  56.976  1.00  0.00     0.280 HD
HETATM   25  C   UNL     1       9.072  29.865  56.855  1.00  0.00     0.274 C 
HETATM   26  C   UNL     1       8.728  30.634  58.088  1.00  0.00    -0.019 A 
HETATM   27  C   UNL     1       7.420  30.863  58.474  1.00  0.00    -0.008 A 
HETATM   28  C   UNL     1       9.644  31.234  59.007  1.00  0.00     0.017 A 
HETATM   29  S   UNL     1       7.296  31.766  59.906  1.00  0.00    -0.106 SA
HETATM   30  C   UNL     1       6.220  30.356  57.742  1.00  0.00     0.074 C 
HETATM   31  C   UNL     1       8.997  31.881  60.039  1.00  0.00     0.051 A 
HETATM   32  C   UNL     1       6.612  29.960  56.308  1.00  0.00     0.240 C 
ENDBRANCH  22  23
ENDBRANCH  21  22
ENDBRANCH  18  21
ENDBRANCH   1  17
TORSDOF 7
ENDMDL
MODEL 7
REMARK VINA RESULT:      -8.5      5.810      8.777
REMARK  7 active torsions:
REMARK  status: ('A' for Active; 'I' for Inactive)
REMARK    1  A    between atoms: C_3  and  C_4 
REMARK    2  A    between atoms: C_4  and  N_5 
REMARK    3  A    between atoms: C_4  and  C_9 
REMARK       I    between atoms: N_5  and  C_6 
REMARK       I    between atoms: C_6  and  N_7 
REMARK    4  A    between atoms: C_9  and  C_10 
REMARK       I    between atoms: C_10  and  N_11 
REMARK    5  A    between atoms: N_11  and  C_12 
REMARK    6  A    between atoms: C_12  and  C_13 
REMARK    7  A    between atoms: C_13  and  N_14 
ROOT
HETATM    1  C   UNL     1       7.895  25.075  54.280  1.00  0.00     0.132 C 
ENDROOT
BRANCH   1   2
HETATM    2  C   UNL     1       6.926  24.029  54.851  1.00  0.00     0.128 C 
BRANCH   2   3
HETATM    3  C   UNL     1       7.614  22.725  55.255  1.00  0.00    -0.029 A 
HETATM    4  C   UNL     1       7.976  21.738  54.309  1.00  0.00    -0.054 A 
HETATM    5  C   UNL     1       7.700  21.889  52.836  1.00  0.00     0.049 C 
HETATM    6  C   UNL     1       8.605  20.559  54.748  1.00  0.00     0.007 A 
HETATM    7  C   UNL     1       8.870  20.345  56.099  1.00  0.00     0.001 A 
HETATM    8  C   UNL     1       8.508  21.305  57.035  1.00  0.00     0.001 A 
HETATM    9  C   UNL     1       7.886  22.481  56.617  1.00  0.00     0.010 A 
ENDBRANCH   2   3
BRANCH   2  10
HETATM   10  N   UNL     1       6.082  24.518  55.937  1.00  0.00    -0.334 N 
HETATM   11  C   UNL     1       5.360  25.669  55.909  1.00  0.00     0.314 C 
HETATM   12  N   UNL     1       4.736  25.926  57.084  1.00  0.00    -0.352 N 
HETATM   13  O   UNL     1       5.216  26.398  54.939  1.00  0.00    -0.248 OA
HETATM   14  H   UNL     1       5.184  25.668  57.949  1.00  0.00     0.160 HD
HETATM   15  H   UNL     1       4.250  26.815  57.106  1.00  0.00     0.160 HD
HETATM   16  H   UNL     1       6.214  24.093  56.842  1.00  0.00     0.165 HD
ENDBRANCH   2  10
ENDBRANCH   1   2
BRANCH   1  17
HETATM   17  C   UNL     1       7.622  25.315  52.814  1.00  0.00     0.219 C 
HETATM   18  N   UNL     1       6.310  25.568  52.492  1.00  0.00    -0.359 N 
HETATM   19  H   UNL     1       5.696  25.763  53.282  1.00  0.00     0.162 HD
HETATM   20  O   UNL     1       8.495  25.225  51.954  1.00  0.00    -0.274 OA
BRANCH  18  21
HETATM   21  C   UNL     1       5.813  26.018  51.194  1.00  0.00     0.150 C 
BRANCH  21  22
HETATM   22  C   UNL     1       4.953  27.300  51.111  1.00  0.00     0.254 C 
BRANCH  22  23
HETATM   23  N   UNL     1       3.833  27.223  50.106  1.00  0.00    -0.065 N 
HETATM   24  H   UNL     1       3.080  26.721  50.615  1.00  0.00     0.280 HD
HETATM   25  C   UNL     1       3.266  28.555  49.674  1.00  0.00     0.274 C 
HETATM   26  C   UNL     1       2.249  28.397  48.591  1.00  0.00    -0.019 A 
HETATM   27  C   UNL     1       2.101  27.219  47.885  1.00  0.00    -0.008 A 
HETATM   28  C   UNL     1       1.329  29.389  48.129  1.00  0.00     0.017 A 
HETATM   29  S   UNL     1       0.883  27.297  46.704  1.00  0.00    -0.106 SA
HETATM   30  C   UNL     1       2.896  25.978  48.130  1.00  0.00     0.074 C 
HETATM   31  C   UNL     1       0.529  28.922  47.107  1.00  0.00     0.051 A 
HETATM   32  C   UNL     1       4.167  26.322  48.925  1.00  0.00     0.240 C 
ENDBRANCH  22  23
ENDBRANCH  21  22
ENDBRANCH  18  21
ENDBRANCH   1  17
TORSDOF 7
ENDMDL
MODEL 8
REMARK VINA RESULT:      -8.4      3.547     10.054
REMARK  7 active torsions:
REMARK  status: ('A' for Active; 'I' for Inactive)
REMARK    1  A    between atoms: C_3  and  C_4 
REMARK    2  A    between atoms: C_4  and  N_5 
REMARK    3  A    between atoms: C_4  and  C_9 
REMARK       I    between atoms: N_5  and  C_6 
REMARK       I    between atoms: C_6  and  N_7 
REMARK    4  A    between atoms: C_9  and  C_10 
REMARK       I    between atoms: C_10  and  N_11 
REMARK    5  A    between atoms: N_11  and  C_12 
REMARK    6  A    between atoms: C_12  and  C_13 
REMARK    7  A    between atoms: C_13  and  N_14 
ROOT
HETATM    1  C   UNL     1       7.428  31.539  58.603  1.00  0.00     0.132 C 
ENDROOT
BRANCH   1   2
HETATM    2  C   UNL     1       7.213  31.914  60.077  1.00  0.00     0.128 C 
BRANCH   2   3
HETATM    3  C   UNL     1       5.804  32.427  60.371  1.00  0.00    -0.029 A 
HETATM    4  C   UNL     1       5.542  33.372  61.390  1.00  0.00    -0.054 A 
HETATM    5  C   UNL     1       6.627  33.934  62.270  1.00  0.00     0.049 C 
HETATM    6  C   UNL     1       4.221  33.801  61.611  1.00  0.00     0.007 A 
HETATM    7  C   UNL     1       3.167  33.304  60.847  1.00  0.00     0.001 A 
HETATM    8  C   UNL     1       3.414  32.369  59.853  1.00  0.00     0.001 A 
HETATM    9  C   UNL     1       4.718  31.934  59.619  1.00  0.00     0.010 A 
ENDBRANCH   2   3
BRANCH   2  10
HETATM   10  N   UNL     1       7.584  30.868  61.026  1.00  0.00    -0.334 N 
HETATM   11  C   UNL     1       8.663  30.905  61.850  1.00  0.00     0.314 C 
HETATM   12  N   UNL     1       8.820  29.763  62.563  1.00  0.00    -0.352 N 
HETATM   13  O   UNL     1       9.409  31.860  62.006  1.00  0.00    -0.248 OA
HETATM   14  H   UNL     1       8.575  28.880  62.143  1.00  0.00     0.160 HD
HETATM   15  H   UNL     1       9.659  29.744  63.130  1.00  0.00     0.160 HD
HETATM   16  H   UNL     1       7.142  29.969  60.906  1.00  0.00     0.165 HD
ENDBRANCH   2  10
ENDBRANCH   1   2
BRANCH   1  17
HETATM   17  C   UNL     1       7.799  30.082  58.469  1.00  0.00     0.219 C 
HETATM   18  N   UNL     1       6.821  29.269  57.949  1.00  0.00    -0.359 N 
HETATM   19  H   UNL     1       6.030  29.753  57.527  1.00  0.00     0.162 HD
HETATM   20  O   UNL     1       8.874  29.633  58.860  1.00  0.00    -0.274 OA
BRANCH  18  21
HETATM   21  C   UNL     1       6.985  27.875  57.541  1.00  0.00     0.150 C 
BRANCH  21  22
HETATM   22  C   UNL     1       6.962  27.514  56.038  1.00  0.00     0.254 C 
BRANCH  22  23
HETATM   23  N   UNL     1       7.079  26.038  55.760  1.00  0.00    -0.065 N 
HETATM   24  H   UNL     1       6.131  25.672  55.969  1.00  0.00     0.280 HD
HETATM   25  C   UNL     1       7.388  25.678  54.326  1.00  0.00     0.274 C 
HETATM   26  C   UNL     1       7.610  24.210  54.160  1.00  0.00    -0.019 A 
HETATM   27  C   UNL     1       7.811  23.369  55.238  1.00  0.00    -0.008 A 
HETATM   28  C   UNL     1       7.660  23.485  52.929  1.00  0.00     0.017 A 
HETATM   29  S   UNL     1       8.045  21.749  54.785  1.00  0.00    -0.106 SA
HETATM   30  C   UNL     1       7.800  23.805  56.667  1.00  0.00     0.074 C 
HETATM   31  C   UNL     1       7.890  22.140  53.126  1.00  0.00     0.051 A 
HETATM   32  C   UNL     1       7.994  25.328  56.748  1.00  0.00     0.240 C 
ENDBRANCH  22  23
ENDBRANCH  21  22
ENDBRANCH  18  21
ENDBRANCH   1  17
TORSDOF 7
ENDMDL
MODEL 9
REMARK VINA RESULT:      -8.4      4.602      7.836
REMARK  7 active torsions:
REMARK  status: ('A' for Active; 'I' for Inactive)
REMARK    1  A    between atoms: C_3  and  C_4 
REMARK    2  A    between atoms: C_4  and  N_5 
REMARK    3  A    between atoms: C_4  and  C_9 
REMARK       I    between atoms: N_5  and  C_6 
REMARK       I    between atoms: C_6  and  N_7 
REMARK    4  A    between atoms: C_9  and  C_10 
REMARK       I    between atoms: C_10  and  N_11 
REMARK    5  A    between atoms: N_11  and  C_12 
REMARK    6  A    between atoms: C_12  and  C_13 
REMARK    7  A    between atoms: C_13  and  N_14 
ROOT
HETATM    1  C   UNL     1       5.347  25.630  54.959  1.00  0.00     0.132 C 
ENDROOT
BRANCH   1   2
HETATM    2  C   UNL     1       6.709  25.317  55.597  1.00  0.00     0.128 C 
BRANCH   2   3
HETATM    3  C   UNL     1       7.448  24.169  54.910  1.00  0.00    -0.029 A 
HETATM    4  C   UNL     1       8.236  23.241  55.630  1.00  0.00    -0.054 A 
HETATM    5  C   UNL     1       8.419  23.322  57.122  1.00  0.00     0.049 C 
HETATM    6  C   UNL     1       8.893  22.208  54.937  1.00  0.00     0.007 A 
HETATM    7  C   UNL     1       8.784  22.090  53.553  1.00  0.00     0.001 A 
HETATM    8  C   UNL     1       8.020  23.002  52.838  1.00  0.00     0.001 A 
HETATM    9  C   UNL     1       7.361  24.031  53.509  1.00  0.00     0.010 A 
ENDBRANCH   2   3
BRANCH   2  10
HETATM   10  N   UNL     1       7.587  26.475  55.742  1.00  0.00    -0.334 N 
HETATM   11  C   UNL     1       7.945  27.043  56.923  1.00  0.00     0.314 C 
HETATM   12  N   UNL     1       8.697  28.159  56.764  1.00  0.00    -0.352 N 
HETATM   13  O   UNL     1       7.685  26.604  58.033  1.00  0.00    -0.248 OA
HETATM   14  H   UNL     1       8.520  28.767  55.979  1.00  0.00     0.160 HD
HETATM   15  H   UNL     1       8.914  28.636  57.630  1.00  0.00     0.160 HD
HETATM   16  H   UNL     1       7.761  27.020  54.911  1.00  0.00     0.165 HD
ENDBRANCH   2  10
ENDBRANCH   1   2
BRANCH   1  17
HETATM   17  C   UNL     1       5.362  26.990  54.302  1.00  0.00     0.219 C 
HETATM   18  N   UNL     1       4.435  27.886  54.778  1.00  0.00    -0.359 N 
HETATM   19  H   UNL     1       3.974  27.617  55.646  1.00  0.00     0.162 HD
HETATM   20  O   UNL     1       6.102  27.262  53.359  1.00  0.00    -0.274 OA
BRANCH  18  21
HETATM   21  C   UNL     1       4.368  29.310  54.455  1.00  0.00     0.150 C 
BRANCH  21  22
HETATM   22  C   UNL     1       3.469  29.783  53.290  1.00  0.00     0.254 C 
BRANCH  22  23
HETATM   23  N   UNL     1       3.825  29.180  51.956  1.00  0.00    -0.065 N 
HETATM   24  H   UNL     1       4.187  28.238  52.201  1.00  0.00     0.280 HD
HETATM   25  C   UNL     1       2.661  28.976  51.013  1.00  0.00     0.274 C 
HETATM   26  C   UNL     1       3.113  28.491  49.675  1.00  0.00    -0.019 A 
HETATM   27  C   UNL     1       4.438  28.536  49.284  1.00  0.00    -0.008 A 
HETATM   28  C   UNL     1       2.292  27.947  48.639  1.00  0.00     0.017 A 
HETATM   29  S   UNL     1       4.691  27.932  47.717  1.00  0.00    -0.106 SA
HETATM   30  C   UNL     1       5.559  29.032  50.139  1.00  0.00     0.074 C 
HETATM   31  C   UNL     1       3.024  27.603  47.522  1.00  0.00     0.051 A 
HETATM   32  C   UNL     1       4.997  29.885  51.290  1.00  0.00     0.240 C 
ENDBRANCH  22  23
ENDBRANCH  21  22
ENDBRANCH  18  21
ENDBRANCH   1  17
TORSDOF 7
ENDMDL
MODEL 10
REMARK VINA RESULT:      -8.4      3.804     10.509
REMARK  7 active torsions:
REMARK  status: ('A' for Active; 'I' for Inactive)
REMARK    1  A    between atoms: C_3  and  C_4 
REMARK    2  A    between atoms: C_4  and  N_5 
REMARK    3  A    between atoms: C_4  and  C_9 
REMARK       I    between atoms: N_5  and  C_6 
REMARK       I    between atoms: C_6  and  N_7 
REMARK    4  A    between atoms: C_9  and  C_10 
REMARK       I    between atoms: C_10  and  N_11 
REMARK    5  A    between atoms: N_11  and  C_12 
REMARK    6  A    between atoms: C_12  and  C_13 
REMARK    7  A    between atoms: C_13  and  N_14 
ROOT
HETATM    1  C   UNL     1       6.038  32.227  60.210  1.00  0.00     0.132 C 
ENDROOT
BRANCH   1   2
HETATM    2  C   UNL     1       6.710  32.362  61.584  1.00  0.00     0.128 C 
BRANCH   2   3
HETATM    3  C   UNL     1       5.805  32.994  62.641  1.00  0.00    -0.029 A 
HETATM    4  C   UNL     1       6.298  33.435  63.891  1.00  0.00    -0.054 A 
HETATM    5  C   UNL     1       7.746  33.304  64.281  1.00  0.00     0.049 C 
HETATM    6  C   UNL     1       5.410  34.006  64.820  1.00  0.00     0.007 A 
HETATM    7  C   UNL     1       4.053  34.137  64.531  1.00  0.00     0.001 A 
HETATM    8  C   UNL     1       3.560  33.697  63.311  1.00  0.00     0.001 A 
HETATM    9  C   UNL     1       4.426  33.130  62.377  1.00  0.00     0.010 A 
ENDBRANCH   2   3
BRANCH   2  10
HETATM   10  N   UNL     1       7.300  31.126  62.090  1.00  0.00    -0.334 N 
HETATM   11  C   UNL     1       8.631  30.862  62.155  1.00  0.00     0.314 C 
HETATM   12  N   UNL     1       8.898  29.605  62.583  1.00  0.00    -0.352 N 
HETATM   13  O   UNL     1       9.528  31.656  61.914  1.00  0.00    -0.248 OA
HETATM   14  H   UNL     1       8.278  28.852  62.327  1.00  0.00     0.160 HD
HETATM   15  H   UNL     1       9.883  29.366  62.571  1.00  0.00     0.160 HD
HETATM   16  H   UNL     1       6.681  30.335  62.191  1.00  0.00     0.165 HD
ENDBRANCH   2  10
ENDBRANCH   1   2
BRANCH   1  17
HETATM   17  C   UNL     1       6.988  31.623  59.204  1.00  0.00     0.219 C 
HETATM   18  N   UNL     1       6.557  30.463  58.607  1.00  0.00    -0.359 N 
HETATM   19  H   UNL     1       5.574  30.238  58.750  1.00  0.00     0.162 HD
HETATM   20  O   UNL     1       8.102  32.092  58.980  1.00  0.00    -0.274 OA
BRANCH  18  21
HETATM   21  C   UNL     1       7.190  29.790  57.475  1.00  0.00     0.150 C 
BRANCH  21  22
HETATM   22  C   UNL     1       7.725  28.350  57.647  1.00  0.00     0.254 C 
BRANCH  22  23
HETATM   23  N   UNL     1       7.829  27.576  56.358  1.00  0.00    -0.065 N 
HETATM   24  H   UNL     1       8.852  27.521  56.186  1.00  0.00     0.280 HD
HETATM   25  C   UNL     1       7.311  26.158  56.417  1.00  0.00     0.274 C 
HETATM   26  C   UNL     1       7.337  25.504  55.075  1.00  0.00    -0.019 A 
HETATM   27  C   UNL     1       7.515  26.223  53.908  1.00  0.00    -0.008 A 
HETATM   28  C   UNL     1       7.176  24.110  54.798  1.00  0.00     0.017 A 
HETATM   29  S   UNL     1       7.499  25.250  52.517  1.00  0.00    -0.106 SA
HETATM   30  C   UNL     1       7.730  27.700  53.847  1.00  0.00     0.074 C 
HETATM   31  C   UNL     1       7.244  23.837  53.448  1.00  0.00     0.051 A 
HETATM   32  C   UNL     1       7.278  28.347  55.167  1.00  0.00     0.240 C 
ENDBRANCH  22  23
ENDBRANCH  21  22
ENDBRANCH  18  21
ENDBRANCH   1  17
TORSDOF 7
ENDMDL
