MODEL 1
REMARK VINA RESULT:     -11.2      0.000      0.000
REMARK  7 active torsions:
REMARK  status: ('A' for Active; 'I' for Inactive)
REMARK    1  A    between atoms: C_5  and  C_6 
REMARK    2  A    between atoms: C_6  and  C_7 
REMARK    3  A    between atoms: C_7  and  N_8 
REMARK       I    between atoms: N_8  and  C_9 
REMARK    4  A    between atoms: C_9  and  C_10 
REMARK    5  A    between atoms: C_13  and  O_14 
REMARK    6  A    between atoms: C_15  and  C_16 
REMARK    7  A    between atoms: C_16  and  C_17 
ROOT
HETATM    1  C   UNL     1       7.228  29.899  58.138  1.00  0.00     0.099 A 
HETATM    2  C   UNL     1       7.141  28.562  57.795  1.00  0.00     0.171 A 
HETATM    3  N   UNL     1       5.893  28.391  57.214  1.00  0.00    -0.192 N 
HETATM    4  C   UNL     1       5.523  27.169  56.640  1.00  0.00     0.174 C 
HETATM    5  C   UNL     1       6.377  26.124  56.650  1.00  0.00     0.023 C 
HETATM    6  C   UNL     1       7.652  26.371  57.430  1.00  0.00     0.044 C 
HETATM    7  C   UNL     1       8.591  25.215  57.696  1.00  0.00     0.071 C 
HETATM    8  N   UNL     1       8.016  27.522  57.929  1.00  0.00    -0.233 NA
HETATM    9  N   UNL     1       5.152  29.530  57.228  1.00  0.00    -0.175 NA
HETATM   10  C   UNL     1       5.970  30.431  57.779  1.00  0.00     0.160 A 
ENDROOT
BRANCH   1  11
HETATM   11  C   UNL     1       8.350  30.610  58.717  1.00  0.00     0.257 C 
HETATM   12  N   UNL     1       8.013  31.521  59.691  1.00  0.00    -0.356 N 
HETATM   13  H   UNL     1       7.027  31.589  59.940  1.00  0.00     0.162 HD
HETATM   14  O   UNL     1       9.506  30.381  58.376  1.00  0.00    -0.267 OA
BRANCH  12  15
HETATM   15  C   UNL     1       9.012  32.190  60.494  1.00  0.00     0.127 C 
BRANCH  15  16
HETATM   16  C   UNL     1       9.046  31.648  61.921  1.00  0.00     0.058 C 
BRANCH  16  17
HETATM   17  C   UNL     1       7.907  32.177  62.753  1.00  0.00    -0.057 A 
HETATM   18  C   UNL     1       8.155  33.027  63.836  1.00  0.00     0.007 A 
HETATM   19  C   UNL     1       7.102  33.500  64.623  1.00  0.00     0.007 A 
HETATM   20  C   UNL     1       5.784  33.120  64.347  1.00  0.00    -0.062 A 
HETATM   21  C   UNL     1       4.644  33.632  65.176  1.00  0.00     0.048 C 
HETATM   22  C   UNL     1       5.535  32.271  63.263  1.00  0.00     0.007 A 
HETATM   23  C   UNL     1       6.587  31.799  62.475  1.00  0.00     0.007 A 
ENDBRANCH  16  17
ENDBRANCH  15  16
ENDBRANCH  12  15
ENDBRANCH   1  11
BRANCH   4  24
HETATM   24  O   UNL     1       4.288  27.096  56.010  1.00  0.00    -0.344 OA
HETATM   25  H   UNL     1       4.405  26.455  55.274  1.00  0.00     0.219 HD
ENDBRANCH   4  24
BRANCH   5  26
HETATM   26  C   UNL     1       6.113  24.823  55.938  1.00  0.00     0.084 C 
BRANCH  26  27
HETATM   27  C   UNL     1       6.643  24.747  54.514  1.00  0.00    -0.047 A 
HETATM   28  C   UNL     1       7.695  23.892  54.122  1.00  0.00    -0.055 A 
HETATM   29  C   UNL     1       8.414  22.986  55.085  1.00  0.00     0.049 C 
HETATM   30  C   UNL     1       8.081  23.856  52.771  1.00  0.00     0.008 A 
HETATM   31  C   UNL     1       7.471  24.677  51.823  1.00  0.00     0.007 A 
HETATM   32  C   UNL     1       6.454  25.552  52.201  1.00  0.00    -0.061 A 
HETATM   33  C   UNL     1       5.823  26.472  51.199  1.00  0.00     0.048 C 
HETATM   34  C   UNL     1       6.062  25.593  53.545  1.00  0.00     0.014 A 
ENDBRANCH  26  27
ENDBRANCH   5  26
TORSDOF 7
ENDMDL
MODEL 2
REMARK VINA RESULT:     -11.0      1.783      3.146
REMARK  7 active torsions:
REMARK  status: ('A' for Active; 'I' for Inactive)
REMARK    1  A    between atoms: C_5  and  C_6 
REMARK    2  A    between atoms: C_6  and  C_7 
REMARK    3  A    between atoms: C_7  and  N_8 
REMARK       I    between atoms: N_8  and  C_9 
REMARK    4  A    between atoms: C_9  and  C_10 
REMARK    5  A    between atoms: C_13  and  O_14 
REMARK    6  A    between atoms: C_15  and  C_16 
REMARK    7  A    between atoms: C_16  and  C_17 
ROOT
HETATM    1  C   UNL     1       9.010  30.313  58.510  1.00  0.00     0.099 A 
HETATM    2  C   UNL     1       8.228  29.631  57.595  1.00  0.00     0.171 A 
HETATM    3  N   UNL     1       8.945  29.615  56.408  1.00  0.00    -0.192 N 
HETATM    4  C   UNL     1       8.491  28.895  55.296  1.00  0.00     0.174 C 
HETATM    5  C   UNL     1       7.333  28.206  55.357  1.00  0.00     0.023 C 
HETATM    6  C   UNL     1       6.560  28.403  56.645  1.00  0.00     0.044 C 
HETATM    7  C   UNL     1       5.153  27.857  56.752  1.00  0.00     0.071 C 
HETATM    8  N   UNL     1       7.001  29.039  57.696  1.00  0.00    -0.233 NA
HETATM    9  N   UNL     1      10.112  30.308  56.496  1.00  0.00    -0.175 NA
HETATM   10  C   UNL     1      10.142  30.715  57.768  1.00  0.00     0.160 A 
ENDROOT
BRANCH   1  11
HETATM   11  C   UNL     1       8.749  30.553  59.915  1.00  0.00     0.257 C 
HETATM   12  N   UNL     1       7.602  31.268  60.173  1.00  0.00    -0.356 N 
HETATM   13  H   UNL     1       7.029  31.529  59.371  1.00  0.00     0.162 HD
HETATM   14  O   UNL     1       9.487  30.118  60.793  1.00  0.00    -0.267 OA
BRANCH  12  15
HETATM   15  C   UNL     1       7.096  31.448  61.515  1.00  0.00     0.127 C 
BRANCH  15  16
HETATM   16  C   UNL     1       7.648  32.717  62.162  1.00  0.00     0.058 C 
BRANCH  16  17
HETATM   17  C   UNL     1       6.902  33.079  63.420  1.00  0.00    -0.057 A 
HETATM   18  C   UNL     1       5.503  33.108  63.432  1.00  0.00     0.007 A 
HETATM   19  C   UNL     1       4.810  33.467  64.591  1.00  0.00     0.007 A 
HETATM   20  C   UNL     1       5.506  33.814  65.754  1.00  0.00    -0.062 A 
HETATM   21  C   UNL     1       4.773  34.187  67.008  1.00  0.00     0.048 C 
HETATM   22  C   UNL     1       6.905  33.783  65.744  1.00  0.00     0.007 A 
HETATM   23  C   UNL     1       7.597  33.424  64.585  1.00  0.00     0.007 A 
ENDBRANCH  16  17
ENDBRANCH  15  16
ENDBRANCH  12  15
ENDBRANCH   1  11
BRANCH   4  24
HETATM   24  O   UNL     1       9.302  28.865  54.169  1.00  0.00    -0.344 OA
HETATM   25  H   UNL     1      10.059  28.285  54.406  1.00  0.00     0.219 HD
ENDBRANCH   4  24
BRANCH   5  26
HETATM   26  C   UNL     1       6.843  27.298  54.259  1.00  0.00     0.084 C 
BRANCH  26  27
HETATM   27  C   UNL     1       7.330  25.860  54.344  1.00  0.00    -0.047 A 
HETATM   28  C   UNL     1       7.422  25.004  53.225  1.00  0.00    -0.055 A 
HETATM   29  C   UNL     1       7.022  25.429  51.838  1.00  0.00     0.049 C 
HETATM   30  C   UNL     1       7.933  23.706  53.396  1.00  0.00     0.008 A 
HETATM   31  C   UNL     1       8.311  23.238  54.654  1.00  0.00     0.007 A 
HETATM   32  C   UNL     1       8.193  24.058  55.774  1.00  0.00    -0.061 A 
HETATM   33  C   UNL     1       8.553  23.549  57.138  1.00  0.00     0.048 C 
HETATM   34  C   UNL     1       7.686  25.354  55.613  1.00  0.00     0.014 A 
ENDBRANCH  26  27
ENDBRANCH   5  26
TORSDOF 7
ENDMDL
MODEL 3
REMARK VINA RESULT:     -10.5      1.935      9.966
REMARK  7 active torsions:
REMARK  status: ('A' for Active; 'I' for Inactive)
REMARK    1  A    between atoms: C_5  and  C_6 
REMARK    2  A    between atoms: C_6  and  C_7 
REMARK    3  A    between atoms: C_7  and  N_8 
REMARK       I    between atoms: N_8  and  C_9 
REMARK    4  A    between atoms: C_9  and  C_10 
REMARK    5  A    between atoms: C_13  and  O_14 
REMARK    6  A    between atoms: C_15  and  C_16 
REMARK    7  A    between atoms: C_16  and  C_17 
ROOT
HETATM    1  C   UNL     1       5.384  28.786  56.715  1.00  0.00     0.099 A 
HETATM    2  C   UNL     1       6.394  29.531  57.297  1.00  0.00     0.171 A 
HETATM    3  N   UNL     1       5.817  30.733  57.681  1.00  0.00    -0.192 N 
HETATM    4  C   UNL     1       6.539  31.681  58.415  1.00  0.00     0.174 C 
HETATM    5  C   UNL     1       7.823  31.446  58.756  1.00  0.00     0.023 C 
HETATM    6  C   UNL     1       8.398  30.173  58.169  1.00  0.00     0.044 C 
HETATM    7  C   UNL     1       9.882  29.904  58.301  1.00  0.00     0.071 C 
HETATM    8  N   UNL     1       7.715  29.269  57.521  1.00  0.00    -0.233 NA
HETATM    9  N   UNL     1       4.511  30.823  57.316  1.00  0.00    -0.175 NA
HETATM   10  C   UNL     1       4.261  29.642  56.744  1.00  0.00     0.160 A 
ENDROOT
BRANCH   1  11
HETATM   11  C   UNL     1       5.444  27.431  56.205  1.00  0.00     0.257 C 
HETATM   12  N   UNL     1       6.039  26.525  57.052  1.00  0.00    -0.356 N 
HETATM   13  H   UNL     1       6.347  26.871  57.959  1.00  0.00     0.162 HD
HETATM   14  O   UNL     1       4.967  27.128  55.117  1.00  0.00    -0.267 OA
BRANCH  12  15
HETATM   15  C   UNL     1       6.029  25.104  56.783  1.00  0.00     0.127 C 
BRANCH  15  16
HETATM   16  C   UNL     1       7.428  24.499  56.881  1.00  0.00     0.058 C 
BRANCH  16  17
HETATM   17  C   UNL     1       7.670  23.462  55.815  1.00  0.00    -0.057 A 
HETATM   18  C   UNL     1       7.418  23.755  54.470  1.00  0.00     0.007 A 
HETATM   19  C   UNL     1       7.619  22.787  53.483  1.00  0.00     0.007 A 
HETATM   20  C   UNL     1       8.066  21.506  53.827  1.00  0.00    -0.062 A 
HETATM   21  C   UNL     1       8.299  20.463  52.775  1.00  0.00     0.048 C 
HETATM   22  C   UNL     1       8.320  21.213  55.172  1.00  0.00     0.007 A 
HETATM   23  C   UNL     1       8.119  22.181  56.158  1.00  0.00     0.007 A 
ENDBRANCH  16  17
ENDBRANCH  15  16
ENDBRANCH  12  15
ENDBRANCH   1  11
BRANCH   4  24
HETATM   24  O   UNL     1       5.871  32.827  58.828  1.00  0.00    -0.344 OA
HETATM   25  H   UNL     1       6.484  33.278  59.450  1.00  0.00     0.219 HD
ENDBRANCH   4  24
BRANCH   5  26
HETATM   26  C   UNL     1       8.627  32.348  59.656  1.00  0.00     0.084 C 
BRANCH  26  27
HETATM   27  C   UNL     1       8.130  32.437  61.091  1.00  0.00    -0.047 A 
HETATM   28  C   UNL     1       8.510  31.529  62.103  1.00  0.00    -0.055 A 
HETATM   29  C   UNL     1       9.431  30.366  61.851  1.00  0.00     0.049 C 
HETATM   30  C   UNL     1       8.037  31.724  63.411  1.00  0.00     0.008 A 
HETATM   31  C   UNL     1       7.169  32.771  63.717  1.00  0.00     0.007 A 
HETATM   32  C   UNL     1       6.756  33.655  62.723  1.00  0.00    -0.061 A 
HETATM   33  C   UNL     1       5.786  34.757  63.032  1.00  0.00     0.048 C 
HETATM   34  C   UNL     1       7.223  33.470  61.416  1.00  0.00     0.014 A 
ENDBRANCH  26  27
ENDBRANCH   5  26
TORSDOF 7
ENDMDL
MODEL 4
REMARK VINA RESULT:     -10.5      1.393     10.011
REMARK  7 active torsions:
REMARK  status: ('A' for Active; 'I' for Inactive)
REMARK    1  A    between atoms: C_5  and  C_6 
REMARK    2  A    between atoms: C_6  and  C_7 
REMARK    3  A    between atoms: C_7  and  N_8 
REMARK       I    between atoms: N_8  and  C_9 
REMARK    4  A    between atoms: C_9  and  C_10 
REMARK    5  A    between atoms: C_13  and  O_14 
REMARK    6  A    between atoms: C_15  and  C_16 
REMARK    7  A    between atoms: C_16  and  C_17 
ROOT
HETATM    1  C   UNL     1       6.175  28.075  56.356  1.00  0.00     0.099 A 
HETATM    2  C   UNL     1       6.325  29.244  57.080  1.00  0.00     0.171 A 
HETATM    3  N   UNL     1       7.292  28.984  58.040  1.00  0.00    -0.192 N 
HETATM    4  C   UNL     1       7.776  29.999  58.874  1.00  0.00     0.174 C 
HETATM    5  C   UNL     1       7.299  31.256  58.765  1.00  0.00     0.023 C 
HETATM    6  C   UNL     1       6.150  31.402  57.789  1.00  0.00     0.044 C 
HETATM    7  C   UNL     1       5.390  32.710  57.733  1.00  0.00     0.071 C 
HETATM    8  N   UNL     1       5.727  30.468  56.981  1.00  0.00    -0.233 NA
HETATM    9  N   UNL     1       7.719  27.694  58.012  1.00  0.00    -0.175 NA
HETATM   10  C   UNL     1       7.046  27.161  56.989  1.00  0.00     0.160 A 
ENDROOT
BRANCH   1  11
HETATM   11  C   UNL     1       5.335  27.832  55.200  1.00  0.00     0.257 C 
HETATM   12  N   UNL     1       5.991  27.295  54.116  1.00  0.00    -0.356 N 
HETATM   13  H   UNL     1       6.981  27.085  54.231  1.00  0.00     0.162 HD
HETATM   14  O   UNL     1       4.131  28.064  55.215  1.00  0.00    -0.267 OA
BRANCH  12  15
HETATM   15  C   UNL     1       5.282  26.829  52.945  1.00  0.00     0.127 C 
BRANCH  15  16
HETATM   16  C   UNL     1       4.896  25.357  53.066  1.00  0.00     0.058 C 
BRANCH  16  17
HETATM   17  C   UNL     1       6.055  24.504  53.514  1.00  0.00    -0.057 A 
HETATM   18  C   UNL     1       6.210  24.170  54.863  1.00  0.00     0.007 A 
HETATM   19  C   UNL     1       7.297  23.399  55.283  1.00  0.00     0.007 A 
HETATM   20  C   UNL     1       8.253  22.960  54.361  1.00  0.00    -0.062 A 
HETATM   21  C   UNL     1       9.417  22.121  54.798  1.00  0.00     0.048 C 
HETATM   22  C   UNL     1       8.097  23.292  53.010  1.00  0.00     0.007 A 
HETATM   23  C   UNL     1       7.010  24.062  52.590  1.00  0.00     0.007 A 
ENDBRANCH  16  17
ENDBRANCH  15  16
ENDBRANCH  12  15
ENDBRANCH   1  11
BRANCH   4  24
HETATM   24  O   UNL     1       8.798  29.679  59.758  1.00  0.00    -0.344 OA
HETATM   25  H   UNL     1       8.426  28.987  60.349  1.00  0.00     0.219 HD
ENDBRANCH   4  24
BRANCH   5  26
HETATM   26  C   UNL     1       7.858  32.430  59.526  1.00  0.00     0.084 C 
BRANCH  26  27
HETATM   27  C   UNL     1       7.460  32.498  60.993  1.00  0.00    -0.047 A 
HETATM   28  C   UNL     1       8.356  32.241  62.052  1.00  0.00    -0.055 A 
HETATM   29  C   UNL     1       9.792  31.851  61.831  1.00  0.00     0.049 C 
HETATM   30  C   UNL     1       7.908  32.378  63.377  1.00  0.00     0.008 A 
HETATM   31  C   UNL     1       6.586  32.723  63.660  1.00  0.00     0.007 A 
HETATM   32  C   UNL     1       5.680  32.945  62.625  1.00  0.00    -0.061 A 
HETATM   33  C   UNL     1       4.246  33.271  62.919  1.00  0.00     0.048 C 
HETATM   34  C   UNL     1       6.119  32.813  61.302  1.00  0.00     0.014 A 
ENDBRANCH  26  27
ENDBRANCH   5  26
TORSDOF 7
ENDMDL
MODEL 5
REMARK VINA RESULT:     -10.4      5.366      8.759
REMARK  7 active torsions:
REMARK  status: ('A' for Active; 'I' for Inactive)
REMARK    1  A    between atoms: C_5  and  C_6 
REMARK    2  A    between atoms: C_6  and  C_7 
REMARK    3  A    between atoms: C_7  and  N_8 
REMARK       I    between atoms: N_8  and  C_9 
REMARK    4  A    between atoms: C_9  and  C_10 
REMARK    5  A    between atoms: C_13  and  O_14 
REMARK    6  A    between atoms: C_15  and  C_16 
REMARK    7  A    between atoms: C_16  and  C_17 
ROOT
HETATM    1  C   UNL     1       4.693  28.162  55.261  1.00  0.00     0.099 A 
HETATM    2  C   UNL     1       4.880  27.906  53.915  1.00  0.00     0.171 A 
HETATM    3  N   UNL     1       4.275  28.952  53.234  1.00  0.00    -0.192 N 
HETATM    4  C   UNL     1       4.381  29.069  51.843  1.00  0.00     0.174 C 
HETATM    5  C   UNL     1       5.071  28.153  51.132  1.00  0.00     0.023 C 
HETATM    6  C   UNL     1       5.570  26.979  51.950  1.00  0.00     0.044 C 
HETATM    7  C   UNL     1       6.170  25.786  51.240  1.00  0.00     0.071 C 
HETATM    8  N   UNL     1       5.508  26.890  53.252  1.00  0.00    -0.233 NA
HETATM    9  N   UNL     1       3.655  29.827  54.069  1.00  0.00    -0.175 NA
HETATM   10  C   UNL     1       3.922  29.344  55.286  1.00  0.00     0.160 A 
ENDROOT
BRANCH   1  11
HETATM   11  C   UNL     1       5.186  27.409  56.398  1.00  0.00     0.257 C 
HETATM   12  N   UNL     1       5.333  26.060  56.173  1.00  0.00    -0.356 N 
HETATM   13  H   UNL     1       5.122  25.721  55.236  1.00  0.00     0.162 HD
HETATM   14  O   UNL     1       5.474  27.954  57.458  1.00  0.00    -0.267 OA
BRANCH  12  15
HETATM   15  C   UNL     1       5.974  25.189  57.133  1.00  0.00     0.127 C 
BRANCH  15  16
HETATM   16  C   UNL     1       7.437  24.934  56.777  1.00  0.00     0.058 C 
BRANCH  16  17
HETATM   17  C   UNL     1       7.588  23.826  55.767  1.00  0.00    -0.057 A 
HETATM   18  C   UNL     1       7.677  22.494  56.185  1.00  0.00     0.007 A 
HETATM   19  C   UNL     1       7.841  21.467  55.252  1.00  0.00     0.007 A 
HETATM   20  C   UNL     1       7.929  21.757  53.886  1.00  0.00    -0.062 A 
HETATM   21  C   UNL     1       8.091  20.662  52.874  1.00  0.00     0.048 C 
HETATM   22  C   UNL     1       7.838  23.089  53.467  1.00  0.00     0.007 A 
HETATM   23  C   UNL     1       7.674  24.116  54.400  1.00  0.00     0.007 A 
ENDBRANCH  16  17
ENDBRANCH  15  16
ENDBRANCH  12  15
ENDBRANCH   1  11
BRANCH   4  24
HETATM   24  O   UNL     1       3.813  30.184  51.241  1.00  0.00    -0.344 OA
HETATM   25  H   UNL     1       2.909  30.255  51.620  1.00  0.00     0.219 HD
ENDBRANCH   4  24
BRANCH   5  26
HETATM   26  C   UNL     1       5.349  28.276  49.657  1.00  0.00     0.084 C 
BRANCH  26  27
HETATM   27  C   UNL     1       4.260  27.727  48.747  1.00  0.00    -0.047 A 
HETATM   28  C   UNL     1       3.457  28.540  47.919  1.00  0.00    -0.055 A 
HETATM   29  C   UNL     1       3.585  30.039  47.876  1.00  0.00     0.049 C 
HETATM   30  C   UNL     1       2.510  27.935  47.076  1.00  0.00     0.008 A 
HETATM   31  C   UNL     1       2.325  26.553  47.072  1.00  0.00     0.007 A 
HETATM   32  C   UNL     1       3.086  25.739  47.908  1.00  0.00    -0.061 A 
HETATM   33  C   UNL     1       2.862  24.256  47.945  1.00  0.00     0.048 C 
HETATM   34  C   UNL     1       4.033  26.333  48.752  1.00  0.00     0.014 A 
ENDBRANCH  26  27
ENDBRANCH   5  26
TORSDOF 7
ENDMDL
MODEL 6
REMARK VINA RESULT:     -10.1      1.859     10.332
REMARK  7 active torsions:
REMARK  status: ('A' for Active; 'I' for Inactive)
REMARK    1  A    between atoms: C_5  and  C_6 
REMARK    2  A    between atoms: C_6  and  C_7 
REMARK    3  A    between atoms: C_7  and  N_8 
REMARK       I    between atoms: N_8  and  C_9 
REMARK    4  A    between atoms: C_9  and  C_10 
REMARK    5  A    between atoms: C_13  and  O_14 
REMARK    6  A    between atoms: C_15  and  C_16 
REMARK    7  A    between atoms: C_16  and  C_17 
ROOT
HETATM    1  C   UNL     1       7.116  28.040  56.692  1.00  0.00     0.099 A 
HETATM    2  C   UNL     1       6.524  29.110  57.339  1.00  0.00     0.171 A 
HETATM    3  N   UNL     1       7.561  29.890  57.828  1.00  0.00    -0.192 N 
HETATM    4  C   UNL     1       7.312  31.125  58.439  1.00  0.00     0.174 C 
HETATM    5  C   UNL     1       6.049  31.578  58.572  1.00  0.00     0.023 C 
HETATM    6  C   UNL     1       4.986  30.591  58.135  1.00  0.00     0.044 C 
HETATM    7  C   UNL     1       3.533  30.893  58.430  1.00  0.00     0.071 C 
HETATM    8  N   UNL     1       5.216  29.458  57.528  1.00  0.00    -0.233 NA
HETATM    9  N   UNL     1       8.781  29.342  57.588  1.00  0.00    -0.175 NA
HETATM   10  C   UNL     1       8.499  28.235  56.897  1.00  0.00     0.160 A 
ENDROOT
BRANCH   1  11
HETATM   11  C   UNL     1       6.478  26.968  55.954  1.00  0.00     0.257 C 
HETATM   12  N   UNL     1       6.713  26.985  54.599  1.00  0.00    -0.356 N 
HETATM   13  H   UNL     1       7.331  27.714  54.245  1.00  0.00     0.162 HD
HETATM   14  O   UNL     1       5.813  26.104  56.515  1.00  0.00    -0.267 OA
BRANCH  12  15
HETATM   15  C   UNL     1       6.303  25.899  53.737  1.00  0.00     0.127 C 
BRANCH  15  16
HETATM   16  C   UNL     1       7.500  25.206  53.091  1.00  0.00     0.058 C 
BRANCH  16  17
HETATM   17  C   UNL     1       7.767  23.855  53.702  1.00  0.00    -0.057 A 
HETATM   18  C   UNL     1       7.814  22.710  52.899  1.00  0.00     0.007 A 
HETATM   19  C   UNL     1       8.037  21.453  53.466  1.00  0.00     0.007 A 
HETATM   20  C   UNL     1       8.205  21.319  54.849  1.00  0.00    -0.062 A 
HETATM   21  C   UNL     1       8.459  19.977  55.468  1.00  0.00     0.048 C 
HETATM   22  C   UNL     1       8.160  22.464  55.653  1.00  0.00     0.007 A 
HETATM   23  C   UNL     1       7.938  23.721  55.085  1.00  0.00     0.007 A 
ENDBRANCH  16  17
ENDBRANCH  15  16
ENDBRANCH  12  15
ENDBRANCH   1  11
BRANCH   4  24
HETATM   24  O   UNL     1       8.407  31.884  58.835  1.00  0.00    -0.344 OA
HETATM   25  H   UNL     1       8.314  31.989  59.808  1.00  0.00     0.219 HD
ENDBRANCH   4  24
BRANCH   5  26
HETATM   26  C   UNL     1       5.704  32.950  59.091  1.00  0.00     0.084 C 
BRANCH  26  27
HETATM   27  C   UNL     1       5.554  33.050  60.601  1.00  0.00    -0.047 A 
HETATM   28  C   UNL     1       4.344  33.397  61.240  1.00  0.00    -0.055 A 
HETATM   29  C   UNL     1       3.086  33.726  60.482  1.00  0.00     0.049 C 
HETATM   30  C   UNL     1       4.291  33.415  62.644  1.00  0.00     0.008 A 
HETATM   31  C   UNL     1       5.420  33.136  63.413  1.00  0.00     0.007 A 
HETATM   32  C   UNL     1       6.631  32.826  62.797  1.00  0.00    -0.061 A 
HETATM   33  C   UNL     1       7.862  32.569  63.614  1.00  0.00     0.048 C 
HETATM   34  C   UNL     1       6.693  32.804  61.398  1.00  0.00     0.014 A 
ENDBRANCH  26  27
ENDBRANCH   5  26
TORSDOF 7
ENDMDL
MODEL 7
REMARK VINA RESULT:     -10.0      2.287      4.383
REMARK  7 active torsions:
REMARK  status: ('A' for Active; 'I' for Inactive)
REMARK    1  A    between atoms: C_5  and  C_6 
REMARK    2  A    between atoms: C_6  and  C_7 
REMARK    3  A    between atoms: C_7  and  N_8 
REMARK       I    between atoms: N_8  and  C_9 
REMARK    4  A    between atoms: C_9  and  C_10 
REMARK    5  A    between atoms: C_13  and  O_14 
REMARK    6  A    between atoms: C_15  and  C_16 
REMARK    7  A    between atoms: C_16  and  C_17 
ROOT
HETATM    1  C   UNL     1       6.660  27.844  56.234  1.00  0.00     0.099 A 
HETATM    2  C   UNL     1       6.516  27.173  55.033  1.00  0.00     0.171 A 
HETATM    3  N   UNL     1       5.184  27.310  54.670  1.00  0.00    -0.192 N 
HETATM    4  C   UNL     1       4.719  26.846  53.434  1.00  0.00     0.174 C 
HETATM    5  C   UNL     1       5.563  26.245  52.570  1.00  0.00     0.023 C 
HETATM    6  C   UNL     1       6.957  26.019  53.118  1.00  0.00     0.044 C 
HETATM    7  C   UNL     1       7.931  25.169  52.332  1.00  0.00     0.071 C 
HETATM    8  N   UNL     1       7.403  26.488  54.253  1.00  0.00    -0.233 NA
HETATM    9  N   UNL     1       4.455  27.973  55.606  1.00  0.00    -0.175 NA
HETATM   10  C   UNL     1       5.357  28.296  56.537  1.00  0.00     0.160 A 
ENDROOT
BRANCH   1  11
HETATM   11  C   UNL     1       7.867  28.058  57.008  1.00  0.00     0.257 C 
HETATM   12  N   UNL     1       8.257  29.373  57.111  1.00  0.00    -0.356 N 
HETATM   13  H   UNL     1       7.656  30.071  56.675  1.00  0.00     0.162 HD
HETATM   14  O   UNL     1       8.462  27.131  57.547  1.00  0.00    -0.267 OA
BRANCH  12  15
HETATM   15  C   UNL     1       9.332  29.787  57.985  1.00  0.00     0.127 C 
BRANCH  15  16
HETATM   16  C   UNL     1       9.312  31.294  58.233  1.00  0.00     0.058 C 
BRANCH  16  17
HETATM   17  C   UNL     1       8.858  31.629  59.630  1.00  0.00    -0.057 A 
HETATM   18  C   UNL     1       7.514  31.918  59.889  1.00  0.00     0.007 A 
HETATM   19  C   UNL     1       7.095  32.252  61.180  1.00  0.00     0.007 A 
HETATM   20  C   UNL     1       8.017  32.315  62.230  1.00  0.00    -0.062 A 
HETATM   21  C   UNL     1       7.578  32.659  63.622  1.00  0.00     0.048 C 
HETATM   22  C   UNL     1       9.362  32.024  61.972  1.00  0.00     0.007 A 
HETATM   23  C   UNL     1       9.780  31.689  60.682  1.00  0.00     0.007 A 
ENDBRANCH  16  17
ENDBRANCH  15  16
ENDBRANCH  12  15
ENDBRANCH   1  11
BRANCH   4  24
HETATM   24  O   UNL     1       3.390  27.087  53.110  1.00  0.00    -0.344 OA
HETATM   25  H   UNL     1       3.169  26.435  52.409  1.00  0.00     0.219 HD
ENDBRANCH   4  24
BRANCH   5  26
HETATM   26  C   UNL     1       5.178  25.841  51.170  1.00  0.00     0.084 C 
BRANCH  26  27
HETATM   27  C   UNL     1       4.954  26.995  50.204  1.00  0.00    -0.047 A 
HETATM   28  C   UNL     1       4.213  26.873  49.009  1.00  0.00    -0.055 A 
HETATM   29  C   UNL     1       3.590  25.578  48.562  1.00  0.00     0.049 C 
HETATM   30  C   UNL     1       4.018  28.009  48.206  1.00  0.00     0.008 A 
HETATM   31  C   UNL     1       4.576  29.241  48.548  1.00  0.00     0.007 A 
HETATM   32  C   UNL     1       5.340  29.369  49.706  1.00  0.00    -0.061 A 
HETATM   33  C   UNL     1       5.983  30.677  50.059  1.00  0.00     0.048 C 
HETATM   34  C   UNL     1       5.538  28.242  50.514  1.00  0.00     0.014 A 
ENDBRANCH  26  27
ENDBRANCH   5  26
TORSDOF 7
ENDMDL
MODEL 8
REMARK VINA RESULT:      -9.9      1.714      2.675
REMARK  7 active torsions:
REMARK  status: ('A' for Active; 'I' for Inactive)
REMARK    1  A    between atoms: C_5  and  C_6 
REMARK    2  A    between atoms: C_6  and  C_7 
REMARK    3  A    between atoms: C_7  and  N_8 
REMARK       I    between atoms: N_8  and  C_9 
REMARK    4  A    between atoms: C_9  and  C_10 
REMARK    5  A    between atoms: C_13  and  O_14 
REMARK    6  A    between atoms: C_15  and  C_16 
REMARK    7  A    between atoms: C_16  and  C_17 
ROOT
HETATM    1  C   UNL     1       7.243  30.676  58.651  1.00  0.00     0.099 A 
HETATM    2  C   UNL     1       6.768  29.614  57.901  1.00  0.00     0.171 A 
HETATM    3  N   UNL     1       7.791  28.679  57.863  1.00  0.00    -0.192 N 
HETATM    4  C   UNL     1       7.600  27.420  57.280  1.00  0.00     0.174 C 
HETATM    5  C   UNL     1       6.411  27.096  56.732  1.00  0.00     0.023 C 
HETATM    6  C   UNL     1       5.411  28.233  56.700  1.00  0.00     0.044 C 
HETATM    7  C   UNL     1       4.123  28.062  55.925  1.00  0.00     0.071 C 
HETATM    8  N   UNL     1       5.572  29.392  57.280  1.00  0.00    -0.233 NA
HETATM    9  N   UNL     1       8.917  29.113  58.489  1.00  0.00    -0.175 NA
HETATM   10  C   UNL     1       8.570  30.311  58.966  1.00  0.00     0.160 A 
ENDROOT
BRANCH   1  11
HETATM   11  C   UNL     1       6.545  31.883  59.046  1.00  0.00     0.257 C 
HETATM   12  N   UNL     1       6.274  31.975  60.391  1.00  0.00    -0.356 N 
HETATM   13  H   UNL     1       6.612  31.219  60.985  1.00  0.00     0.162 HD
HETATM   14  O   UNL     1       6.256  32.758  58.236  1.00  0.00    -0.267 OA
BRANCH  12  15
HETATM   15  C   UNL     1       5.743  33.182  60.985  1.00  0.00     0.127 C 
BRANCH  15  16
HETATM   16  C   UNL     1       6.546  33.609  62.212  1.00  0.00     0.058 C 
BRANCH  16  17
HETATM   17  C   UNL     1       5.655  34.052  63.343  1.00  0.00    -0.057 A 
HETATM   18  C   UNL     1       4.767  35.120  63.171  1.00  0.00     0.007 A 
HETATM   19  C   UNL     1       3.957  35.547  64.227  1.00  0.00     0.007 A 
HETATM   20  C   UNL     1       4.030  34.920  65.475  1.00  0.00    -0.062 A 
HETATM   21  C   UNL     1       3.156  35.360  66.611  1.00  0.00     0.048 C 
HETATM   22  C   UNL     1       4.916  33.850  65.648  1.00  0.00     0.007 A 
HETATM   23  C   UNL     1       5.725  33.423  64.592  1.00  0.00     0.007 A 
ENDBRANCH  16  17
ENDBRANCH  15  16
ENDBRANCH  12  15
ENDBRANCH   1  11
BRANCH   4  24
HETATM   24  O   UNL     1       8.647  26.510  57.347  1.00  0.00    -0.344 OA
HETATM   25  H   UNL     1       9.379  26.985  57.798  1.00  0.00     0.219 HD
ENDBRANCH   4  24
BRANCH   5  26
HETATM   26  C   UNL     1       6.079  25.723  56.208  1.00  0.00     0.084 C 
BRANCH  26  27
HETATM   27  C   UNL     1       6.586  25.427  54.805  1.00  0.00    -0.047 A 
HETATM   28  C   UNL     1       7.607  24.491  54.530  1.00  0.00    -0.055 A 
HETATM   29  C   UNL     1       8.310  23.710  55.606  1.00  0.00     0.049 C 
HETATM   30  C   UNL     1       7.973  24.250  53.195  1.00  0.00     0.008 A 
HETATM   31  C   UNL     1       7.375  24.946  52.144  1.00  0.00     0.007 A 
HETATM   32  C   UNL     1       6.391  25.899  52.402  1.00  0.00    -0.061 A 
HETATM   33  C   UNL     1       5.775  26.686  51.284  1.00  0.00     0.048 C 
HETATM   34  C   UNL     1       6.019  26.145  53.730  1.00  0.00     0.014 A 
ENDBRANCH  26  27
ENDBRANCH   5  26
TORSDOF 7
ENDMDL
MODEL 9
REMARK VINA RESULT:      -9.6      7.892     11.305
REMARK  7 active torsions:
REMARK  status: ('A' for Active; 'I' for Inactive)
REMARK    1  A    between atoms: C_5  and  C_6 
REMARK    2  A    between atoms: C_6  and  C_7 
REMARK    3  A    between atoms: C_7  and  N_8 
REMARK       I    between atoms: N_8  and  C_9 
REMARK    4  A    between atoms: C_9  and  C_10 
REMARK    5  A    between atoms: C_13  and  O_14 
REMARK    6  A    between atoms: C_15  and  C_16 
REMARK    7  A    between atoms: C_16  and  C_17 
ROOT
HETATM    1  C   UNL     1       4.603  26.564  49.686  1.00  0.00     0.099 A 
HETATM    2  C   UNL     1       4.724  27.906  49.371  1.00  0.00     0.171 A 
HETATM    3  N   UNL     1       3.968  28.106  48.226  1.00  0.00    -0.192 N 
HETATM    4  C   UNL     1       3.775  29.389  47.701  1.00  0.00     0.174 C 
HETATM    5  C   UNL     1       4.334  30.462  48.298  1.00  0.00     0.023 C 
HETATM    6  C   UNL     1       5.252  30.121  49.454  1.00  0.00     0.044 C 
HETATM    7  C   UNL     1       6.102  31.212  50.068  1.00  0.00     0.071 C 
HETATM    8  N   UNL     1       5.400  28.931  49.970  1.00  0.00    -0.233 NA
HETATM    9  N   UNL     1       3.425  26.953  47.754  1.00  0.00    -0.175 NA
HETATM   10  C   UNL     1       3.808  26.035  48.646  1.00  0.00     0.160 A 
ENDROOT
BRANCH   1  11
HETATM   11  C   UNL     1       5.146  25.853  50.826  1.00  0.00     0.257 C 
HETATM   12  N   UNL     1       6.329  26.361  51.310  1.00  0.00    -0.356 N 
HETATM   13  H   UNL     1       6.694  27.198  50.856  1.00  0.00     0.162 HD
HETATM   14  O   UNL     1       4.565  24.896  51.327  1.00  0.00    -0.267 OA
BRANCH  12  15
HETATM   15  C   UNL     1       6.919  25.889  52.542  1.00  0.00     0.127 C 
BRANCH  15  16
HETATM   16  C   UNL     1       8.004  24.845  52.287  1.00  0.00     0.058 C 
BRANCH  16  17
HETATM   17  C   UNL     1       7.945  23.715  53.281  1.00  0.00    -0.057 A 
HETATM   18  C   UNL     1       7.978  22.385  52.847  1.00  0.00     0.007 A 
HETATM   19  C   UNL     1       7.900  21.336  53.767  1.00  0.00     0.007 A 
HETATM   20  C   UNL     1       7.777  21.600  55.135  1.00  0.00    -0.062 A 
HETATM   21  C   UNL     1       7.706  20.483  56.132  1.00  0.00     0.048 C 
HETATM   22  C   UNL     1       7.747  22.930  55.570  1.00  0.00     0.007 A 
HETATM   23  C   UNL     1       7.826  23.979  54.651  1.00  0.00     0.007 A 
ENDBRANCH  16  17
ENDBRANCH  15  16
ENDBRANCH  12  15
ENDBRANCH   1  11
BRANCH   4  24
HETATM   24  O   UNL     1       2.943  29.518  46.596  1.00  0.00    -0.344 OA
HETATM   25  H   UNL     1       2.969  28.645  46.145  1.00  0.00     0.219 HD
ENDBRANCH   4  24
BRANCH   5  26
HETATM   26  C   UNL     1       4.067  31.884  47.880  1.00  0.00     0.084 C 
BRANCH  26  27
HETATM   27  C   UNL     1       5.180  32.542  47.078  1.00  0.00    -0.047 A 
HETATM   28  C   UNL     1       5.267  32.473  45.671  1.00  0.00    -0.055 A 
HETATM   29  C   UNL     1       4.276  31.719  44.827  1.00  0.00     0.049 C 
HETATM   30  C   UNL     1       6.306  33.156  45.016  1.00  0.00     0.008 A 
HETATM   31  C   UNL     1       7.270  33.864  45.733  1.00  0.00     0.007 A 
HETATM   32  C   UNL     1       7.218  33.912  47.124  1.00  0.00    -0.061 A 
HETATM   33  C   UNL     1       8.275  34.632  47.906  1.00  0.00     0.048 C 
HETATM   34  C   UNL     1       6.185  33.236  47.786  1.00  0.00     0.014 A 
ENDBRANCH  26  27
ENDBRANCH   5  26
TORSDOF 7
ENDMDL
MODEL 10
REMARK VINA RESULT:      -9.6      7.198     10.561
REMARK  7 active torsions:
REMARK  status: ('A' for Active; 'I' for Inactive)
REMARK    1  A    between atoms: C_5  and  C_6 
REMARK    2  A    between atoms: C_6  and  C_7 
REMARK    3  A    between atoms: C_7  and  N_8 
REMARK       I    between atoms: N_8  and  C_9 
REMARK    4  A    between atoms: C_9  and  C_10 
REMARK    5  A    between atoms: C_13  and  O_14 
REMARK    6  A    between atoms: C_15  and  C_16 
REMARK    7  A    between atoms: C_16  and  C_17 
ROOT
HETATM    1  C   UNL     1       4.619  27.691  52.478  1.00  0.00     0.099 A 
HETATM    2  C   UNL     1       4.360  27.827  51.126  1.00  0.00     0.171 A 
HETATM    3  N   UNL     1       3.249  28.651  51.025  1.00  0.00    -0.192 N 
HETATM    4  C   UNL     1       2.786  29.094  49.780  1.00  0.00     0.174 C 
HETATM    5  C   UNL     1       3.411  28.716  48.646  1.00  0.00     0.023 C 
HETATM    6  C   UNL     1       4.522  27.707  48.856  1.00  0.00     0.044 C 
HETATM    7  C   UNL     1       5.156  27.047  47.651  1.00  0.00     0.071 C 
HETATM    8  N   UNL     1       4.981  27.326  50.017  1.00  0.00    -0.233 NA
HETATM    9  N   UNL     1       2.744  28.993  52.239  1.00  0.00    -0.175 NA
HETATM   10  C   UNL     1       3.583  28.416  53.104  1.00  0.00     0.160 A 
ENDROOT
BRANCH   1  11
HETATM   11  C   UNL     1       5.711  26.985  53.119  1.00  0.00     0.257 C 
HETATM   12  N   UNL     1       6.533  26.295  52.258  1.00  0.00    -0.356 N 
HETATM   13  H   UNL     1       6.329  26.370  51.263  1.00  0.00     0.162 HD
HETATM   14  O   UNL     1       5.890  27.035  54.331  1.00  0.00    -0.267 OA
BRANCH  12  15
HETATM   15  C   UNL     1       7.765  25.682  52.702  1.00  0.00     0.127 C 
BRANCH  15  16
HETATM   16  C   UNL     1       7.930  24.272  52.139  1.00  0.00     0.058 C 
BRANCH  16  17
HETATM   17  C   UNL     1       7.932  23.228  53.225  1.00  0.00    -0.057 A 
HETATM   18  C   UNL     1       7.972  21.867  52.901  1.00  0.00     0.007 A 
HETATM   19  C   UNL     1       7.950  20.897  53.907  1.00  0.00     0.007 A 
HETATM   20  C   UNL     1       7.878  21.272  55.253  1.00  0.00    -0.062 A 
HETATM   21  C   UNL     1       7.868  20.240  56.340  1.00  0.00     0.048 C 
HETATM   22  C   UNL     1       7.840  22.633  55.577  1.00  0.00     0.007 A 
HETATM   23  C   UNL     1       7.863  23.603  54.573  1.00  0.00     0.007 A 
ENDBRANCH  16  17
ENDBRANCH  15  16
ENDBRANCH  12  15
ENDBRANCH   1  11
BRANCH   4  24
HETATM   24  O   UNL     1       1.714  29.977  49.765  1.00  0.00    -0.344 OA
HETATM   25  H   UNL     1       1.979  30.721  50.350  1.00  0.00     0.219 HD
ENDBRANCH   4  24
BRANCH   5  26
HETATM   26  C   UNL     1       3.064  29.253  47.282  1.00  0.00     0.084 C 
BRANCH  26  27
HETATM   27  C   UNL     1       1.629  29.013  46.840  1.00  0.00    -0.047 A 
HETATM   28  C   UNL     1       1.071  27.726  46.680  1.00  0.00    -0.055 A 
HETATM   29  C   UNL     1       1.855  26.462  46.910  1.00  0.00     0.049 C 
HETATM   30  C   UNL     1      -0.280  27.605  46.315  1.00  0.00     0.008 A 
HETATM   31  C   UNL     1      -1.066  28.732  46.071  1.00  0.00     0.007 A 
HETATM   32  C   UNL     1      -0.521  30.008  46.190  1.00  0.00    -0.061 A 
HETATM   33  C   UNL     1      -1.344  31.224  45.885  1.00  0.00     0.048 C 
HETATM   34  C   UNL     1       0.825  30.138  46.554  1.00  0.00     0.014 A 
ENDBRANCH  26  27
ENDBRANCH   5  26
TORSDOF 7
ENDMDL
